# generated using pymatgen
data_Gd2Al7N9
_symmetry_space_group_name_H-M   'P 1'
_cell_length_a   9.97685297
_cell_length_b   9.86504299
_cell_length_c   10.50999713
_cell_angle_alpha   90.18529268
_cell_angle_beta   90.40058454
_cell_angle_gamma   60.65442100
_symmetry_Int_Tables_number   1
_chemical_formula_structural   Gd2Al7N9
_chemical_formula_sum   'Gd8 Al28 N36'
_cell_volume   901.65719814
_cell_formula_units_Z   4
loop_
 _symmetry_equiv_pos_site_id
 _symmetry_equiv_pos_as_xyz
  1  'x, y, z'
loop_
 _atom_site_type_symbol
 _atom_site_label
 _atom_site_symmetry_multiplicity
 _atom_site_fract_x
 _atom_site_fract_y
 _atom_site_fract_z
 _atom_site_occupancy
  Al  Al0  1  0.12499489  0.08731292  0.38729916  1
  Al  Al1  1  0.21419483  0.21358570  0.14344690  1
  Al  Al2  1  0.53751409  0.22098629  0.13773094  1
  Al  Al3  1  0.11973608  0.09158871  0.89823088  1
  Al  Al4  1  0.22788218  0.19966658  0.64749095  1
  Al  Al5  1  0.79193706  0.09171968  0.29955848  1
  Al  Al6  1  0.90439396  0.19921680  0.08249713  1
  Al  Al7  1  0.41653607  0.11742276  0.89606584  1
  Al  Al8  1  0.52724519  0.22052293  0.66103208  1
  Al  Al9  1  0.12691984  0.41897421  0.39187715  1
  Al  Al10  1  0.22085651  0.52932686  0.14591623  1
  Al  Al11  1  0.45599304  0.42674104  0.40040501  1
  Al  Al12  1  0.11717295  0.42554632  0.89382771  1
  Al  Al13  1  0.23184762  0.52593392  0.64108086  1
  Al  Al14  1  0.80245095  0.41811907  0.31566901  1
  Al  Al15  1  0.90872188  0.53301759  0.07694941  1
  Al  Al16  1  0.40665685  0.44408444  0.89415538  1
  Al  Al17  1  0.52215749  0.55485370  0.65305995  1
  Al  Al18  1  0.11922584  0.75828473  0.32298530  1
  Al  Al19  1  0.22016442  0.88175234  0.14710811  1
  Al  Al20  1  0.78871250  0.75706343  0.84037946  1
  Al  Al21  1  0.46274900  0.75083186  0.40530609  1
  Al  Al22  1  0.11431028  0.75742311  0.81861222  1
  Al  Al23  1  0.22986890  0.87722620  0.63962399  1
  Al  Al24  1  0.80236434  0.74203449  0.31005091  1
  Al  Al25  1  0.91924718  0.84857263  0.07684890  1
  Al  Al26  1  0.40970934  0.77713469  0.89161343  1
  Al  Al27  1  0.53847338  0.88120767  0.67087596  1
  Gd  Gd28  1  0.76139802  0.09270336  0.86797927  1
  Gd  Gd29  1  0.87118093  0.21436469  0.58043466  1
  Gd  Gd30  1  0.45618459  0.08753130  0.39553228  1
  Gd  Gd31  1  0.75109895  0.44486132  0.86559763  1
  Gd  Gd32  1  0.88070080  0.54190979  0.59194450  1
  Gd  Gd33  1  0.53842229  0.54501240  0.14384876  1
  Gd  Gd34  1  0.88194736  0.87605160  0.57328495  1
  Gd  Gd35  1  0.56261005  0.87268987  0.10722838  1
  N  N36  1  0.20623000  0.21408170  0.32375351  1
  N  N37  1  0.12319196  0.09005798  0.08667363  1
  N  N38  1  0.90780966  0.19724854  0.89567501  1
  N  N39  1  0.74105498  0.10860134  0.64801816  1
  N  N40  1  0.57113875  0.22321797  0.31780834  1
  N  N41  1  0.42250998  0.12672286  0.08329357  1
  N  N42  1  0.20905448  0.21081798  0.83385653  1
  N  N43  1  0.13924795  0.08287824  0.57280822  1
  N  N44  1  0.90009196  0.19762673  0.35552759  1
  N  N45  1  0.78372848  0.08806101  0.11301579  1
  N  N46  1  0.50123259  0.23760764  0.83929362  1
  N  N47  1  0.44277180  0.09015904  0.61262477  1
  N  N48  1  0.23556260  0.52823207  0.33341230  1
  N  N49  1  0.12263170  0.42061636  0.08028758  1
  N  N50  1  0.89952141  0.54918270  0.88879966  1
  N  N51  1  0.73672978  0.44814635  0.65300396  1
  N  N52  1  0.56884670  0.53314766  0.35846412  1
  N  N53  1  0.41947485  0.42333265  0.07405937  1
  N  N54  1  0.20827801  0.53654964  0.82608623  1
  N  N55  1  0.14732755  0.40399889  0.57616576  1
  N  N56  1  0.90353507  0.53188417  0.37094853  1
  N  N57  1  0.80527536  0.41838411  0.12627105  1
  N  N58  1  0.48839462  0.57072825  0.83704536  1
  N  N59  1  0.44075761  0.42643592  0.58366295  1
  N  N60  1  0.23958602  0.86858437  0.33490336  1
  N  N61  1  0.12171953  0.75651393  0.13749438  1
  N  N62  1  0.91658965  0.83834622  0.89363405  1
  N  N63  1  0.75171762  0.77765912  0.66468668  1
  N  N64  1  0.58284042  0.83613778  0.33330862  1
  N  N65  1  0.40704563  0.77974175  0.06762542  1
  N  N66  1  0.20971719  0.89067644  0.82550152  1
  N  N67  1  0.13386613  0.74944830  0.63126689  1
  N  N68  1  0.89534198  0.87307852  0.35552978  1
  N  N69  1  0.82380039  0.73654979  0.13127652  1
  N  N70  1  0.54106964  0.88244802  0.86153465  1
  N  N71  1  0.44337649  0.76689141  0.59189671  1
