# generated using pymatgen
data_Gd2Al7N9
_symmetry_space_group_name_H-M   'P 1'
_cell_length_a   9.92637730
_cell_length_b   9.82934376
_cell_length_c   10.33777243
_cell_angle_alpha   90.13782518
_cell_angle_beta   89.91291872
_cell_angle_gamma   60.58865035
_symmetry_Int_Tables_number   1
_chemical_formula_structural   Gd2Al7N9
_chemical_formula_sum   'Gd8 Al28 N36'
_cell_volume   878.64853878
_cell_formula_units_Z   4
loop_
 _symmetry_equiv_pos_site_id
 _symmetry_equiv_pos_as_xyz
  1  'x, y, z'
loop_
 _atom_site_type_symbol
 _atom_site_label
 _atom_site_symmetry_multiplicity
 _atom_site_fract_x
 _atom_site_fract_y
 _atom_site_fract_z
 _atom_site_occupancy
  Al  Al0  1  0.12161050  0.08957222  0.40025048  1
  Al  Al1  1  0.21232217  0.21467647  0.14944950  1
  Al  Al2  1  0.53477943  0.22267071  0.15886388  1
  Al  Al3  1  0.11478227  0.08987276  0.91035507  1
  Al  Al4  1  0.23195389  0.19843748  0.66583783  1
  Al  Al5  1  0.76637670  0.10419110  0.38531463  1
  Al  Al6  1  0.90011783  0.20281329  0.17770394  1
  Al  Al7  1  0.43083712  0.11013229  0.89671966  1
  Al  Al8  1  0.54075222  0.21675591  0.66245303  1
  Al  Al9  1  0.12129988  0.42288620  0.40029964  1
  Al  Al10  1  0.21727022  0.53905759  0.15426806  1
  Al  Al11  1  0.43953594  0.43367981  0.41720878  1
  Al  Al12  1  0.11499106  0.43025154  0.91318444  1
  Al  Al13  1  0.23434537  0.53299419  0.65492435  1
  Al  Al14  1  0.76993525  0.43552662  0.40888666  1
  Al  Al15  1  0.90550240  0.53210054  0.16968943  1
  Al  Al16  1  0.42375408  0.43791218  0.90059141  1
  Al  Al17  1  0.53897310  0.54703428  0.65305043  1
  Al  Al18  1  0.12596536  0.75341682  0.40213444  1
  Al  Al19  1  0.21270597  0.87729211  0.15460093  1
  Al  Al20  1  0.80052647  0.74885110  0.91791638  1
  Al  Al21  1  0.44400501  0.76111487  0.42113260  1
  Al  Al22  1  0.11431601  0.75703214  0.90862337  1
  Al  Al23  1  0.23338332  0.86765726  0.65407467  1
  Al  Al24  1  0.77155370  0.75863897  0.40309502  1
  Al  Al25  1  0.90196807  0.86208479  0.17197032  1
  Al  Al26  1  0.42532466  0.76666167  0.89735079  1
  Al  Al27  1  0.55175234  0.87139525  0.67342895  1
  Gd  Gd28  1  0.77136342  0.09084298  0.92490315  1
  Gd  Gd29  1  0.89408478  0.19741378  0.63014168  1
  Gd  Gd30  1  0.44102003  0.09581272  0.42069115  1
  Gd  Gd31  1  0.77261500  0.43289713  0.91012043  1
  Gd  Gd32  1  0.90239825  0.53810639  0.64232533  1
  Gd  Gd33  1  0.54292537  0.54287042  0.16540119  1
  Gd  Gd34  1  0.88944890  0.87486336  0.63656807  1
  Gd  Gd35  1  0.55376846  0.87655896  0.13235946  1
  N  N36  1  0.19974365  0.21695151  0.33185020  1
  N  N37  1  0.10734227  0.09434127  0.10073459  1
  N  N38  1  0.91186137  0.18852516  0.84813743  1
  N  N39  1  0.73053906  0.11560449  0.57299239  1
  N  N40  1  0.55125323  0.23273370  0.33856311  1
  N  N41  1  0.42286583  0.12904564  0.08798811  1
  N  N42  1  0.21260861  0.21042862  0.85355702  1
  N  N43  1  0.15443777  0.07516536  0.58292346  1
  N  N44  1  0.89544944  0.20434795  0.36758729  1
  N  N45  1  0.77839373  0.09365608  0.14506522  1
  N  N46  1  0.52870205  0.22705499  0.84449516  1
  N  N47  1  0.44593476  0.08894524  0.64048769  1
  N  N48  1  0.22673178  0.53779737  0.34197458  1
  N  N49  1  0.11072139  0.43031506  0.10051479  1
  N  N50  1  0.90768147  0.54429444  0.85882692  1
  N  N51  1  0.74773163  0.44618839  0.59655241  1
  N  N52  1  0.54749579  0.54456844  0.38001170  1
  N  N53  1  0.42250632  0.42390409  0.08466090  1
  N  N54  1  0.21434714  0.54278173  0.84451285  1
  N  N55  1  0.15798680  0.39973569  0.58342929  1
  N  N56  1  0.89640766  0.53743920  0.36330611  1
  N  N57  1  0.80271189  0.41643460  0.13060642  1
  N  N58  1  0.52014504  0.55484862  0.84107804  1
  N  N59  1  0.44126474  0.42767553  0.60125437  1
  N  N60  1  0.22780200  0.86995030  0.34327957  1
  N  N61  1  0.11062859  0.76171180  0.10157422  1
  N  N62  1  0.90494091  0.84886818  0.85609503  1
  N  N63  1  0.74172951  0.77874072  0.58473057  1
  N  N64  1  0.56294688  0.84593666  0.34929725  1
  N  N65  1  0.40694757  0.77599098  0.07705873  1
  N  N66  1  0.21321075  0.87744829  0.84193424  1
  N  N67  1  0.14832932  0.74217265  0.58537727  1
  N  N68  1  0.89512507  0.86549006  0.36086069  1
  N  N69  1  0.81415150  0.74197280  0.10415968  1
  N  N70  1  0.56336628  0.86644871  0.86621012  1
  N  N71  1  0.44431272  0.76566639  0.60878570  1
