# generated using pymatgen
data_Gd2Al7N9
_symmetry_space_group_name_H-M   'P 1'
_cell_length_a   9.95692235
_cell_length_b   9.84923687
_cell_length_c   10.62878640
_cell_angle_alpha   90.27564846
_cell_angle_beta   90.23898528
_cell_angle_gamma   60.44435608
_symmetry_Int_Tables_number   1
_chemical_formula_structural   Gd2Al7N9
_chemical_formula_sum   'Gd8 Al28 N36'
_cell_volume   906.69935214
_cell_formula_units_Z   4
loop_
 _symmetry_equiv_pos_site_id
 _symmetry_equiv_pos_as_xyz
  1  'x, y, z'
loop_
 _atom_site_type_symbol
 _atom_site_label
 _atom_site_symmetry_multiplicity
 _atom_site_fract_x
 _atom_site_fract_y
 _atom_site_fract_z
 _atom_site_occupancy
  Al  Al0  1  0.12731056  0.08411250  0.38581953  1
  Al  Al1  1  0.21548002  0.21344770  0.14479603  1
  Al  Al2  1  0.53953325  0.21962475  0.13810246  1
  Al  Al3  1  0.11919056  0.09202159  0.90054948  1
  Al  Al4  1  0.22551366  0.19989042  0.64753275  1
  Al  Al5  1  0.79472282  0.08889787  0.29711776  1
  Al  Al6  1  0.90383942  0.20005268  0.08385339  1
  Al  Al7  1  0.41600313  0.11761289  0.89573247  1
  Al  Al8  1  0.52728163  0.21884603  0.66064189  1
  Al  Al9  1  0.12564393  0.41784006  0.38980627  1
  Al  Al10  1  0.21230343  0.54364900  0.07345397  1
  Al  Al11  1  0.46532033  0.42287807  0.40160242  1
  Al  Al12  1  0.11177411  0.42346522  0.89457835  1
  Al  Al13  1  0.23278646  0.53462517  0.57519269  1
  Al  Al14  1  0.80447381  0.41782421  0.31311749  1
  Al  Al15  1  0.90518383  0.53412350  0.07755500  1
  Al  Al16  1  0.41509135  0.44104328  0.89060339  1
  Al  Al17  1  0.52370456  0.55424901  0.65266022  1
  Al  Al18  1  0.12311372  0.74976732  0.31845341  1
  Al  Al19  1  0.22053434  0.88102569  0.14632073  1
  Al  Al20  1  0.78566009  0.75963122  0.83921612  1
  Al  Al21  1  0.46292319  0.75070085  0.40583948  1
  Al  Al22  1  0.11560945  0.75267281  0.82142212  1
  Al  Al23  1  0.22839611  0.87700430  0.64280725  1
  Al  Al24  1  0.80273242  0.74282680  0.30827951  1
  Al  Al25  1  0.91451680  0.85283087  0.07562629  1
  Al  Al26  1  0.40866657  0.77715702  0.89035711  1
  Al  Al27  1  0.53723617  0.88170580  0.67088264  1
  Gd  Gd28  1  0.76238324  0.09514103  0.86514945  1
  Gd  Gd29  1  0.86617144  0.21649832  0.57136418  1
  Gd  Gd30  1  0.45856663  0.08717933  0.39688203  1
  Gd  Gd31  1  0.75045179  0.44542447  0.86431397  1
  Gd  Gd32  1  0.87787896  0.54352665  0.58783974  1
  Gd  Gd33  1  0.53619247  0.54621326  0.14912254  1
  Gd  Gd34  1  0.88472184  0.87363195  0.57275710  1
  Gd  Gd35  1  0.56048243  0.87249998  0.10740887  1
  N  N36  1  0.20945362  0.21189430  0.32379145  1
  N  N37  1  0.12466082  0.08939857  0.08767855  1
  N  N38  1  0.90709292  0.19936448  0.90243727  1
  N  N39  1  0.74363242  0.10634181  0.64764213  1
  N  N40  1  0.57267421  0.22258408  0.31651574  1
  N  N41  1  0.42347035  0.12715703  0.08101475  1
  N  N42  1  0.20769903  0.21102841  0.83258399  1
  N  N43  1  0.13602099  0.08198189  0.57132849  1
  N  N44  1  0.90249275  0.19614305  0.35063105  1
  N  N45  1  0.78432270  0.08658835  0.11329802  1
  N  N46  1  0.50016450  0.23685038  0.83540798  1
  N  N47  1  0.44144432  0.09003846  0.61155790  1
  N  N48  1  0.23411719  0.53815561  0.37919528  1
  N  N49  1  0.11861286  0.41720162  0.08148482  1
  N  N50  1  0.89507866  0.55248124  0.89082907  1
  N  N51  1  0.73970304  0.44631592  0.65421187  1
  N  N52  1  0.57424017  0.53123701  0.36146380  1
  N  N53  1  0.42988244  0.41860708  0.07118184  1
  N  N54  1  0.20259699  0.55019261  0.88390356  1
  N  N55  1  0.14409511  0.40317700  0.57694706  1
  N  N56  1  0.90407923  0.53205388  0.36866240  1
  N  N57  1  0.80226296  0.42027757  0.12759844  1
  N  N58  1  0.48800256  0.57188996  0.83136738  1
  N  N59  1  0.45089192  0.42027453  0.58287333  1
  N  N60  1  0.24149300  0.86516094  0.33165094  1
  N  N61  1  0.12128648  0.75406908  0.13651345  1
  N  N62  1  0.91178907  0.84197211  0.89369408  1
  N  N63  1  0.75154228  0.77881989  0.66472893  1
  N  N64  1  0.58192874  0.83625424  0.33189074  1
  N  N65  1  0.40689431  0.77697018  0.06436224  1
  N  N66  1  0.20734409  0.89207834  0.82558766  1
  N  N67  1  0.13714605  0.74150132  0.63924167  1
  N  N68  1  0.89696728  0.87173312  0.35552517  1
  N  N69  1  0.82200921  0.73846944  0.13137310  1
  N  N70  1  0.53888046  0.88318627  0.86003157  1
  N  N71  1  0.44243250  0.76695510  0.59090183  1
