# generated using pymatgen
data_Gd2Al7N9
_symmetry_space_group_name_H-M   'P 1'
_cell_length_a   9.87587984
_cell_length_b   9.83362686
_cell_length_c   10.79851896
_cell_angle_alpha   90.18633756
_cell_angle_beta   89.36824593
_cell_angle_gamma   60.13816191
_symmetry_Int_Tables_number   1
_chemical_formula_structural   Gd2Al7N9
_chemical_formula_sum   'Gd8 Al28 N36'
_cell_volume   909.36623876
_cell_formula_units_Z   4
loop_
 _symmetry_equiv_pos_site_id
 _symmetry_equiv_pos_as_xyz
  1  'x, y, z'
loop_
 _atom_site_type_symbol
 _atom_site_label
 _atom_site_symmetry_multiplicity
 _atom_site_fract_x
 _atom_site_fract_y
 _atom_site_fract_z
 _atom_site_occupancy
  Al  Al0  1  0.11595303  0.08209364  0.30689633  1
  Al  Al1  1  0.21957801  0.21048070  0.13466349  1
  Al  Al2  1  0.54004821  0.21901052  0.12835999  1
  Al  Al3  1  0.11106132  0.08754403  0.82265784  1
  Al  Al4  1  0.23413261  0.19833393  0.65794630  1
  Al  Al5  1  0.78849736  0.09239131  0.28794645  1
  Al  Al6  1  0.90875289  0.19768205  0.07207117  1
  Al  Al7  1  0.41619602  0.11696513  0.89130652  1
  Al  Al8  1  0.52998025  0.21900772  0.65154212  1
  Al  Al9  1  0.11462770  0.43661156  0.30799257  1
  Al  Al10  1  0.21096574  0.54320226  0.06214447  1
  Al  Al11  1  0.46393900  0.42372274  0.39367298  1
  Al  Al12  1  0.11365690  0.43683695  0.82282597  1
  Al  Al13  1  0.22871566  0.53545427  0.56815143  1
  Al  Al14  1  0.80146802  0.41929987  0.30242492  1
  Al  Al15  1  0.91292934  0.53223192  0.06702661  1
  Al  Al16  1  0.41842479  0.43964497  0.88251547  1
  Al  Al17  1  0.53017846  0.54904789  0.64220914  1
  Al  Al18  1  0.12108322  0.75908222  0.31275828  1
  Al  Al19  1  0.20442933  0.87822292  0.05751050  1
  Al  Al20  1  0.78610870  0.75730022  0.83102746  1
  Al  Al21  1  0.46936640  0.74758859  0.40064219  1
  Al  Al22  1  0.11745453  0.75419373  0.81713309  1
  Al  Al23  1  0.22892538  0.86987211  0.57188662  1
  Al  Al24  1  0.79821130  0.74831098  0.29857955  1
  Al  Al25  1  0.90989168  0.85520176  0.06755912  1
  Al  Al26  1  0.42020791  0.76968783  0.88117169  1
  Al  Al27  1  0.53977531  0.87899643  0.66222301  1
  Gd  Gd28  1  0.76286020  0.09646948  0.85563905  1
  Gd  Gd29  1  0.88351863  0.20521517  0.55950054  1
  Gd  Gd30  1  0.45010398  0.09343365  0.39123044  1
  Gd  Gd31  1  0.76198889  0.44093896  0.84959791  1
  Gd  Gd32  1  0.88764285  0.53841001  0.56851927  1
  Gd  Gd33  1  0.53925015  0.54048186  0.14003183  1
  Gd  Gd34  1  0.88704708  0.87151213  0.56524370  1
  Gd  Gd35  1  0.55678987  0.87263970  0.10638647  1
  N  N36  1  0.20723166  0.21317406  0.31684956  1
  N  N37  1  0.11939717  0.08178041  0.12694844  1
  N  N38  1  0.91542616  0.19431567  0.89777479  1
  N  N39  1  0.74948341  0.10595752  0.64030582  1
  N  N40  1  0.56443237  0.22712854  0.30466252  1
  N  N41  1  0.42422507  0.12705398  0.06975671  1
  N  N42  1  0.21078406  0.21026024  0.83778912  1
  N  N43  1  0.13172130  0.07679870  0.64146197  1
  N  N44  1  0.89454338  0.19995441  0.34286319  1
  N  N45  1  0.78262838  0.08803249  0.10537521  1
  N  N46  1  0.49884314  0.23660468  0.82364112  1
  N  N47  1  0.44315105  0.08981506  0.60246164  1
  N  N48  1  0.22149044  0.54232292  0.38030217  1
  N  N49  1  0.11758999  0.43263397  0.12788714  1
  N  N50  1  0.90502707  0.54941839  0.88774956  1
  N  N51  1  0.75141784  0.43814951  0.64064193  1
  N  N52  1  0.57103589  0.53311759  0.34985545  1
  N  N53  1  0.43264310  0.41601570  0.05863049  1
  N  N54  1  0.20186168  0.55240468  0.88508729  1
  N  N55  1  0.13824530  0.42186111  0.64193136  1
  N  N56  1  0.89906889  0.53619381  0.35551826  1
  N  N57  1  0.80793080  0.41766270  0.11806785  1
  N  N58  1  0.49554690  0.56622835  0.81799594  1
  N  N59  1  0.45173167  0.41920066  0.57096472  1
  N  N60  1  0.22394814  0.87191940  0.38397138  1
  N  N61  1  0.12215983  0.75628849  0.13064693  1
  N  N62  1  0.90699578  0.84358365  0.88719672  1
  N  N63  1  0.75824345  0.77044808  0.65734509  1
  N  N64  1  0.57552591  0.84206720  0.32384925  1
  N  N65  1  0.41944649  0.76632830  0.05501407  1
  N  N66  1  0.19917112  0.88080875  0.87803712  1
  N  N67  1  0.14248356  0.74455118  0.63710644  1
  N  N68  1  0.89027935  0.87656773  0.34837830  1
  N  N69  1  0.81901578  0.74002680  0.12342537  1
  N  N70  1  0.53861012  0.88169935  0.84784184  1
  N  N71  1  0.45294427  0.76132059  0.58139760  1
