# generated using pymatgen
data_Gd2Al7N9
_symmetry_space_group_name_H-M   'P 1'
_cell_length_a   9.87563576
_cell_length_b   9.83369973
_cell_length_c   10.79954092
_cell_angle_alpha   90.18581489
_cell_angle_beta   89.36460316
_cell_angle_gamma   60.13372793
_symmetry_Int_Tables_number   1
_chemical_formula_structural   Gd2Al7N9
_chemical_formula_sum   'Gd8 Al28 N36'
_cell_volume   909.39526132
_cell_formula_units_Z   4
loop_
 _symmetry_equiv_pos_site_id
 _symmetry_equiv_pos_as_xyz
  1  'x, y, z'
loop_
 _atom_site_type_symbol
 _atom_site_label
 _atom_site_symmetry_multiplicity
 _atom_site_fract_x
 _atom_site_fract_y
 _atom_site_fract_z
 _atom_site_occupancy
  Al  Al0  1  0.11592097  0.08212403  0.30816323  1
  Al  Al1  1  0.21955200  0.21051673  0.13594355  1
  Al  Al2  1  0.54002364  0.21901078  0.12962774  1
  Al  Al3  1  0.11106503  0.08755618  0.82395859  1
  Al  Al4  1  0.23414441  0.19833855  0.65926129  1
  Al  Al5  1  0.78844232  0.09245371  0.28922474  1
  Al  Al6  1  0.90873175  0.19772451  0.07335941  1
  Al  Al7  1  0.41619677  0.11694740  0.89258839  1
  Al  Al8  1  0.52998464  0.21900096  0.65282336  1
  Al  Al9  1  0.11459142  0.43666248  0.30926220  1
  Al  Al10  1  0.21093601  0.54323468  0.06340887  1
  Al  Al11  1  0.46389614  0.42375555  0.39496105  1
  Al  Al12  1  0.11364440  0.43686072  0.82412099  1
  Al  Al13  1  0.22869569  0.53547860  0.56945925  1
  Al  Al14  1  0.80142888  0.41934791  0.30371505  1
  Al  Al15  1  0.91288697  0.53228088  0.06832058  1
  Al  Al16  1  0.41842400  0.43963588  0.88378853  1
  Al  Al17  1  0.53019063  0.54903000  0.64347213  1
  Al  Al18  1  0.12102702  0.75912874  0.31404313  1
  Al  Al19  1  0.20441192  0.87822277  0.05879023  1
  Al  Al20  1  0.78608030  0.75732999  0.83231885  1
  Al  Al21  1  0.46932248  0.74761108  0.40192572  1
  Al  Al22  1  0.11741731  0.75422679  0.81842599  1
  Al  Al23  1  0.22891201  0.86988416  0.57318998  1
  Al  Al24  1  0.79815003  0.74837238  0.29985511  1
  Al  Al25  1  0.90983127  0.85526360  0.06885079  1
  Al  Al26  1  0.42020599  0.76965822  0.88244916  1
  Al  Al27  1  0.53977328  0.87898109  0.66350117  1
  Gd  Gd28  1  0.76286168  0.09651118  0.85690721  1
  Gd  Gd29  1  0.88356395  0.20518768  0.56076331  1
  Gd  Gd30  1  0.45005702  0.09347655  0.39252248  1
  Gd  Gd31  1  0.76201723  0.44095616  0.85082891  1
  Gd  Gd32  1  0.88766499  0.53840914  0.56977069  1
  Gd  Gd33  1  0.53923235  0.54044003  0.14132648  1
  Gd  Gd34  1  0.88702426  0.87152301  0.56651056  1
  Gd  Gd35  1  0.55671740  0.87263844  0.10769980  1
  N  N36  1  0.20718964  0.21321424  0.31811556  1
  N  N37  1  0.11939768  0.08178742  0.12823297  1
  N  N38  1  0.91541668  0.19435613  0.89908529  1
  N  N39  1  0.74950767  0.10596641  0.64159747  1
  N  N40  1  0.56435819  0.22718098  0.30592231  1
  N  N41  1  0.42421302  0.12704949  0.07102030  1
  N  N42  1  0.21077486  0.21027720  0.83908053  1
  N  N43  1  0.13174107  0.07680194  0.64277926  1
  N  N44  1  0.89450121  0.19999640  0.34414458  1
  N  N45  1  0.78260231  0.08808640  0.10666791  1
  N  N46  1  0.49883204  0.23659331  0.82490911  1
  N  N47  1  0.44316880  0.08980496  0.60374095  1
  N  N48  1  0.22142894  0.54237448  0.38161487  1
  N  N49  1  0.11756378  0.43267973  0.12917538  1
  N  N50  1  0.90500943  0.54945760  0.88906631  1
  N  N51  1  0.75145078  0.43813609  0.64188904  1
  N  N52  1  0.57098811  0.53314662  0.35113587  1
  N  N53  1  0.43262473  0.41600846  0.05987907  1
  N  N54  1  0.20184529  0.55243271  0.88636789  1
  N  N55  1  0.13824466  0.42187362  0.64323939  1
  N  N56  1  0.89901971  0.53625329  0.35679055  1
  N  N57  1  0.80791772  0.41769817  0.11937939  1
  N  N58  1  0.49556162  0.56619918  0.81924767  1
  N  N59  1  0.45172704  0.41919866  0.57224037  1
  N  N60  1  0.22388722  0.87196288  0.38527551  1
  N  N61  1  0.12211995  0.75631863  0.13193934  1
  N  N62  1  0.90694691  0.84362686  0.88850337  1
  N  N63  1  0.75826115  0.77043149  0.65864107  1
  N  N64  1  0.57544992  0.84211351  0.32512816  1
  N  N65  1  0.41944421  0.76626627  0.05627158  1
  N  N66  1  0.19915428  0.88081318  0.87933368  1
  N  N67  1  0.14245315  0.74458328  0.63841093  1
  N  N68  1  0.89020481  0.87663101  0.34965781  1
  N  N69  1  0.81895172  0.74009238  0.12471660  1
  N  N70  1  0.53858486  0.88168450  0.84910771  1
  N  N71  1  0.45294502  0.76131105  0.58266932  1
