# generated using pymatgen
data_Gd2Al7N9
_symmetry_space_group_name_H-M   'P 1'
_cell_length_a   9.94012048
_cell_length_b   9.83069487
_cell_length_c   10.35870329
_cell_angle_alpha   90.29186054
_cell_angle_beta   89.81380522
_cell_angle_gamma   60.26527522
_symmetry_Int_Tables_number   1
_chemical_formula_structural   Gd2Al7N9
_chemical_formula_sum   'Gd8 Al28 N36'
_cell_volume   878.92407001
_cell_formula_units_Z   4
loop_
 _symmetry_equiv_pos_site_id
 _symmetry_equiv_pos_as_xyz
  1  'x, y, z'
loop_
 _atom_site_type_symbol
 _atom_site_label
 _atom_site_symmetry_multiplicity
 _atom_site_fract_x
 _atom_site_fract_y
 _atom_site_fract_z
 _atom_site_occupancy
  Al  Al0  1  0.10606058  0.09641674  0.28979961  1
  Al  Al1  1  0.21808475  0.21014011  0.04374231  1
  Al  Al2  1  0.52690387  0.21842983  0.04619219  1
  Al  Al3  1  0.12904984  0.08431427  0.80822619  1
  Al  Al4  1  0.22585186  0.20352381  0.56186558  1
  Al  Al5  1  0.77018122  0.09967261  0.27553905  1
  Al  Al6  1  0.90277867  0.20214993  0.06006173  1
  Al  Al7  1  0.43540427  0.10168362  0.78830116  1
  Al  Al8  1  0.55551103  0.21380357  0.54884856  1
  Al  Al9  1  0.10383515  0.43100781  0.29065929  1
  Al  Al10  1  0.21640127  0.53682724  0.05116789  1
  Al  Al11  1  0.43679364  0.42952812  0.30601558  1
  Al  Al12  1  0.12687639  0.42557105  0.80721635  1
  Al  Al13  1  0.23527324  0.53317660  0.55386369  1
  Al  Al14  1  0.77868592  0.43066644  0.28082294  1
  Al  Al15  1  0.90488971  0.53614361  0.04882371  1
  Al  Al16  1  0.42796160  0.43735612  0.79246742  1
  Al  Al17  1  0.54933285  0.53962941  0.54011726  1
  Al  Al18  1  0.11098244  0.76308980  0.29233849  1
  Al  Al19  1  0.21513702  0.87777809  0.05106158  1
  Al  Al20  1  0.78701258  0.75674455  0.80071668  1
  Al  Al21  1  0.43664895  0.76260114  0.31167144  1
  Al  Al22  1  0.12734007  0.75084966  0.80782327  1
  Al  Al23  1  0.23350331  0.86653631  0.55497960  1
  Al  Al24  1  0.78216266  0.75633336  0.28631787  1
  Al  Al25  1  0.90138104  0.85902464  0.05122213  1
  Al  Al26  1  0.43605543  0.76428616  0.78520434  1
  Al  Al27  1  0.55798909  0.86501842  0.55580486  1
  Gd  Gd28  1  0.77259768  0.09402910  0.82764260  1
  Gd  Gd29  1  0.90268989  0.19469743  0.52963829  1
  Gd  Gd30  1  0.43186197  0.10106486  0.32107525  1
  Gd  Gd31  1  0.77810117  0.43036566  0.80923958  1
  Gd  Gd32  1  0.90508096  0.53048221  0.54170303  1
  Gd  Gd33  1  0.53645633  0.54195984  0.06189479  1
  Gd  Gd34  1  0.89861326  0.86754859  0.54702777  1
  Gd  Gd35  1  0.55166077  0.87387230  0.04500851  1
  N  N36  1  0.17193145  0.22981763  0.37701710  1
  N  N37  1  0.11878554  0.09331056  0.10710789  1
  N  N38  1  0.92776673  0.18705765  0.87633674  1
  N  N39  1  0.75619054  0.10835879  0.61128027  1
  N  N40  1  0.57089290  0.21938098  0.36291754  1
  N  N41  1  0.42269272  0.11834893  0.10501560  1
  N  N42  1  0.22612137  0.20384259  0.85803855  1
  N  N43  1  0.14496401  0.07563528  0.62482073  1
  N  N44  1  0.88357221  0.20587157  0.30841391  1
  N  N45  1  0.76407477  0.09765357  0.08587484  1
  N  N46  1  0.51264234  0.23008057  0.86128500  1
  N  N47  1  0.44690816  0.09510426  0.59152366  1
  N  N48  1  0.21224657  0.54279891  0.36286465  1
  N  N49  1  0.11390208  0.42444035  0.10512227  1
  N  N50  1  0.91221868  0.54690124  0.86082342  1
  N  N51  1  0.75608735  0.43518923  0.59124383  1
  N  N52  1  0.55067333  0.53897963  0.34522294  1
  N  N53  1  0.41656340  0.41715393  0.12526734  1
  N  N54  1  0.22543332  0.53936688  0.86637308  1
  N  N55  1  0.14988783  0.41172095  0.62505236  1
  N  N56  1  0.88740711  0.54030258  0.32614673  1
  N  N57  1  0.79717866  0.42464743  0.09315699  1
  N  N58  1  0.52105273  0.55685928  0.84528153  1
  N  N59  1  0.44597020  0.42875300  0.60257662  1
  N  N60  1  0.20941976  0.88087431  0.36634358  1
  N  N61  1  0.11524250  0.75973168  0.10650244  1
  N  N62  1  0.91352410  0.83983172  0.86284547  1
  N  N63  1  0.76087990  0.76764180  0.62019293  1
  N  N64  1  0.57464679  0.84126338  0.36325784  1
  N  N65  1  0.40746742  0.78488850  0.13312531  1
  N  N66  1  0.23030842  0.86902089  0.86431681  1
  N  N67  1  0.14775979  0.74323865  0.62247138  1
  N  N68  1  0.88574873  0.87804672  0.32634950  1
  N  N69  1  0.80223903  0.74817067  0.10460864  1
  N  N70  1  0.55276025  0.87503539  0.82769372  1
  N  N71  1  0.44660727  0.75714558  0.59730810  1
