# generated using pymatgen
data_Gd2Al7N9
_symmetry_space_group_name_H-M   'P 1'
_cell_length_a   10.05439495
_cell_length_b   9.86421798
_cell_length_c   10.32921092
_cell_angle_alpha   90.13487828
_cell_angle_beta   90.77389831
_cell_angle_gamma   60.74441054
_symmetry_Int_Tables_number   1
_chemical_formula_structural   Gd2Al7N9
_chemical_formula_sum   'Gd8 Al28 N36'
_cell_volume   893.67724906
_cell_formula_units_Z   4
loop_
 _symmetry_equiv_pos_site_id
 _symmetry_equiv_pos_as_xyz
  1  'x, y, z'
loop_
 _atom_site_type_symbol
 _atom_site_label
 _atom_site_symmetry_multiplicity
 _atom_site_fract_x
 _atom_site_fract_y
 _atom_site_fract_z
 _atom_site_occupancy
  Al  Al0  1  0.12679698  0.08712945  0.39912601  1
  Al  Al1  1  0.21234692  0.21500687  0.15093230  1
  Al  Al2  1  0.53272781  0.22414116  0.14995359  1
  Al  Al3  1  0.11373079  0.09195078  0.90223990  1
  Al  Al4  1  0.22891004  0.19898929  0.65887615  1
  Al  Al5  1  0.78594902  0.08810222  0.31846031  1
  Al  Al6  1  0.91063155  0.19722660  0.15138691  1
  Al  Al7  1  0.41719755  0.11682621  0.90717696  1
  Al  Al8  1  0.52537143  0.22153729  0.67221098  1
  Al  Al9  1  0.12556616  0.41901190  0.40369376  1
  Al  Al10  1  0.21718929  0.53688274  0.16036819  1
  Al  Al11  1  0.45697849  0.42614989  0.41240497  1
  Al  Al12  1  0.11867987  0.42696632  0.90278203  1
  Al  Al13  1  0.23139654  0.53258324  0.64430178  1
  Al  Al14  1  0.79434009  0.42823412  0.33365093  1
  Al  Al15  1  0.91057837  0.53391035  0.08899293  1
  Al  Al16  1  0.40716533  0.44458860  0.90463142  1
  Al  Al17  1  0.52543301  0.55323640  0.66565149  1
  Al  Al18  1  0.12935838  0.75370148  0.38533642  1
  Al  Al19  1  0.21574701  0.87870712  0.15918826  1
  Al  Al20  1  0.78350633  0.75895636  0.85421286  1
  Al  Al21  1  0.46377670  0.75076521  0.41708163  1
  Al  Al22  1  0.11612026  0.75773285  0.87373785  1
  Al  Al23  1  0.22996826  0.87189417  0.64380607  1
  Al  Al24  1  0.80135049  0.74302622  0.32490240  1
  Al  Al25  1  0.91430374  0.85289136  0.09561843  1
  Al  Al26  1  0.41173251  0.77512555  0.90158293  1
  Al  Al27  1  0.53733679  0.88083427  0.68138757  1
  Gd  Gd28  1  0.76238427  0.09894118  0.88392459  1
  Gd  Gd29  1  0.87851963  0.20933950  0.61353316  1
  Gd  Gd30  1  0.45227450  0.08857727  0.40633001  1
  Gd  Gd31  1  0.76110267  0.43357076  0.88150751  1
  Gd  Gd32  1  0.88496065  0.53985370  0.61196994  1
  Gd  Gd33  1  0.53871016  0.54537846  0.14862131  1
  Gd  Gd34  1  0.87863867  0.87697771  0.59232405  1
  Gd  Gd35  1  0.56011721  0.87276870  0.11986057  1
  N  N36  1  0.20312631  0.21553858  0.33330275  1
  N  N37  1  0.11381964  0.09297894  0.09364975  1
  N  N38  1  0.91701993  0.18909808  0.84216102  1
  N  N39  1  0.73389228  0.11077260  0.65561153  1
  N  N40  1  0.56999387  0.22250991  0.33215741  1
  N  N41  1  0.42075880  0.12666384  0.09745551  1
  N  N42  1  0.21106951  0.20985980  0.84767722  1
  N  N43  1  0.14400400  0.08056412  0.58247056  1
  N  N44  1  0.90337037  0.19610990  0.34847248  1
  N  N45  1  0.78398967  0.09088978  0.12688211  1
  N  N46  1  0.50147450  0.23800110  0.85331397  1
  N  N47  1  0.44106103  0.09071509  0.62554245  1
  N  N48  1  0.23590337  0.52819286  0.34746430  1
  N  N49  1  0.12251096  0.42389960  0.09162601  1
  N  N50  1  0.90174767  0.54760507  0.89581674  1
  N  N51  1  0.73500911  0.45136951  0.66071811  1
  N  N52  1  0.56801430  0.53376653  0.36791250  1
  N  N53  1  0.41490945  0.42630366  0.08771554  1
  N  N54  1  0.20690489  0.54510381  0.83349671  1
  N  N55  1  0.14993274  0.40347525  0.58918200  1
  N  N56  1  0.90305667  0.53290142  0.38535038  1
  N  N57  1  0.80630572  0.41993852  0.13667449  1
  N  N58  1  0.49730771  0.56519850  0.85411239  1
  N  N59  1  0.44121399  0.42740124  0.59703290  1
  N  N60  1  0.24013030  0.86860930  0.34688450  1
  N  N61  1  0.12196707  0.75615113  0.12843232  1
  N  N62  1  0.90833893  0.84391174  0.90431745  1
  N  N63  1  0.74764418  0.77767418  0.67584433  1
  N  N64  1  0.58360975  0.83605574  0.34789734  1
  N  N65  1  0.40257641  0.78356318  0.08061800  1
  N  N66  1  0.21026904  0.88125419  0.83400081  1
  N  N67  1  0.14255828  0.74597388  0.58785567  1
  N  N68  1  0.89441692  0.87226891  0.36957714  1
  N  N69  1  0.82023304  0.73800798  0.14235017  1
  N  N70  1  0.53978544  0.88193947  0.87439415  1
  N  N71  1  0.44369549  0.76604492  0.60535739  1
