# generated using pymatgen
data_Gd2Al7N9
_symmetry_space_group_name_H-M   'P 1'
_cell_length_a   9.99927624
_cell_length_b   9.83003074
_cell_length_c   10.54188282
_cell_angle_alpha   90.04434793
_cell_angle_beta   89.92355017
_cell_angle_gamma   60.29832195
_symmetry_Int_Tables_number   1
_chemical_formula_structural   Gd2Al7N9
_chemical_formula_sum   'Gd8 Al28 N36'
_cell_volume   900.05484554
_cell_formula_units_Z   4
loop_
 _symmetry_equiv_pos_site_id
 _symmetry_equiv_pos_as_xyz
  1  'x, y, z'
loop_
 _atom_site_type_symbol
 _atom_site_label
 _atom_site_symmetry_multiplicity
 _atom_site_fract_x
 _atom_site_fract_y
 _atom_site_fract_z
 _atom_site_occupancy
  Al  Al0  1  0.11636454  0.09008233  0.30333479  1
  Al  Al1  1  0.21186322  0.21272834  0.05735063  1
  Al  Al2  1  0.54043644  0.21781819  0.11833517  1
  Al  Al3  1  0.11745561  0.09182413  0.80898608  1
  Al  Al4  1  0.22131977  0.20429001  0.56465639  1
  Al  Al5  1  0.79003969  0.09252090  0.27750329  1
  Al  Al6  1  0.91151246  0.19666794  0.06208793  1
  Al  Al7  1  0.42286951  0.11142850  0.87583710  1
  Al  Al8  1  0.52559371  0.21946234  0.63478408  1
  Al  Al9  1  0.11518884  0.42658749  0.30431282  1
  Al  Al10  1  0.20929987  0.54161987  0.05509685  1
  Al  Al11  1  0.46195858  0.42541470  0.37968034  1
  Al  Al12  1  0.12174418  0.42628713  0.80878561  1
  Al  Al13  1  0.22798574  0.53606305  0.55581001  1
  Al  Al14  1  0.79734705  0.42250634  0.28906065  1
  Al  Al15  1  0.91818738  0.52957705  0.05543554  1
  Al  Al16  1  0.41515512  0.43788236  0.87201144  1
  Al  Al17  1  0.52947841  0.54882157  0.63389236  1
  Al  Al18  1  0.12178240  0.75865034  0.30231938  1
  Al  Al19  1  0.20527167  0.88132956  0.04901119  1
  Al  Al20  1  0.79217123  0.75525604  0.81725056  1
  Al  Al21  1  0.46627605  0.74787890  0.38419979  1
  Al  Al22  1  0.11761160  0.75532948  0.80560573  1
  Al  Al23  1  0.22888389  0.87056081  0.56137316  1
  Al  Al24  1  0.80060339  0.74631070  0.28635648  1
  Al  Al25  1  0.91299372  0.85558433  0.05510309  1
  Al  Al26  1  0.41867243  0.76953229  0.86872517  1
  Al  Al27  1  0.53709025  0.88204861  0.64668674  1
  Gd  Gd28  1  0.76057608  0.10022664  0.84516262  1
  Gd  Gd29  1  0.88051016  0.20785748  0.54958458  1
  Gd  Gd30  1  0.45648546  0.08698897  0.36312468  1
  Gd  Gd31  1  0.76737723  0.43900909  0.84053186  1
  Gd  Gd32  1  0.88608303  0.53970723  0.55906317  1
  Gd  Gd33  1  0.54302891  0.53671157  0.11659848  1
  Gd  Gd34  1  0.88454312  0.87476960  0.55627220  1
  Gd  Gd35  1  0.56635741  0.86462612  0.08509276  1
  N  N36  1  0.19128159  0.21997621  0.37675040  1
  N  N37  1  0.12215782  0.08862081  0.11963209  1
  N  N38  1  0.92049825  0.19004998  0.88152001  1
  N  N39  1  0.74301489  0.11124028  0.62534080  1
  N  N40  1  0.57031053  0.22557238  0.29618726  1
  N  N41  1  0.43038321  0.11977055  0.06727443  1
  N  N42  1  0.20654128  0.21285811  0.87320566  1
  N  N43  1  0.13385653  0.08246292  0.62727137  1
  N  N44  1  0.89368721  0.20188581  0.32843535  1
  N  N45  1  0.78331979  0.08920473  0.09148092  1
  N  N46  1  0.49730871  0.23541247  0.81104202  1
  N  N47  1  0.44204385  0.09024700  0.57986591  1
  N  N48  1  0.22104434  0.54034953  0.36626777  1
  N  N49  1  0.12156965  0.42117043  0.12073971  1
  N  N50  1  0.91227519  0.54615027  0.87039709  1
  N  N51  1  0.74672137  0.44193235  0.62647216  1
  N  N52  1  0.56710612  0.53443562  0.33111595  1
  N  N53  1  0.42565670  0.41525892  0.05199915  1
  N  N54  1  0.20146146  0.55116463  0.87238757  1
  N  N55  1  0.14136138  0.41488366  0.62721129  1
  N  N56  1  0.89809853  0.53525084  0.34236965  1
  N  N57  1  0.80912204  0.41860902  0.09996684  1
  N  N58  1  0.50178720  0.56008386  0.81635459  1
  N  N59  1  0.44777420  0.42428205  0.56110348  1
  N  N60  1  0.22501543  0.87225485  0.37101506  1
  N  N61  1  0.12165203  0.75811144  0.11769108  1
  N  N62  1  0.90884605  0.84639362  0.87018079  1
  N  N63  1  0.75297946  0.77413892  0.64193194  1
  N  N64  1  0.58143737  0.83409852  0.30866489  1
  N  N65  1  0.41561132  0.77109174  0.04757181  1
  N  N66  1  0.20136234  0.88206147  0.86389017  1
  N  N67  1  0.14078110  0.74595580  0.62322850  1
  N  N68  1  0.89231089  0.87551470  0.33638245  1
  N  N69  1  0.82618008  0.73704124  0.10803992  1
  N  N70  1  0.53940610  0.88160278  0.83666669  1
  N  N71  1  0.44921812  0.76195926  0.57391994  1
