# generated using pymatgen
data_Gd2Al7N9
_symmetry_space_group_name_H-M   'P 1'
_cell_length_a   9.90455517
_cell_length_b   9.83111689
_cell_length_c   10.74520301
_cell_angle_alpha   90.17888425
_cell_angle_beta   89.76784746
_cell_angle_gamma   60.30430774
_symmetry_Int_Tables_number   1
_chemical_formula_structural   Gd2Al7N9
_chemical_formula_sum   'Gd8 Al28 N36'
_cell_volume   908.85694127
_cell_formula_units_Z   4
loop_
 _symmetry_equiv_pos_site_id
 _symmetry_equiv_pos_as_xyz
  1  'x, y, z'
loop_
 _atom_site_type_symbol
 _atom_site_label
 _atom_site_symmetry_multiplicity
 _atom_site_fract_x
 _atom_site_fract_y
 _atom_site_fract_z
 _atom_site_occupancy
  Al  Al0  1  0.12638628  0.08350449  0.38785551  1
  Al  Al1  1  0.21907709  0.20636171  0.14544103  1
  Al  Al2  1  0.53961427  0.21891136  0.13832507  1
  Al  Al3  1  0.11349967  0.09737145  0.89981594  1
  Al  Al4  1  0.22620338  0.19556311  0.65681526  1
  Al  Al5  1  0.79411666  0.08835024  0.29695211  1
  Al  Al6  1  0.89798048  0.20379789  0.08264169  1
  Al  Al7  1  0.41519524  0.11688917  0.89770930  1
  Al  Al8  1  0.52384811  0.21978486  0.66157673  1
  Al  Al9  1  0.11773131  0.43217248  0.31704914  1
  Al  Al10  1  0.21100279  0.54120083  0.07064573  1
  Al  Al11  1  0.46607026  0.42093490  0.40269457  1
  Al  Al12  1  0.11518979  0.43535675  0.82749421  1
  Al  Al13  1  0.22876336  0.53348696  0.57354654  1
  Al  Al14  1  0.80477853  0.41678030  0.31126122  1
  Al  Al15  1  0.91513906  0.53110994  0.07555312  1
  Al  Al16  1  0.41708275  0.44098477  0.89260233  1
  Al  Al17  1  0.52583703  0.55169244  0.65289733  1
  Al  Al18  1  0.12500629  0.75526194  0.32163440  1
  Al  Al19  1  0.21052388  0.87766822  0.09816609  1
  Al  Al20  1  0.79051878  0.75575119  0.83965128  1
  Al  Al21  1  0.46472897  0.74768106  0.40910500  1
  Al  Al22  1  0.11790659  0.75522308  0.82377458  1
  Al  Al23  1  0.22937084  0.87170362  0.61061589  1
  Al  Al24  1  0.80072980  0.74511221  0.30671422  1
  Al  Al25  1  0.91117279  0.85451152  0.07484308  1
  Al  Al26  1  0.41376383  0.77492411  0.88640845  1
  Al  Al27  1  0.54161104  0.87907715  0.67210268  1
  Gd  Gd28  1  0.75909840  0.09669235  0.86370017  1
  Gd  Gd29  1  0.85997753  0.21788040  0.56873012  1
  Gd  Gd30  1  0.45634093  0.08772766  0.39952929  1
  Gd  Gd31  1  0.75494943  0.44918937  0.86120391  1
  Gd  Gd32  1  0.88649261  0.53800701  0.57777894  1
  Gd  Gd33  1  0.53657885  0.54472004  0.15175421  1
  Gd  Gd34  1  0.88648427  0.87199107  0.57350326  1
  Gd  Gd35  1  0.55942571  0.87182197  0.11127582  1
  N  N36  1  0.21117128  0.20648758  0.32432883  1
  N  N37  1  0.12018351  0.09342987  0.08648031  1
  N  N38  1  0.90034701  0.20373351  0.90436798  1
  N  N39  1  0.74209215  0.10412114  0.64985558  1
  N  N40  1  0.56961160  0.22306595  0.31513077  1
  N  N41  1  0.42343172  0.12694212  0.07870098  1
  N  N42  1  0.20943876  0.20625077  0.83800702  1
  N  N43  1  0.13019146  0.09032309  0.57505843  1
  N  N44  1  0.90147596  0.19565913  0.35090211  1
  N  N45  1  0.78310616  0.08690223  0.11465729  1
  N  N46  1  0.49528494  0.23880193  0.83401741  1
  N  N47  1  0.44031380  0.08943455  0.61202399  1
  N  N48  1  0.22557287  0.53731528  0.38662087  1
  N  N49  1  0.11909733  0.42959175  0.13672269  1
  N  N50  1  0.90905540  0.54731975  0.89537457  1
  N  N51  1  0.74425200  0.44687369  0.65292659  1
  N  N52  1  0.57574882  0.52884719  0.36218531  1
  N  N53  1  0.43234231  0.41735829  0.07029678  1
  N  N54  1  0.20175390  0.55238276  0.89307483  1
  N  N55  1  0.13826815  0.42061969  0.64721333  1
  N  N56  1  0.90331664  0.53260270  0.36396291  1
  N  N57  1  0.80363581  0.42167213  0.12745645  1
  N  N58  1  0.49084583  0.56905545  0.82860204  1
  N  N59  1  0.45123743  0.41885297  0.58052249  1
  N  N60  1  0.23934201  0.85821777  0.36892702  1
  N  N61  1  0.12087120  0.75490972  0.13827296  1
  N  N62  1  0.91049099  0.84368208  0.89494607  1
  N  N63  1  0.75868431  0.77017882  0.66544313  1
  N  N64  1  0.57946176  0.83677104  0.33187282  1
  N  N65  1  0.41463208  0.77025276  0.06070389  1
  N  N66  1  0.20306199  0.88924071  0.84904172  1
  N  N67  1  0.14036839  0.74131511  0.64253644  1
  N  N68  1  0.89454528  0.87267032  0.35668931  1
  N  N69  1  0.82074161  0.73905178  0.13059208  1
  N  N70  1  0.54240779  0.88074497  0.85851839  1
  N  N71  1  0.44930344  0.76409554  0.59335580  1
