# generated using pymatgen
data_Gd2Al7N9
_symmetry_space_group_name_H-M   'P 1'
_cell_length_a   10.09868594
_cell_length_b   9.86462946
_cell_length_c   10.25626269
_cell_angle_alpha   89.97415798
_cell_angle_beta   90.76885093
_cell_angle_gamma   60.74691652
_symmetry_Int_Tables_number   1
_chemical_formula_structural   Gd2Al7N9
_chemical_formula_sum   'Gd8 Al28 N36'
_cell_volume   891.31665130
_cell_formula_units_Z   4
loop_
 _symmetry_equiv_pos_site_id
 _symmetry_equiv_pos_as_xyz
  1  'x, y, z'
loop_
 _atom_site_type_symbol
 _atom_site_label
 _atom_site_symmetry_multiplicity
 _atom_site_fract_x
 _atom_site_fract_y
 _atom_site_fract_z
 _atom_site_occupancy
  Al  Al0  1  0.12698802  0.08616391  0.39895299  1
  Al  Al1  1  0.21243414  0.21473394  0.15056384  1
  Al  Al2  1  0.53020837  0.22488620  0.15138539  1
  Al  Al3  1  0.11426365  0.09078295  0.90140264  1
  Al  Al4  1  0.22852076  0.19938917  0.65794612  1
  Al  Al5  1  0.78453861  0.09281490  0.32510398  1
  Al  Al6  1  0.91210734  0.19820296  0.15322776  1
  Al  Al7  1  0.41707877  0.11618426  0.90544164  1
  Al  Al8  1  0.52498380  0.22151059  0.67099142  1
  Al  Al9  1  0.12528027  0.42080177  0.40326001  1
  Al  Al10  1  0.21696408  0.53798041  0.15579785  1
  Al  Al11  1  0.45528638  0.42815149  0.41238972  1
  Al  Al12  1  0.11882979  0.42775206  0.90155108  1
  Al  Al13  1  0.23088545  0.53491632  0.64929604  1
  Al  Al14  1  0.79370231  0.42952741  0.33538784  1
  Al  Al15  1  0.91146523  0.53476925  0.08822861  1
  Al  Al16  1  0.40803535  0.44320114  0.90361948  1
  Al  Al17  1  0.52593032  0.55236245  0.66531933  1
  Al  Al18  1  0.13495386  0.75150343  0.39989055  1
  Al  Al19  1  0.21631451  0.87763153  0.15492025  1
  Al  Al20  1  0.78118703  0.76015614  0.84926832  1
  Al  Al21  1  0.46302343  0.75026140  0.41618070  1
  Al  Al22  1  0.11400901  0.75782180  0.90218514  1
  Al  Al23  1  0.22890747  0.87040495  0.64872417  1
  Al  Al24  1  0.80033179  0.74170766  0.32920022  1
  Al  Al25  1  0.91216050  0.85965468  0.12602913  1
  Al  Al26  1  0.41184199  0.77420301  0.90089084  1
  Al  Al27  1  0.53430059  0.88076464  0.67850333  1
  Gd  Gd28  1  0.76342447  0.09784660  0.88754762  1
  Gd  Gd29  1  0.87957463  0.20797214  0.61403239  1
  Gd  Gd30  1  0.45159217  0.08834848  0.40541348  1
  Gd  Gd31  1  0.76220187  0.43235692  0.88173543  1
  Gd  Gd32  1  0.88692795  0.53684576  0.61446269  1
  Gd  Gd33  1  0.54117233  0.54309223  0.14655512  1
  Gd  Gd34  1  0.88203359  0.87438093  0.60546605  1
  Gd  Gd35  1  0.56265435  0.87108145  0.11792624  1
  N  N36  1  0.20261812  0.21609287  0.33403858  1
  N  N37  1  0.11387280  0.09313318  0.09432637  1
  N  N38  1  0.91756066  0.18825852  0.84249756  1
  N  N39  1  0.73152263  0.11230376  0.65016080  1
  N  N40  1  0.56898799  0.22369832  0.33385545  1
  N  N41  1  0.42104924  0.12535085  0.09855242  1
  N  N42  1  0.21081339  0.20997410  0.84779724  1
  N  N43  1  0.14496960  0.07865494  0.58313730  1
  N  N44  1  0.90297093  0.19823454  0.35087033  1
  N  N45  1  0.78605054  0.09131202  0.13100658  1
  N  N46  1  0.50250933  0.23627980  0.85315701  1
  N  N47  1  0.43914327  0.09162297  0.62502518  1
  N  N48  1  0.23305880  0.53363236  0.34344193  1
  N  N49  1  0.12233270  0.42405208  0.09147328  1
  N  N50  1  0.90141961  0.54839814  0.89399953  1
  N  N51  1  0.73462356  0.45025705  0.65899079  1
  N  N52  1  0.56756232  0.53392263  0.36736748  1
  N  N53  1  0.41510319  0.42598400  0.08813572  1
  N  N54  1  0.20690275  0.54747904  0.83809972  1
  N  N55  1  0.15121099  0.40524578  0.58979066  1
  N  N56  1  0.90350797  0.53190004  0.38689090  1
  N  N57  1  0.80765485  0.42049517  0.13691967  1
  N  N58  1  0.49976633  0.56318491  0.85545696  1
  N  N59  1  0.43906008  0.42909624  0.59779330  1
  N  N60  1  0.23663495  0.86708987  0.34296325  1
  N  N61  1  0.12236555  0.75664226  0.09725568  1
  N  N62  1  0.90411415  0.84776039  0.87915080  1
  N  N63  1  0.74231552  0.77615980  0.66816090  1
  N  N64  1  0.58338449  0.83555125  0.34816205  1
  N  N65  1  0.40491060  0.78238150  0.08190577  1
  N  N66  1  0.20969204  0.87916857  0.83819085  1
  N  N67  1  0.14642503  0.74426098  0.58536460  1
  N  N68  1  0.90167793  0.86988579  0.36259410  1
  N  N69  1  0.82191497  0.73751570  0.14485830  1
  N  N70  1  0.53950616  0.88105454  0.87276042  1
  N  N71  1  0.44081282  0.76596949  0.60524837  1
