# generated using pymatgen
data_Gd2Al7N9
_symmetry_space_group_name_H-M   'P 1'
_cell_length_a   9.88967486
_cell_length_b   9.82188110
_cell_length_c   10.81360773
_cell_angle_alpha   90.06419777
_cell_angle_beta   89.55710737
_cell_angle_gamma   60.19453118
_symmetry_Int_Tables_number   1
_chemical_formula_structural   Gd2Al7N9
_chemical_formula_sum   'Gd8 Al28 N36'
_cell_volume   911.39330188
_cell_formula_units_Z   4
loop_
 _symmetry_equiv_pos_site_id
 _symmetry_equiv_pos_as_xyz
  1  'x, y, z'
loop_
 _atom_site_type_symbol
 _atom_site_label
 _atom_site_symmetry_multiplicity
 _atom_site_fract_x
 _atom_site_fract_y
 _atom_site_fract_z
 _atom_site_occupancy
  Al  Al0  1  0.12322803  0.08758433  0.38085769  1
  Al  Al1  1  0.21941136  0.20654302  0.14445498  1
  Al  Al2  1  0.53950758  0.21781330  0.13706668  1
  Al  Al3  1  0.11158355  0.10157975  0.90574809  1
  Al  Al4  1  0.22529266  0.19501843  0.65780871  1
  Al  Al5  1  0.79224374  0.08794578  0.29589340  1
  Al  Al6  1  0.89820206  0.20412260  0.08691674  1
  Al  Al7  1  0.41656507  0.11555566  0.89726374  1
  Al  Al8  1  0.52524734  0.21915337  0.66184469  1
  Al  Al9  1  0.11774154  0.43304541  0.31602780  1
  Al  Al10  1  0.21077476  0.54137468  0.06983327  1
  Al  Al11  1  0.46520605  0.42115754  0.40346150  1
  Al  Al12  1  0.11438266  0.43596044  0.82835172  1
  Al  Al13  1  0.22908292  0.53487792  0.57603579  1
  Al  Al14  1  0.80450530  0.41834716  0.31008849  1
  Al  Al15  1  0.91390863  0.53199041  0.07576346  1
  Al  Al16  1  0.41727624  0.44051859  0.89182619  1
  Al  Al17  1  0.52572147  0.55281672  0.65254428  1
  Al  Al18  1  0.12438424  0.75562643  0.31989570  1
  Al  Al19  1  0.20745172  0.87353948  0.06937320  1
  Al  Al20  1  0.78888608  0.75643204  0.83942210  1
  Al  Al21  1  0.47373306  0.74325180  0.40964039  1
  Al  Al22  1  0.11850270  0.75613783  0.82486211  1
  Al  Al23  1  0.22996024  0.86805107  0.57220515  1
  Al  Al24  1  0.80177198  0.74551476  0.30727207  1
  Al  Al25  1  0.91051174  0.85470432  0.07478883  1
  Al  Al26  1  0.41752885  0.77242199  0.88952431  1
  Al  Al27  1  0.54102786  0.87857322  0.67141951  1
  Gd  Gd28  1  0.76148316  0.09746989  0.86252309  1
  Gd  Gd29  1  0.85930000  0.21887243  0.56413240  1
  Gd  Gd30  1  0.45462339  0.08945182  0.40188566  1
  Gd  Gd31  1  0.75466554  0.44964704  0.86036442  1
  Gd  Gd32  1  0.88772799  0.53735301  0.57777075  1
  Gd  Gd33  1  0.53601033  0.54158710  0.15302060  1
  Gd  Gd34  1  0.88823918  0.87116749  0.57441484  1
  Gd  Gd35  1  0.55820578  0.87209168  0.11544795  1
  N  N36  1  0.21228394  0.20691801  0.32229669  1
  N  N37  1  0.12086902  0.09319869  0.09121470  1
  N  N38  1  0.89916043  0.20631243  0.90952093  1
  N  N39  1  0.74443915  0.10392505  0.64955292  1
  N  N40  1  0.56711471  0.22416475  0.31421001  1
  N  N41  1  0.42357430  0.12660652  0.07647175  1
  N  N42  1  0.20953367  0.20508173  0.83833223  1
  N  N43  1  0.12854521  0.09352408  0.57278815  1
  N  N44  1  0.90040715  0.19586595  0.34629257  1
  N  N45  1  0.78194057  0.08653017  0.11536348  1
  N  N46  1  0.49701125  0.23771360  0.83325411  1
  N  N47  1  0.44039401  0.08996836  0.61308296  1
  N  N48  1  0.22466963  0.53819681  0.38809529  1
  N  N49  1  0.11852632  0.43061530  0.13678653  1
  N  N50  1  0.90783157  0.54809897  0.89669334  1
  N  N51  1  0.74566552  0.44555849  0.65304966  1
  N  N52  1  0.57719563  0.52731496  0.36258344  1
  N  N53  1  0.43257137  0.41594009  0.06782722  1
  N  N54  1  0.20129796  0.55236044  0.89294486  1
  N  N55  1  0.13843844  0.42175138  0.64949622  1
  N  N56  1  0.90332324  0.53272156  0.36469092  1
  N  N57  1  0.80285672  0.42336377  0.12892985  1
  N  N58  1  0.48941985  0.57028160  0.82657752  1
  N  N59  1  0.45207523  0.41872782  0.58037442  1
  N  N60  1  0.23583950  0.85670702  0.38612239  1
  N  N61  1  0.12227994  0.75503469  0.13882651  1
  N  N62  1  0.90850704  0.84398280  0.89532061  1
  N  N63  1  0.75941275  0.76977934  0.66593446  1
  N  N64  1  0.57989455  0.83847806  0.33335478  1
  N  N65  1  0.42085564  0.76550275  0.06377546  1
  N  N66  1  0.19742486  0.88406586  0.88536063  1
  N  N67  1  0.14403350  0.74573665  0.64426526  1
  N  N68  1  0.89423968  0.87316799  0.35775971  1
  N  N69  1  0.82045915  0.73957936  0.13213739  1
  N  N70  1  0.54022790  0.88025275  0.85659124  1
  N  N71  1  0.45167679  0.76363752  0.59058597  1
