# generated using pymatgen
data_Gd2Al7N9
_symmetry_space_group_name_H-M   'P 1'
_cell_length_a   10.05114625
_cell_length_b   9.86903912
_cell_length_c   10.33872357
_cell_angle_alpha   90.13995457
_cell_angle_beta   90.75594937
_cell_angle_gamma   60.74599691
_symmetry_Int_Tables_number   1
_chemical_formula_structural   Gd2Al7N9
_chemical_formula_sum   'Gd8 Al28 N36'
_cell_volume   894.66709160
_cell_formula_units_Z   4
loop_
 _symmetry_equiv_pos_site_id
 _symmetry_equiv_pos_as_xyz
  1  'x, y, z'
loop_
 _atom_site_type_symbol
 _atom_site_label
 _atom_site_symmetry_multiplicity
 _atom_site_fract_x
 _atom_site_fract_y
 _atom_site_fract_z
 _atom_site_occupancy
  Al  Al0  1  0.12686131  0.08728350  0.39957588  1
  Al  Al1  1  0.21235803  0.21500881  0.15117761  1
  Al  Al2  1  0.53292365  0.22399251  0.14986349  1
  Al  Al3  1  0.11388713  0.09208136  0.90243141  1
  Al  Al4  1  0.22891790  0.19898715  0.65918000  1
  Al  Al5  1  0.78546077  0.08856552  0.31810904  1
  Al  Al6  1  0.91043512  0.19735358  0.15137978  1
  Al  Al7  1  0.41733798  0.11685357  0.90718576  1
  Al  Al8  1  0.52578157  0.22128727  0.67247108  1
  Al  Al9  1  0.12561832  0.41879068  0.40413498  1
  Al  Al10  1  0.21803214  0.53478308  0.16100315  1
  Al  Al11  1  0.45678349  0.42622347  0.41263575  1
  Al  Al12  1  0.11881302  0.42672739  0.90317739  1
  Al  Al13  1  0.23218057  0.53035863  0.64513822  1
  Al  Al14  1  0.79436178  0.42821569  0.33373646  1
  Al  Al15  1  0.91035689  0.53399304  0.08889740  1
  Al  Al16  1  0.40716826  0.44451827  0.90491665  1
  Al  Al17  1  0.52513182  0.55343990  0.66586138  1
  Al  Al18  1  0.12431785  0.75615369  0.36139383  1
  Al  Al19  1  0.21639435  0.88012447  0.15962844  1
  Al  Al20  1  0.78463794  0.75873525  0.85452128  1
  Al  Al21  1  0.46352140  0.75093087  0.41721429  1
  Al  Al22  1  0.11365661  0.75910628  0.84766380  1
  Al  Al23  1  0.23073470  0.87322067  0.64448695  1
  Al  Al24  1  0.80080480  0.74299853  0.32449630  1
  Al  Al25  1  0.91646977  0.85153336  0.09493008  1
  Al  Al26  1  0.41155572  0.77510492  0.90193416  1
  Al  Al27  1  0.53769982  0.88075550  0.68171403  1
  Gd  Gd28  1  0.76329505  0.09783837  0.88376327  1
  Gd  Gd29  1  0.87851771  0.20933744  0.61379677  1
  Gd  Gd30  1  0.45224803  0.08854267  0.40647181  1
  Gd  Gd31  1  0.76092190  0.43362973  0.88136132  1
  Gd  Gd32  1  0.88481637  0.54005508  0.61206772  1
  Gd  Gd33  1  0.53885646  0.54528510  0.14881991  1
  Gd  Gd34  1  0.87858054  0.87690529  0.59009191  1
  Gd  Gd35  1  0.56010264  0.87282006  0.11962933  1
  N  N36  1  0.20308542  0.21557625  0.33335951  1
  N  N37  1  0.11373533  0.09314753  0.09378452  1
  N  N38  1  0.91695581  0.18914058  0.84236078  1
  N  N39  1  0.73433275  0.11036204  0.65577245  1
  N  N40  1  0.56981062  0.22260721  0.33203148  1
  N  N41  1  0.42075194  0.12668576  0.09748664  1
  N  N42  1  0.21110836  0.20996642  0.84788151  1
  N  N43  1  0.14385085  0.08104368  0.58258021  1
  N  N44  1  0.90335350  0.19602445  0.34843039  1
  N  N45  1  0.78407507  0.09085789  0.12666969  1
  N  N46  1  0.50219294  0.23766311  0.85360692  1
  N  N47  1  0.44121271  0.09062973  0.62569358  1
  N  N48  1  0.23656233  0.52673701  0.34880017  1
  N  N49  1  0.12232738  0.42383938  0.09192011  1
  N  N50  1  0.90178516  0.54746836  0.89604777  1
  N  N51  1  0.73490602  0.45144518  0.66081451  1
  N  N52  1  0.56786334  0.53384655  0.36784776  1
  N  N53  1  0.41483606  0.42642119  0.08793533  1
  N  N54  1  0.20814023  0.54225459  0.83447881  1
  N  N55  1  0.14973330  0.40302367  0.58922651  1
  N  N56  1  0.90295554  0.53312280  0.38538230  1
  N  N57  1  0.80634153  0.41993636  0.13681235  1
  N  N58  1  0.49710711  0.56534395  0.85415185  1
  N  N59  1  0.44138000  0.42726700  0.59699245  1
  N  N60  1  0.24098272  0.86939605  0.34815521  1
  N  N61  1  0.11927378  0.75765220  0.14870620  1
  N  N62  1  0.91252789  0.84188617  0.90513278  1
  N  N63  1  0.74815651  0.77778095  0.67638454  1
  N  N64  1  0.58348150  0.83610388  0.34767893  1
  N  N65  1  0.40227143  0.78331262  0.08079347  1
  N  N66  1  0.21152544  0.88306664  0.83477783  1
  N  N67  1  0.13894557  0.74762185  0.60749820  1
  N  N68  1  0.89298856  0.87293976  0.36921708  1
  N  N69  1  0.82034382  0.73818537  0.14191860  1
  N  N70  1  0.54012187  0.88195051  0.87471074  1
  N  N71  1  0.44395497  0.76598024  0.60519248  1
