# generated using pymatgen
data_Gd2Al7N9
_symmetry_space_group_name_H-M   'P 1'
_cell_length_a   9.97927534
_cell_length_b   9.86479472
_cell_length_c   10.29680611
_cell_angle_alpha   90.05299881
_cell_angle_beta   89.88491862
_cell_angle_gamma   60.51699718
_symmetry_Int_Tables_number   1
_chemical_formula_structural   Gd2Al7N9
_chemical_formula_sum   'Gd8 Al28 N36'
_cell_volume   882.38336124
_cell_formula_units_Z   4
loop_
 _symmetry_equiv_pos_site_id
 _symmetry_equiv_pos_as_xyz
  1  'x, y, z'
loop_
 _atom_site_type_symbol
 _atom_site_label
 _atom_site_symmetry_multiplicity
 _atom_site_fract_x
 _atom_site_fract_y
 _atom_site_fract_z
 _atom_site_occupancy
  Al  Al0  1  0.12249732  0.08961755  0.39704134  1
  Al  Al1  1  0.21484255  0.21242903  0.14520055  1
  Al  Al2  1  0.53387914  0.22342020  0.15461617  1
  Al  Al3  1  0.11366847  0.09100435  0.90689604  1
  Al  Al4  1  0.23033506  0.19975161  0.66102518  1
  Al  Al5  1  0.76621991  0.10766845  0.38100334  1
  Al  Al6  1  0.90188281  0.20207429  0.17302579  1
  Al  Al7  1  0.42689101  0.11453905  0.89364745  1
  Al  Al8  1  0.53798968  0.21754726  0.65811590  1
  Al  Al9  1  0.12706412  0.41903622  0.39806860  1
  Al  Al10  1  0.21595331  0.53982697  0.14952050  1
  Al  Al11  1  0.43954703  0.43401974  0.41377666  1
  Al  Al12  1  0.11122373  0.43393134  0.90749826  1
  Al  Al13  1  0.23414538  0.53327194  0.65172905  1
  Al  Al14  1  0.76872004  0.43219506  0.40611506  1
  Al  Al15  1  0.91224273  0.52286502  0.17115495  1
  Al  Al16  1  0.42198364  0.43862505  0.89685238  1
  Al  Al17  1  0.53686882  0.54738813  0.64946680  1
  Al  Al18  1  0.13188274  0.75241263  0.39991906  1
  Al  Al19  1  0.21536073  0.87684677  0.15061652  1
  Al  Al20  1  0.78282022  0.75939962  0.85276312  1
  Al  Al21  1  0.44591050  0.76110223  0.41643632  1
  Al  Al22  1  0.11050158  0.75854926  0.90317811  1
  Al  Al23  1  0.23171004  0.86790379  0.65023613  1
  Al  Al24  1  0.78330202  0.75238328  0.35609846  1
  Al  Al25  1  0.90849161  0.86408409  0.17356308  1
  Al  Al26  1  0.42135722  0.76576682  0.89451986  1
  Al  Al27  1  0.54151407  0.87578484  0.66715754  1
  Gd  Gd28  1  0.77020592  0.09125617  0.92062527  1
  Gd  Gd29  1  0.89212397  0.19559584  0.62845432  1
  Gd  Gd30  1  0.44509236  0.09376157  0.41401734  1
  Gd  Gd31  1  0.77249826  0.43572313  0.90490720  1
  Gd  Gd32  1  0.90225627  0.53256311  0.62543393  1
  Gd  Gd33  1  0.54431405  0.54052044  0.16071265  1
  Gd  Gd34  1  0.88899510  0.87557739  0.61785684  1
  Gd  Gd35  1  0.56295199  0.87115813  0.12124001  1
  N  N36  1  0.20264797  0.21497789  0.32839491  1
  N  N37  1  0.10912350  0.09375148  0.09748418  1
  N  N38  1  0.91035294  0.19033610  0.84748074  1
  N  N39  1  0.72604089  0.11913261  0.56849909  1
  N  N40  1  0.55209121  0.23437810  0.33394322  1
  N  N41  1  0.42550140  0.12630045  0.08564216  1
  N  N42  1  0.21056155  0.21221983  0.84998584  1
  N  N43  1  0.15149786  0.07656713  0.58065386  1
  N  N44  1  0.89633839  0.20418945  0.36374355  1
  N  N45  1  0.78071118  0.09266732  0.14229670  1
  N  N46  1  0.52673012  0.22758304  0.84111022  1
  N  N47  1  0.44238534  0.09090098  0.63468384  1
  N  N48  1  0.22701213  0.53795280  0.33781284  1
  N  N49  1  0.11184043  0.42848388  0.09544517  1
  N  N50  1  0.90567843  0.54726846  0.84949684  1
  N  N51  1  0.74420824  0.44287570  0.59409347  1
  N  N52  1  0.54732578  0.54456650  0.37587331  1
  N  N53  1  0.42126893  0.42412680  0.08108378  1
  N  N54  1  0.21289419  0.54417018  0.84167035  1
  N  N55  1  0.16196051  0.39920671  0.58056755  1
  N  N56  1  0.90186519  0.52687959  0.36856315  1
  N  N57  1  0.80429510  0.41574310  0.12701609  1
  N  N58  1  0.51902993  0.55499509  0.83863824  1
  N  N59  1  0.44037690  0.42830229  0.59827743  1
  N  N60  1  0.23016995  0.86996754  0.33967238  1
  N  N61  1  0.11127169  0.76299240  0.09645051  1
  N  N62  1  0.90261764  0.85251570  0.84712659  1
  N  N63  1  0.74120223  0.77721999  0.61152799  1
  N  N64  1  0.56561543  0.84460828  0.34700541  1
  N  N65  1  0.40968600  0.77467890  0.07491452  1
  N  N66  1  0.21126921  0.87846389  0.83893003  1
  N  N67  1  0.15228501  0.73992587  0.58283867  1
  N  N68  1  0.90220621  0.86996875  0.36523095  1
  N  N69  1  0.81878985  0.73885701  0.15664858  1
  N  N70  1  0.55615766  0.87019323  0.86208815  1
  N  N71  1  0.44134244  0.76609341  0.60447273  1
