# generated using pymatgen
data_Gd2Al7N9
_symmetry_space_group_name_H-M   'P 1'
_cell_length_a   10.06211047
_cell_length_b   9.84810232
_cell_length_c   10.37049331
_cell_angle_alpha   90.04524968
_cell_angle_beta   90.11947351
_cell_angle_gamma   60.45329341
_symmetry_Int_Tables_number   1
_chemical_formula_structural   Gd2Al7N9
_chemical_formula_sum   'Gd8 Al28 N36'
_cell_volume   893.99764254
_cell_formula_units_Z   4
loop_
 _symmetry_equiv_pos_site_id
 _symmetry_equiv_pos_as_xyz
  1  'x, y, z'
loop_
 _atom_site_type_symbol
 _atom_site_label
 _atom_site_symmetry_multiplicity
 _atom_site_fract_x
 _atom_site_fract_y
 _atom_site_fract_z
 _atom_site_occupancy
  Al  Al0  1  0.11239777  0.09478206  0.30223728  1
  Al  Al1  1  0.22091730  0.21004360  0.05982648  1
  Al  Al2  1  0.53836573  0.21632002  0.13224659  1
  Al  Al3  1  0.12259298  0.08653467  0.81600719  1
  Al  Al4  1  0.22010020  0.20442217  0.56788084  1
  Al  Al5  1  0.79130700  0.09036752  0.28208470  1
  Al  Al6  1  0.91039367  0.20043933  0.06290882  1
  Al  Al7  1  0.41642434  0.10994919  0.80370800  1
  Al  Al8  1  0.53460443  0.22834338  0.62810653  1
  Al  Al9  1  0.11016237  0.42690051  0.30132954  1
  Al  Al10  1  0.20620655  0.54348951  0.06505147  1
  Al  Al11  1  0.44822280  0.42630439  0.35918981  1
  Al  Al12  1  0.12338794  0.42588324  0.81460437  1
  Al  Al13  1  0.23264861  0.53504080  0.55654328  1
  Al  Al14  1  0.79219736  0.42472658  0.29098698  1
  Al  Al15  1  0.91091425  0.53082023  0.05665835  1
  Al  Al16  1  0.41554524  0.43928396  0.87480745  1
  Al  Al17  1  0.55204113  0.54565963  0.54278939  1
  Al  Al18  1  0.11534440  0.76070928  0.30272469  1
  Al  Al19  1  0.21132787  0.87822424  0.05888876  1
  Al  Al20  1  0.79676293  0.75131114  0.81713148  1
  Al  Al21  1  0.44006213  0.76608178  0.30953568  1
  Al  Al22  1  0.12064133  0.75385255  0.81238156  1
  Al  Al23  1  0.23442251  0.86560714  0.56226385  1
  Al  Al24  1  0.79169013  0.75096753  0.28569487  1
  Al  Al25  1  0.90758813  0.85656869  0.05792108  1
  Al  Al26  1  0.42225649  0.75902680  0.80543993  1
  Al  Al27  1  0.54971395  0.86990612  0.63467688  1
  Gd  Gd28  1  0.75931121  0.10063893  0.85106059  1
  Gd  Gd29  1  0.89376945  0.19756491  0.54967896  1
  Gd  Gd30  1  0.45041739  0.08837929  0.35551498  1
  Gd  Gd31  1  0.76692249  0.43754103  0.82139479  1
  Gd  Gd32  1  0.90173916  0.53432180  0.55315809  1
  Gd  Gd33  1  0.54639274  0.53910046  0.09031566  1
  Gd  Gd34  1  0.88924970  0.87344702  0.55996656  1
  Gd  Gd35  1  0.55170091  0.87734931  0.06661986  1
  N  N36  1  0.18274539  0.22465254  0.38354469  1
  N  N37  1  0.11851706  0.09292377  0.11685935  1
  N  N38  1  0.92143113  0.19064308  0.87751203  1
  N  N39  1  0.74708350  0.11116595  0.62573684  1
  N  N40  1  0.57968933  0.21638595  0.31120668  1
  N  N41  1  0.42125683  0.12041253  0.12256452  1
  N  N42  1  0.21797240  0.20673635  0.87243468  1
  N  N43  1  0.14187418  0.07573928  0.63250458  1
  N  N44  1  0.89334305  0.20183177  0.32872171  1
  N  N45  1  0.77951289  0.09118252  0.09264086  1
  N  N46  1  0.49984804  0.24091030  0.81047881  1
  N  N47  1  0.43827304  0.09288968  0.60403826  1
  N  N48  1  0.21333786  0.54226256  0.36402692  1
  N  N49  1  0.11461377  0.42316755  0.11693043  1
  N  N50  1  0.91271017  0.54190620  0.86834379  1
  N  N51  1  0.75199842  0.44116482  0.60351364  1
  N  N52  1  0.56007080  0.54186963  0.34670101  1
  N  N53  1  0.41522014  0.42121372  0.08964799  1
  N  N54  1  0.20593267  0.54884114  0.87912937  1
  N  N55  1  0.14968314  0.41219392  0.63178879  1
  N  N56  1  0.89528276  0.53765255  0.33735780  1
  N  N57  1  0.80845892  0.41721195  0.10336894  1
  N  N58  1  0.51492658  0.55570295  0.86789933  1
  N  N59  1  0.44828212  0.42637743  0.54948788  1
  N  N60  1  0.22042205  0.87568727  0.37363381  1
  N  N61  1  0.11349727  0.76227635  0.11729148  1
  N  N62  1  0.91132138  0.84553705  0.86832503  1
  N  N63  1  0.76019526  0.76707450  0.63780193  1
  N  N64  1  0.58301178  0.83721248  0.32190006  1
  N  N65  1  0.40176524  0.78592795  0.13154622  1
  N  N66  1  0.21931347  0.87170821  0.87206360  1
  N  N67  1  0.14423386  0.74357265  0.62693326  1
  N  N68  1  0.89302561  0.87328606  0.33735319  1
  N  N69  1  0.81178327  0.74332465  0.10361462  1
  N  N70  1  0.54130363  0.87908682  0.83131505  1
  N  N71  1  0.44407384  0.75500739  0.61556701  1
