# generated using pymatgen
data_Gd2Al7N9
_symmetry_space_group_name_H-M   'P 1'
_cell_length_a   9.89792075
_cell_length_b   9.83597454
_cell_length_c   10.74958771
_cell_angle_alpha   90.21794404
_cell_angle_beta   89.18942995
_cell_angle_gamma   60.18516071
_symmetry_Int_Tables_number   1
_chemical_formula_structural   Gd2Al7N9
_chemical_formula_sum   'Gd8 Al28 N36'
_cell_volume   907.84926079
_cell_formula_units_Z   4
loop_
 _symmetry_equiv_pos_site_id
 _symmetry_equiv_pos_as_xyz
  1  'x, y, z'
loop_
 _atom_site_type_symbol
 _atom_site_label
 _atom_site_symmetry_multiplicity
 _atom_site_fract_x
 _atom_site_fract_y
 _atom_site_fract_z
 _atom_site_occupancy
  Al  Al0  1  0.11582641  0.08487194  0.29394997  1
  Al  Al1  1  0.21756458  0.21132669  0.10845076  1
  Al  Al2  1  0.53929298  0.21928919  0.11701483  1
  Al  Al3  1  0.11233219  0.08685293  0.81419622  1
  Al  Al4  1  0.23619861  0.19725419  0.64971798  1
  Al  Al5  1  0.78686518  0.09271051  0.27701432  1
  Al  Al6  1  0.90658670  0.19876770  0.06171601  1
  Al  Al7  1  0.42197082  0.11320323  0.87727590  1
  Al  Al8  1  0.53259346  0.21851281  0.63926293  1
  Al  Al9  1  0.11426256  0.43355741  0.29505728  1
  Al  Al10  1  0.21012071  0.54426089  0.05153430  1
  Al  Al11  1  0.46236737  0.42407896  0.38125537  1
  Al  Al12  1  0.11464997  0.43664583  0.81435562  1
  Al  Al13  1  0.22952544  0.53429896  0.55772239  1
  Al  Al14  1  0.79908500  0.42056538  0.29103341  1
  Al  Al15  1  0.91059391  0.53360421  0.05573123  1
  Al  Al16  1  0.41894679  0.43946915  0.87147263  1
  Al  Al17  1  0.53195770  0.54764444  0.62940637  1
  Al  Al18  1  0.12000177  0.75957042  0.30222353  1
  Al  Al19  1  0.20390871  0.87814281  0.04657792  1
  Al  Al20  1  0.78689829  0.75646660  0.81889551  1
  Al  Al21  1  0.46794810  0.74835081  0.38886610  1
  Al  Al22  1  0.11780503  0.75392122  0.80583138  1
  Al  Al23  1  0.22955618  0.86981059  0.56177817  1
  Al  Al24  1  0.79693673  0.74910572  0.28817213  1
  Al  Al25  1  0.90894135  0.85575050  0.05619638  1
  Al  Al26  1  0.42092428  0.76906873  0.86986798  1
  Al  Al27  1  0.54202568  0.87635273  0.64960882  1
  Gd  Gd28  1  0.76454109  0.09624177  0.84389969  1
  Gd  Gd29  1  0.88868291  0.20249507  0.54682847  1
  Gd  Gd30  1  0.44670111  0.09532843  0.38094804  1
  Gd  Gd31  1  0.76348208  0.44017425  0.83627352  1
  Gd  Gd32  1  0.89281934  0.53498493  0.55645504  1
  Gd  Gd33  1  0.53877536  0.54099576  0.12716434  1
  Gd  Gd34  1  0.88821164  0.87064041  0.55391706  1
  Gd  Gd35  1  0.55601953  0.87320163  0.09665372  1
  N  N36  1  0.20462718  0.21434376  0.30964067  1
  N  N37  1  0.11857804  0.08366022  0.11300695  1
  N  N38  1  0.91558884  0.19472221  0.88656777  1
  N  N39  1  0.75154910  0.10630723  0.62727184  1
  N  N40  1  0.56339764  0.22670925  0.29358438  1
  N  N41  1  0.42664137  0.12587267  0.05613547  1
  N  N42  1  0.21226730  0.20957258  0.83381713  1
  N  N43  1  0.13446375  0.07623948  0.63326580  1
  N  N44  1  0.89338834  0.20048357  0.32905627  1
  N  N45  1  0.78176215  0.08842352  0.09353243  1
  N  N46  1  0.50164272  0.23632907  0.81200909  1
  N  N47  1  0.44488079  0.08872148  0.59391351  1
  N  N48  1  0.21992365  0.54174175  0.36865354  1
  N  N49  1  0.11610600  0.43214089  0.11379857  1
  N  N50  1  0.90518239  0.54931973  0.87607394  1
  N  N51  1  0.75304205  0.43687749  0.62583061  1
  N  N52  1  0.56872840  0.53416728  0.33744970  1
  N  N53  1  0.43070300  0.41670239  0.04860009  1
  N  N54  1  0.20286048  0.55278853  0.87416215  1
  N  N55  1  0.14119927  0.41953443  0.63373231  1
  N  N56  1  0.89798454  0.53653100  0.34279428  1
  N  N57  1  0.80620807  0.41888392  0.10597545  1
  N  N58  1  0.49777418  0.56490281  0.80698752  1
  N  N59  1  0.45178925  0.41897517  0.55925931  1
  N  N60  1  0.22212948  0.87378588  0.37271892  1
  N  N61  1  0.12045095  0.75738700  0.11964992  1
  N  N62  1  0.90729085  0.84327384  0.87482076  1
  N  N63  1  0.75998980  0.76772631  0.64422594  1
  N  N64  1  0.57454635  0.84318454  0.31392098  1
  N  N65  1  0.41812449  0.76807721  0.04466243  1
  N  N66  1  0.20014732  0.87949499  0.86696713  1
  N  N67  1  0.14307277  0.74403153  0.62565710  1
  N  N68  1  0.88936057  0.87699624  0.33715313  1
  N  N69  1  0.81762006  0.74111806  0.11207368  1
  N  N70  1  0.54092822  0.87931087  0.83569197  1
  N  N71  1  0.45284772  0.76063387  0.57021122  1
