# generated using pymatgen
data_Gd2Al7N9
_symmetry_space_group_name_H-M   'P 1'
_cell_length_a   10.00429908
_cell_length_b   9.87312984
_cell_length_c   10.44993303
_cell_angle_alpha   90.19064428
_cell_angle_beta   90.47274293
_cell_angle_gamma   60.66675088
_symmetry_Int_Tables_number   1
_chemical_formula_structural   Gd2Al7N9
_chemical_formula_sum   'Gd8 Al28 N36'
_cell_volume   899.80738275
_cell_formula_units_Z   4
loop_
 _symmetry_equiv_pos_site_id
 _symmetry_equiv_pos_as_xyz
  1  'x, y, z'
loop_
 _atom_site_type_symbol
 _atom_site_label
 _atom_site_symmetry_multiplicity
 _atom_site_fract_x
 _atom_site_fract_y
 _atom_site_fract_z
 _atom_site_occupancy
  Al  Al0  1  0.12523847  0.08725464  0.38754570  1
  Al  Al1  1  0.21403971  0.21389605  0.14195024  1
  Al  Al2  1  0.53560468  0.22208052  0.13805263  1
  Al  Al3  1  0.11622509  0.09306485  0.89426805  1
  Al  Al4  1  0.22858362  0.19926200  0.64758538  1
  Al  Al5  1  0.78912207  0.08978705  0.30307537  1
  Al  Al6  1  0.90639403  0.19823195  0.11468686  1
  Al  Al7  1  0.41739920  0.11712725  0.89523407  1
  Al  Al8  1  0.52684344  0.22065792  0.66089078  1
  Al  Al9  1  0.12644861  0.41885560  0.39190997  1
  Al  Al10  1  0.22056109  0.52964298  0.14600738  1
  Al  Al11  1  0.45568102  0.42680920  0.40078299  1
  Al  Al12  1  0.11786365  0.42514694  0.89293905  1
  Al  Al13  1  0.23182719  0.52629765  0.64053077  1
  Al  Al14  1  0.79839447  0.42258234  0.31913877  1
  Al  Al15  1  0.90950495  0.53353138  0.07656664  1
  Al  Al16  1  0.40681596  0.44396332  0.89367822  1
  Al  Al17  1  0.52205101  0.55497690  0.65372618  1
  Al  Al18  1  0.11947295  0.75828095  0.32390265  1
  Al  Al19  1  0.21931315  0.88191133  0.14591034  1
  Al  Al20  1  0.78838413  0.75738739  0.84067139  1
  Al  Al21  1  0.46249906  0.75108630  0.40525642  1
  Al  Al22  1  0.11492485  0.75790949  0.81868793  1
  Al  Al23  1  0.23062812  0.87673333  0.63924423  1
  Al  Al24  1  0.80186137  0.74208624  0.31082905  1
  Al  Al25  1  0.91999933  0.84762821  0.07666629  1
  Al  Al26  1  0.41076085  0.77656088  0.89121050  1
  Al  Al27  1  0.53854968  0.88085153  0.67061723  1
  Gd  Gd28  1  0.76252939  0.09402783  0.87041819  1
  Gd  Gd29  1  0.87535462  0.21205275  0.59563412  1
  Gd  Gd30  1  0.45473981  0.08738888  0.39552641  1
  Gd  Gd31  1  0.75357337  0.44154143  0.86832439  1
  Gd  Gd32  1  0.88177662  0.54114399  0.59482108  1
  Gd  Gd33  1  0.53776645  0.54582758  0.14187573  1
  Gd  Gd34  1  0.88163974  0.87577738  0.57458311  1
  Gd  Gd35  1  0.56285017  0.87267200  0.10657191  1
  N  N36  1  0.20535135  0.21424147  0.32277752  1
  N  N37  1  0.11840022  0.09222472  0.08368816  1
  N  N38  1  0.91131782  0.19457407  0.85838673  1
  N  N39  1  0.73819918  0.10837533  0.64548900  1
  N  N40  1  0.57046300  0.22273494  0.31861852  1
  N  N41  1  0.42221226  0.12650307  0.08391634  1
  N  N42  1  0.21081674  0.21028958  0.83463299  1
  N  N43  1  0.14177870  0.08176675  0.57148058  1
  N  N44  1  0.90209155  0.19668032  0.34428956  1
  N  N45  1  0.78477543  0.08879985  0.11350312  1
  N  N46  1  0.50200616  0.23760739  0.83989247  1
  N  N47  1  0.44244209  0.09004960  0.61308601  1
  N  N48  1  0.23518740  0.52838079  0.33387708  1
  N  N49  1  0.12250261  0.42105769  0.08039756  1
  N  N50  1  0.90040003  0.54852012  0.88751434  1
  N  N51  1  0.73437621  0.45094336  0.65145989  1
  N  N52  1  0.56821330  0.53338603  0.35766211  1
  N  N53  1  0.41859786  0.42386186  0.07481352  1
  N  N54  1  0.20845710  0.53704650  0.82635708  1
  N  N55  1  0.14807761  0.40343390  0.57634982  1
  N  N56  1  0.90309477  0.53228663  0.37179697  1
  N  N57  1  0.80487099  0.41989224  0.12548842  1
  N  N58  1  0.49005677  0.56940808  0.83863082  1
  N  N59  1  0.43999970  0.42715254  0.58407384  1
  N  N60  1  0.23924329  0.86898158  0.33424710  1
  N  N61  1  0.12159556  0.75651835  0.13717072  1
  N  N62  1  0.91678506  0.83866827  0.89280244  1
  N  N63  1  0.75088725  0.77769084  0.66416328  1
  N  N64  1  0.58304812  0.83582879  0.33365610  1
  N  N65  1  0.40621380  0.78141777  0.06833932  1
  N  N66  1  0.21200926  0.88891830  0.82585248  1
  N  N67  1  0.13414848  0.74968732  0.63023650  1
  N  N68  1  0.89521899  0.87242435  0.35573731  1
  N  N69  1  0.82369675  0.73685779  0.13102495  1
  N  N70  1  0.54177683  0.88197152  0.86203564  1
  N  N71  1  0.44311404  0.76685263  0.59199374  1
