# generated using pymatgen
data_Gd2Al7N9
_symmetry_space_group_name_H-M   'P 1'
_cell_length_a   9.88948071
_cell_length_b   9.82719632
_cell_length_c   10.80434113
_cell_angle_alpha   89.99558366
_cell_angle_beta   89.44678963
_cell_angle_gamma   60.15096743
_symmetry_Int_Tables_number   1
_chemical_formula_structural   Gd2Al7N9
_chemical_formula_sum   'Gd8 Al28 N36'
_cell_volume   910.67623308
_cell_formula_units_Z   4
loop_
 _symmetry_equiv_pos_site_id
 _symmetry_equiv_pos_as_xyz
  1  'x, y, z'
loop_
 _atom_site_type_symbol
 _atom_site_label
 _atom_site_symmetry_multiplicity
 _atom_site_fract_x
 _atom_site_fract_y
 _atom_site_fract_z
 _atom_site_occupancy
  Al  Al0  1  0.12025998  0.08018763  0.32216051  1
  Al  Al1  1  0.22168187  0.20984344  0.14206957  1
  Al  Al2  1  0.53998696  0.21762238  0.13719933  1
  Al  Al3  1  0.11027653  0.09887410  0.88374388  1
  Al  Al4  1  0.22681161  0.19501855  0.66304043  1
  Al  Al5  1  0.78892901  0.08811546  0.29627171  1
  Al  Al6  1  0.89898136  0.20291283  0.09028245  1
  Al  Al7  1  0.41930398  0.11527650  0.89814174  1
  Al  Al8  1  0.52757489  0.21907469  0.66098499  1
  Al  Al9  1  0.11689012  0.43366054  0.31602321  1
  Al  Al10  1  0.21070391  0.54220510  0.06974908  1
  Al  Al11  1  0.46508928  0.42094356  0.40382873  1
  Al  Al12  1  0.11396997  0.43794708  0.82986876  1
  Al  Al13  1  0.22896259  0.53524303  0.57718659  1
  Al  Al14  1  0.80223722  0.42017971  0.31030208  1
  Al  Al15  1  0.91273476  0.53266522  0.07557374  1
  Al  Al16  1  0.41805205  0.44048524  0.89157913  1
  Al  Al17  1  0.52729295  0.55179757  0.65110942  1
  Al  Al18  1  0.12347296  0.75494316  0.32042737  1
  Al  Al19  1  0.20699656  0.87314157  0.07033173  1
  Al  Al20  1  0.78768653  0.75741735  0.83909882  1
  Al  Al21  1  0.47273505  0.74411543  0.40912781  1
  Al  Al22  1  0.11826354  0.75634888  0.82417143  1
  Al  Al23  1  0.22728235  0.87448322  0.57318088  1
  Al  Al24  1  0.80105551  0.74590330  0.30767461  1
  Al  Al25  1  0.90967178  0.85518766  0.07489729  1
  Al  Al26  1  0.41899969  0.77189184  0.89034871  1
  Al  Al27  1  0.54007222  0.87866902  0.67071237  1
  Gd  Gd28  1  0.76414409  0.09800741  0.86095946  1
  Gd  Gd29  1  0.87251181  0.21225549  0.56183571  1
  Gd  Gd30  1  0.45091842  0.09025211  0.40289181  1
  Gd  Gd31  1  0.75685171  0.44738275  0.85899485  1
  Gd  Gd32  1  0.88855691  0.53690162  0.57836493  1
  Gd  Gd33  1  0.53609689  0.54120998  0.15224869  1
  Gd  Gd34  1  0.88823597  0.87128393  0.57468150  1
  Gd  Gd35  1  0.55833814  0.87186607  0.11610522  1
  N  N36  1  0.21164732  0.20927552  0.32123492  1
  N  N37  1  0.11966260  0.08571478  0.12170687  1
  N  N38  1  0.90414678  0.20433176  0.91551194  1
  N  N39  1  0.74698615  0.10519146  0.64814597  1
  N  N40  1  0.56509191  0.22417036  0.31469394  1
  N  N41  1  0.42507936  0.12601267  0.07639959  1
  N  N42  1  0.21115686  0.20879170  0.84577516  1
  N  N43  1  0.12595331  0.08884375  0.60995756  1
  N  N44  1  0.89732606  0.19679611  0.34219984  1
  N  N45  1  0.78046571  0.08639813  0.11538351  1
  N  N46  1  0.49978837  0.23715335  0.83323246  1
  N  N47  1  0.44071342  0.09075097  0.61427052  1
  N  N48  1  0.22379323  0.53864325  0.38844976  1
  N  N49  1  0.11757867  0.43201691  0.13572776  1
  N  N50  1  0.90642955  0.54917996  0.89647549  1
  N  N51  1  0.74809619  0.44197004  0.65160113  1
  N  N52  1  0.57544176  0.52837116  0.36170996  1
  N  N53  1  0.43230022  0.41572641  0.06772034  1
  N  N54  1  0.20177767  0.55350296  0.89296626  1
  N  N55  1  0.13887245  0.42154370  0.65146062  1
  N  N56  1  0.90244839  0.53304362  0.36484380  1
  N  N57  1  0.80280028  0.42378429  0.12888402  1
  N  N58  1  0.49103898  0.57022712  0.82648577  1
  N  N59  1  0.45141442  0.41931311  0.58060488  1
  N  N60  1  0.23169396  0.86284527  0.38385072  1
  N  N61  1  0.12171994  0.75443603  0.13896808  1
  N  N62  1  0.90778773  0.84472109  0.89494557  1
  N  N63  1  0.75870662  0.76991185  0.66580333  1
  N  N64  1  0.57896149  0.83934061  0.33323405  1
  N  N65  1  0.42061975  0.76587056  0.06429970  1
  N  N66  1  0.19766357  0.88382804  0.88880668  1
  N  N67  1  0.14424765  0.74597249  0.64413845  1
  N  N68  1  0.89347953  0.87327897  0.35777833  1
  N  N69  1  0.82013083  0.73974037  0.13228578  1
  N  N70  1  0.53968975  0.88067486  0.85658414  1
  N  N71  1  0.45155133  0.76327714  0.58890902  1
