# generated using pymatgen
data_Gd2Al7N9
_symmetry_space_group_name_H-M   'P 1'
_cell_length_a   9.97112652
_cell_length_b   9.84348736
_cell_length_c   10.33685924
_cell_angle_alpha   90.08760388
_cell_angle_beta   89.94212173
_cell_angle_gamma   60.25844434
_symmetry_Int_Tables_number   1
_chemical_formula_structural   Gd2Al7N9
_chemical_formula_sum   'Gd8 Al28 N36'
_cell_volume   880.91939955
_cell_formula_units_Z   4
loop_
 _symmetry_equiv_pos_site_id
 _symmetry_equiv_pos_as_xyz
  1  'x, y, z'
loop_
 _atom_site_type_symbol
 _atom_site_label
 _atom_site_symmetry_multiplicity
 _atom_site_fract_x
 _atom_site_fract_y
 _atom_site_fract_z
 _atom_site_occupancy
  Al  Al0  1  0.10705100  0.09534150  0.30049663  1
  Al  Al1  1  0.21798212  0.20957468  0.05548412  1
  Al  Al2  1  0.52627171  0.21764068  0.05823750  1
  Al  Al3  1  0.12763115  0.08544628  0.81776244  1
  Al  Al4  1  0.22431766  0.20543650  0.57110742  1
  Al  Al5  1  0.77124478  0.09946547  0.28594377  1
  Al  Al6  1  0.90342503  0.20195785  0.06932676  1
  Al  Al7  1  0.42980413  0.10965333  0.80194353  1
  Al  Al8  1  0.55551160  0.21586257  0.55968506  1
  Al  Al9  1  0.10625794  0.42899054  0.30129384  1
  Al  Al10  1  0.21638487  0.53636036  0.06128629  1
  Al  Al11  1  0.43711453  0.42806015  0.31704157  1
  Al  Al12  1  0.12554330  0.42654751  0.81679002  1
  Al  Al13  1  0.23423707  0.53432243  0.56337155  1
  Al  Al14  1  0.78079782  0.42981630  0.29084351  1
  Al  Al15  1  0.90665124  0.53462622  0.05947197  1
  Al  Al16  1  0.42636550  0.43844602  0.80314862  1
  Al  Al17  1  0.54873146  0.54144185  0.54934517  1
  Al  Al18  1  0.11262184  0.76171835  0.30229333  1
  Al  Al19  1  0.21386380  0.87678836  0.06076149  1
  Al  Al20  1  0.79356431  0.75463175  0.81391429  1
  Al  Al21  1  0.43970371  0.76189987  0.31792830  1
  Al  Al22  1  0.12551012  0.75188181  0.81680302  1
  Al  Al23  1  0.23356421  0.86720130  0.56337169  1
  Al  Al24  1  0.78190237  0.75552166  0.29206226  1
  Al  Al25  1  0.90211723  0.85914376  0.06260437  1
  Al  Al26  1  0.42979724  0.76243709  0.79805995  1
  Al  Al27  1  0.55346002  0.87179829  0.60378448  1
  Gd  Gd28  1  0.77100536  0.09545017  0.83869373  1
  Gd  Gd29  1  0.90179039  0.19711741  0.54169305  1
  Gd  Gd30  1  0.43613663  0.09569593  0.33403988  1
  Gd  Gd31  1  0.77610081  0.43296162  0.82022162  1
  Gd  Gd32  1  0.90207051  0.53422313  0.55054982  1
  Gd  Gd33  1  0.53814911  0.53792754  0.07418796  1
  Gd  Gd34  1  0.89658010  0.87010518  0.55490379  1
  Gd  Gd35  1  0.55058185  0.87239755  0.05342183  1
  N  N36  1  0.17407141  0.22762422  0.38648544  1
  N  N37  1  0.11847800  0.09230892  0.11699714  1
  N  N38  1  0.92646729  0.18848050  0.88456078  1
  N  N39  1  0.75597397  0.10957063  0.62191372  1
  N  N40  1  0.57279516  0.21792345  0.37375984  1
  N  N41  1  0.42329829  0.11570098  0.11497013  1
  N  N42  1  0.22332026  0.20575629  0.86920516  1
  N  N43  1  0.14576164  0.07578577  0.63421591  1
  N  N44  1  0.88490499  0.20497112  0.32008707  1
  N  N45  1  0.76416164  0.09867872  0.09595805  1
  N  N46  1  0.51143879  0.23180582  0.87310743  1
  N  N47  1  0.44452097  0.10038124  0.60592190  1
  N  N48  1  0.21349484  0.54181181  0.37285047  1
  N  N49  1  0.11510723  0.42332883  0.11549369  1
  N  N50  1  0.91343843  0.54564195  0.87131688  1
  N  N51  1  0.75485317  0.43782489  0.60182389  1
  N  N52  1  0.55117763  0.53802293  0.35450802  1
  N  N53  1  0.41572368  0.41576539  0.13618374  1
  N  N54  1  0.22410210  0.54006548  0.87556488  1
  N  N55  1  0.14742135  0.41359106  0.63401854  1
  N  N56  1  0.88997784  0.53902821  0.33441870  1
  N  N57  1  0.79893328  0.42350050  0.10277547  1
  N  N58  1  0.51964123  0.55612691  0.85756044  1
  N  N59  1  0.44505066  0.43055783  0.61281191  1
  N  N60  1  0.21219404  0.87912388  0.37477032  1
  N  N61  1  0.11553121  0.75849212  0.11646136  1
  N  N62  1  0.91432866  0.84163463  0.87386250  1
  N  N63  1  0.76433453  0.76817027  0.63411464  1
  N  N64  1  0.57702803  0.83881539  0.35773318  1
  N  N65  1  0.40716043  0.78155493  0.13835804  1
  N  N66  1  0.22656292  0.87023746  0.87400937  1
  N  N67  1  0.14589823  0.74497620  0.63082357  1
  N  N68  1  0.88720004  0.87649449  0.33357775  1
  N  N69  1  0.80283702  0.74736902  0.10966580  1
  N  N70  1  0.54846604  0.87747914  0.82838480  1
  N  N71  1  0.44517082  0.75733817  0.61031373  1
