# generated using pymatgen
data_Gd2Al7N9
_symmetry_space_group_name_H-M   'P 1'
_cell_length_a   10.00172287
_cell_length_b   9.87242566
_cell_length_c   10.45542300
_cell_angle_alpha   90.19129600
_cell_angle_beta   90.45998102
_cell_angle_gamma   60.66903537
_symmetry_Int_Tables_number   1
_chemical_formula_structural   Gd2Al7N9
_chemical_formula_sum   'Gd8 Al28 N36'
_cell_volume   900.00596911
_cell_formula_units_Z   4
loop_
 _symmetry_equiv_pos_site_id
 _symmetry_equiv_pos_as_xyz
  1  'x, y, z'
loop_
 _atom_site_type_symbol
 _atom_site_label
 _atom_site_symmetry_multiplicity
 _atom_site_fract_x
 _atom_site_fract_y
 _atom_site_fract_z
 _atom_site_occupancy
  Al  Al0  1  0.12484204  0.08748195  0.38745849  1
  Al  Al1  1  0.21400300  0.21381825  0.14230755  1
  Al  Al2  1  0.53581021  0.22196858  0.13807798  1
  Al  Al3  1  0.11768856  0.09237482  0.89519243  1
  Al  Al4  1  0.22856767  0.19931541  0.64752903  1
  Al  Al5  1  0.79003923  0.09059898  0.30233412  1
  Al  Al6  1  0.90535779  0.19864125  0.10230969  1
  Al  Al7  1  0.41722958  0.11719862  0.89539168  1
  Al  Al8  1  0.52693553  0.22066511  0.66086764  1
  Al  Al9  1  0.12646785  0.41889255  0.39186529  1
  Al  Al10  1  0.22059569  0.52962092  0.14601659  1
  Al  Al11  1  0.45573195  0.42679050  0.40063554  1
  Al  Al12  1  0.11777129  0.42521667  0.89306898  1
  Al  Al13  1  0.23185194  0.52624421  0.64057974  1
  Al  Al14  1  0.79952056  0.42104968  0.31837620  1
  Al  Al15  1  0.90943005  0.53341494  0.07665101  1
  Al  Al16  1  0.40672522  0.44402570  0.89378917  1
  Al  Al17  1  0.52213532  0.55488461  0.65355346  1
  Al  Al18  1  0.11939414  0.75831343  0.32383152  1
  Al  Al19  1  0.21946311  0.88190924  0.14625204  1
  Al  Al20  1  0.78855451  0.75727639  0.84061804  1
  Al  Al21  1  0.46254178  0.75102109  0.40519550  1
  Al  Al22  1  0.11484789  0.75778171  0.81869888  1
  Al  Al23  1  0.23057452  0.87673328  0.63921623  1
  Al  Al24  1  0.80193720  0.74207227  0.31072608  1
  Al  Al25  1  0.91992939  0.84772009  0.07674904  1
  Al  Al26  1  0.41055889  0.77666454  0.89128814  1
  Al  Al27  1  0.53856879  0.88088588  0.67060219  1
  Gd  Gd28  1  0.76185543  0.09348559  0.86985929  1
  Gd  Gd29  1  0.87433496  0.21258214  0.59096586  1
  Gd  Gd30  1  0.45497600  0.08742066  0.39539051  1
  Gd  Gd31  1  0.75268064  0.44289670  0.86771221  1
  Gd  Gd32  1  0.88170796  0.54122812  0.59432085  1
  Gd  Gd33  1  0.53792870  0.54567270  0.14221487  1
  Gd  Gd34  1  0.88172017  0.87581888  0.57430611  1
  Gd  Gd35  1  0.56281057  0.87267268  0.10669823  1
  N  N36  1  0.20548250  0.21422850  0.32306293  1
  N  N37  1  0.11991541  0.09151402  0.08443067  1
  N  N38  1  0.91030495  0.19528863  0.87081153  1
  N  N39  1  0.73893352  0.10851898  0.64611832  1
  N  N40  1  0.57063448  0.22278362  0.31850474  1
  N  N41  1  0.42223921  0.12654787  0.08385455  1
  N  N42  1  0.21054905  0.21035236  0.83441583  1
  N  N43  1  0.14125720  0.08201763  0.57209709  1
  N  N44  1  0.90128548  0.19711782  0.34900244  1
  N  N45  1  0.78458121  0.08863073  0.11335838  1
  N  N46  1  0.50169144  0.23771260  0.83979843  1
  N  N47  1  0.44258547  0.09005154  0.61299040  1
  N  N48  1  0.23521338  0.52836765  0.33386141  1
  N  N49  1  0.12253227  0.42096433  0.08039175  1
  N  N50  1  0.90039046  0.54862849  0.88759212  1
  N  N51  1  0.73506436  0.45008326  0.65181256  1
  N  N52  1  0.56823902  0.53337963  0.35777875  1
  N  N53  1  0.41869458  0.42381401  0.07473956  1
  N  N54  1  0.20843716  0.53698451  0.82631934  1
  N  N55  1  0.14796070  0.40353641  0.57637800  1
  N  N56  1  0.90314173  0.53219915  0.37161740  1
  N  N57  1  0.80497129  0.41953905  0.12554546  1
  N  N58  1  0.48962380  0.56970807  0.83837945  1
  N  N59  1  0.44017729  0.42700936  0.58403397  1
  N  N60  1  0.23925204  0.86895471  0.33450213  1
  N  N61  1  0.12164907  0.75650669  0.13719086  1
  N  N62  1  0.91683455  0.83851230  0.89288520  1
  N  N63  1  0.75100386  0.77769064  0.66418473  1
  N  N64  1  0.58301774  0.83586843  0.33361582  1
  N  N65  1  0.40635214  0.78115136  0.06826080  1
  N  N66  1  0.21161693  0.88920700  0.82568904  1
  N  N67  1  0.13410391  0.74964267  0.63032048  1
  N  N68  1  0.89523884  0.87257000  0.35563691  1
  N  N69  1  0.82366992  0.73680802  0.13097854  1
  N  N70  1  0.54168547  0.88203183  0.86194297  1
  N  N71  1  0.44322969  0.76679037  0.59200928  1
