# generated using pymatgen
data_Gd2Al7N9
_symmetry_space_group_name_H-M   'P 1'
_cell_length_a   10.01964274
_cell_length_b   9.86706594
_cell_length_c   10.42826428
_cell_angle_alpha   90.17744806
_cell_angle_beta   90.62246166
_cell_angle_gamma   60.71128226
_symmetry_Int_Tables_number   1
_chemical_formula_structural   Gd2Al7N9
_chemical_formula_sum   'Gd8 Al28 N36'
_cell_volume   899.13359716
_cell_formula_units_Z   4
loop_
 _symmetry_equiv_pos_site_id
 _symmetry_equiv_pos_as_xyz
  1  'x, y, z'
loop_
 _atom_site_type_symbol
 _atom_site_label
 _atom_site_symmetry_multiplicity
 _atom_site_fract_x
 _atom_site_fract_y
 _atom_site_fract_z
 _atom_site_occupancy
  Al  Al0  1  0.12628331  0.08680918  0.39955011  1
  Al  Al1  1  0.21292794  0.21462047  0.15222001  1
  Al  Al2  1  0.53482563  0.22245834  0.15001892  1
  Al  Al3  1  0.11412260  0.09362752  0.90310612  1
  Al  Al4  1  0.22869579  0.19916256  0.65982415  1
  Al  Al5  1  0.78565682  0.08827579  0.31698650  1
  Al  Al6  1  0.90967583  0.19799381  0.15169131  1
  Al  Al7  1  0.41819252  0.11682751  0.90717621  1
  Al  Al8  1  0.52648315  0.22088806  0.67315689  1
  Al  Al9  1  0.12532606  0.41940380  0.40422979  1
  Al  Al10  1  0.21981192  0.53071400  0.15853954  1
  Al  Al11  1  0.45493828  0.42737858  0.41307204  1
  Al  Al12  1  0.11845314  0.42569796  0.90484616  1
  Al  Al13  1  0.23187203  0.52691458  0.65177345  1
  Al  Al14  1  0.79417162  0.42793040  0.33385454  1
  Al  Al15  1  0.90926112  0.53406333  0.08855671  1
  Al  Al16  1  0.40777714  0.44349007  0.90600250  1
  Al  Al17  1  0.52291530  0.55467841  0.66679650  1
  Al  Al18  1  0.11891720  0.75883450  0.33688772  1
  Al  Al19  1  0.21760005  0.88258017  0.15673175  1
  Al  Al20  1  0.78649076  0.75840376  0.85341994  1
  Al  Al21  1  0.46184797  0.75141406  0.41720995  1
  Al  Al22  1  0.11456776  0.75848133  0.83034526  1
  Al  Al23  1  0.23068877  0.87644750  0.65062762  1
  Al  Al24  1  0.80097507  0.74259819  0.32365826  1
  Al  Al25  1  0.91846792  0.84918354  0.08925721  1
  Al  Al26  1  0.41208552  0.77575031  0.90344415  1
  Al  Al27  1  0.53794001  0.88073722  0.68275008  1
  Gd  Gd28  1  0.76560902  0.09591790  0.88274913  1
  Gd  Gd29  1  0.87845779  0.20999387  0.61532395  1
  Gd  Gd30  1  0.45235805  0.08825111  0.40809987  1
  Gd  Gd31  1  0.75899859  0.43468447  0.88094111  1
  Gd  Gd32  1  0.88314496  0.54040674  0.61045396  1
  Gd  Gd33  1  0.53836489  0.54573737  0.15132422  1
  Gd  Gd34  1  0.87991439  0.87600351  0.58774436  1
  Gd  Gd35  1  0.56182475  0.87326034  0.11924090  1
  N  N36  1  0.20342635  0.21534663  0.33339557  1
  N  N37  1  0.11325009  0.09462022  0.09345510  1
  N  N38  1  0.91709589  0.19033308  0.84146957  1
  N  N39  1  0.73575314  0.10868120  0.65553099  1
  N  N40  1  0.56900796  0.22272175  0.33157070  1
  N  N41  1  0.42112122  0.12689524  0.09626255  1
  N  N42  1  0.21148283  0.21048481  0.84745179  1
  N  N43  1  0.14402106  0.08086921  0.58156476  1
  N  N44  1  0.90303529  0.19607479  0.34762445  1
  N  N45  1  0.78427080  0.09028691  0.12628515  1
  N  N46  1  0.50441102  0.23657137  0.85307161  1
  N  N47  1  0.44168635  0.09032500  0.62611380  1
  N  N48  1  0.23432462  0.52897336  0.34661921  1
  N  N49  1  0.12181232  0.42244579  0.09221410  1
  N  N50  1  0.90048402  0.54788389  0.89821358  1
  N  N51  1  0.73341342  0.45224405  0.66234130  1
  N  N52  1  0.56711862  0.53402400  0.36850657  1
  N  N53  1  0.41722076  0.42464916  0.08765553  1
  N  N54  1  0.20942396  0.53742589  0.83833151  1
  N  N55  1  0.14907103  0.40290830  0.58841781  1
  N  N56  1  0.90204817  0.53347621  0.38596039  1
  N  N57  1  0.80543322  0.42038944  0.13797851  1
  N  N58  1  0.49477404  0.56682882  0.85328793  1
  N  N59  1  0.43942237  0.42819897  0.59669785  1
  N  N60  1  0.23868787  0.86955146  0.34568121  1
  N  N61  1  0.11990930  0.75745122  0.14955160  1
  N  N62  1  0.91584364  0.83994812  0.90426603  1
  N  N63  1  0.74943911  0.77774416  0.67650253  1
  N  N64  1  0.58258450  0.83646855  0.34656642  1
  N  N65  1  0.40467626  0.78276228  0.08094405  1
  N  N66  1  0.21369550  0.88715640  0.83801410  1
  N  N67  1  0.13325665  0.75036139  0.64133170  1
  N  N68  1  0.89456716  0.87227966  0.36846256  1
  N  N69  1  0.82264203  0.73754403  0.14300550  1
  N  N70  1  0.54193164  0.88173028  0.87478894  1
  N  N71  1  0.44253290  0.76655174  0.60434582  1
