# generated using pymatgen
data_Gd2Al7N9
_symmetry_space_group_name_H-M   'P 1'
_cell_length_a   9.87912359
_cell_length_b   9.83101683
_cell_length_c   10.79678067
_cell_angle_alpha   90.10537730
_cell_angle_beta   89.41185078
_cell_angle_gamma   60.12774154
_symmetry_Int_Tables_number   1
_chemical_formula_structural   Gd2Al7N9
_chemical_formula_sum   'Gd8 Al28 N36'
_cell_volume   909.20647123
_cell_formula_units_Z   4
loop_
 _symmetry_equiv_pos_site_id
 _symmetry_equiv_pos_as_xyz
  1  'x, y, z'
loop_
 _atom_site_type_symbol
 _atom_site_label
 _atom_site_symmetry_multiplicity
 _atom_site_fract_x
 _atom_site_fract_y
 _atom_site_fract_z
 _atom_site_occupancy
  Al  Al0  1  0.11640848  0.08154119  0.31534324  1
  Al  Al1  1  0.21998485  0.20996441  0.14306905  1
  Al  Al2  1  0.54018584  0.21859705  0.13702322  1
  Al  Al3  1  0.10984270  0.08888516  0.83130352  1
  Al  Al4  1  0.23305899  0.19907806  0.66618829  1
  Al  Al5  1  0.78891091  0.09157688  0.29648822  1
  Al  Al6  1  0.90808089  0.19824462  0.08124588  1
  Al  Al7  1  0.41618669  0.11693177  0.89977186  1
  Al  Al8  1  0.52920875  0.21938993  0.66036234  1
  Al  Al9  1  0.11542424  0.43554143  0.31669288  1
  Al  Al10  1  0.21083756  0.54307520  0.07069919  1
  Al  Al11  1  0.46433125  0.42294444  0.40273652  1
  Al  Al12  1  0.11338468  0.43721431  0.83131637  1
  Al  Al13  1  0.22849646  0.53584250  0.57658004  1
  Al  Al14  1  0.80178447  0.41906077  0.31082559  1
  Al  Al15  1  0.91303097  0.53223284  0.07562592  1
  Al  Al16  1  0.41809785  0.43992159  0.89130380  1
  Al  Al17  1  0.52918900  0.54992369  0.65130969  1
  Al  Al18  1  0.12161291  0.75840186  0.32125141  1
  Al  Al19  1  0.20408041  0.87865356  0.06609562  1
  Al  Al20  1  0.78614997  0.75777968  0.83953646  1
  Al  Al21  1  0.46992471  0.74692852  0.40957694  1
  Al  Al22  1  0.11756526  0.75461578  0.82552874  1
  Al  Al23  1  0.22830593  0.87091466  0.58001917  1
  Al  Al24  1  0.79924474  0.74733736  0.30722722  1
  Al  Al25  1  0.91004624  0.85522103  0.07589308  1
  Al  Al26  1  0.41945410  0.77055333  0.88993083  1
  Al  Al27  1  0.53944381  0.87939805  0.67105024  1
  Gd  Gd28  1  0.76291725  0.09718402  0.86385130  1
  Gd  Gd29  1  0.88130429  0.20700807  0.56763594  1
  Gd  Gd30  1  0.45093443  0.09218194  0.40003231  1
  Gd  Gd31  1  0.76063057  0.44251756  0.85922412  1
  Gd  Gd32  1  0.88676264  0.53895263  0.57745187  1
  Gd  Gd33  1  0.53814881  0.54092315  0.14951164  1
  Gd  Gd34  1  0.88706828  0.87187084  0.57398594  1
  Gd  Gd35  1  0.55733984  0.87209328  0.11508434  1
  N  N36  1  0.20832710  0.21201854  0.32527891  1
  N  N37  1  0.11909744  0.08207119  0.13541377  1
  N  N38  1  0.91467397  0.19566923  0.90690778  1
  N  N39  1  0.74861528  0.10642316  0.64851488  1
  N  N40  1  0.56485830  0.22634949  0.31358065  1
  N  N41  1  0.42445301  0.12660485  0.07826966  1
  N  N42  1  0.21062651  0.21049021  0.84612091  1
  N  N43  1  0.12977780  0.07825986  0.64952123  1
  N  N44  1  0.89496644  0.19935129  0.35078159  1
  N  N45  1  0.78245237  0.08788512  0.11399694  1
  N  N46  1  0.49884645  0.23679532  0.83251238  1
  N  N47  1  0.44216873  0.09045574  0.61133461  1
  N  N48  1  0.22221026  0.54151848  0.38865776  1
  N  N49  1  0.11773919  0.43218360  0.13644557  1
  N  N50  1  0.90502411  0.54976688  0.89632625  1
  N  N51  1  0.75032508  0.43918246  0.65024872  1
  N  N52  1  0.57186712  0.53217638  0.35938585  1
  N  N53  1  0.43250834  0.41593442  0.06743820  1
  N  N54  1  0.20161536  0.55266737  0.89363862  1
  N  N55  1  0.13755815  0.42274452  0.65041851  1
  N  N56  1  0.90007409  0.53500437  0.36429832  1
  N  N57  1  0.80678376  0.41865517  0.12668242  1
  N  N58  1  0.49422013  0.56731857  0.82682944  1
  N  N59  1  0.45134950  0.41963016  0.57998405  1
  N  N60  1  0.22469317  0.87118972  0.39210751  1
  N  N61  1  0.12232259  0.75612758  0.13910962  1
  N  N62  1  0.90703131  0.84410679  0.89548509  1
  N  N63  1  0.75783658  0.77113237  0.66585416  1
  N  N64  1  0.57670045  0.84075006  0.33261851  1
  N  N65  1  0.41907285  0.76675006  0.06379775  1
  N  N66  1  0.19846083  0.88184598  0.88658702  1
  N  N67  1  0.14260036  0.74497542  0.64544646  1
  N  N68  1  0.89110777  0.87563387  0.35712181  1
  N  N69  1  0.81958499  0.73981277  0.13204791  1
  N  N70  1  0.53864377  0.88172999  0.85652925  1
  N  N71  1  0.45231908  0.76225166  0.59014859  1
