# generated using pymatgen
data_Gd2Al7N9
_symmetry_space_group_name_H-M   'P 1'
_cell_length_a   10.02490891
_cell_length_b   9.86465979
_cell_length_c   10.27439538
_cell_angle_alpha   90.05158711
_cell_angle_beta   90.17894480
_cell_angle_gamma   60.79136957
_symmetry_Int_Tables_number   1
_chemical_formula_structural   Gd2Al7N9
_chemical_formula_sum   'Gd8 Al28 N36'
_cell_volume   886.86088905
_cell_formula_units_Z   4
loop_
 _symmetry_equiv_pos_site_id
 _symmetry_equiv_pos_as_xyz
  1  'x, y, z'
loop_
 _atom_site_type_symbol
 _atom_site_label
 _atom_site_symmetry_multiplicity
 _atom_site_fract_x
 _atom_site_fract_y
 _atom_site_fract_z
 _atom_site_occupancy
  Al  Al0  1  0.12575023  0.08729545  0.39923292  1
  Al  Al1  1  0.21513363  0.21168667  0.14632726  1
  Al  Al2  1  0.53389596  0.22317899  0.15484256  1
  Al  Al3  1  0.11288775  0.09044393  0.90479493  1
  Al  Al4  1  0.22771048  0.20228833  0.65991090  1
  Al  Al5  1  0.76731072  0.10603479  0.38061128  1
  Al  Al6  1  0.90614370  0.19307292  0.16690093  1
  Al  Al7  1  0.42262887  0.11669619  0.89674572  1
  Al  Al8  1  0.53533678  0.21893470  0.65716890  1
  Al  Al9  1  0.13068207  0.41823888  0.40053231  1
  Al  Al10  1  0.21636909  0.53883098  0.15056466  1
  Al  Al11  1  0.44783449  0.43258876  0.41391010  1
  Al  Al12  1  0.10920955  0.43444468  0.90328202  1
  Al  Al13  1  0.23096671  0.53418156  0.65194942  1
  Al  Al14  1  0.78323080  0.42496636  0.34765841  1
  Al  Al15  1  0.91825251  0.52364735  0.16096326  1
  Al  Al16  1  0.41644001  0.43869259  0.89878043  1
  Al  Al17  1  0.52962244  0.55097162  0.66389979  1
  Al  Al18  1  0.13614599  0.75063044  0.40092293  1
  Al  Al19  1  0.21569918  0.87859180  0.15330023  1
  Al  Al20  1  0.78183953  0.75915278  0.83401515  1
  Al  Al21  1  0.45702098  0.75388431  0.41623328  1
  Al  Al22  1  0.10988698  0.75894668  0.90178606  1
  Al  Al23  1  0.23061574  0.86915424  0.64966519  1
  Al  Al24  1  0.79033074  0.75059040  0.33926070  1
  Al  Al25  1  0.91304949  0.86406300  0.16910569  1
  Al  Al26  1  0.41453622  0.77300008  0.89919425  1
  Al  Al27  1  0.53218574  0.88219103  0.67344258  1
  Gd  Gd28  1  0.76787095  0.08914791  0.91583339  1
  Gd  Gd29  1  0.88736031  0.20061466  0.62555916  1
  Gd  Gd30  1  0.44876093  0.08969503  0.40904550  1
  Gd  Gd31  1  0.77023766  0.43507243  0.88915810  1
  Gd  Gd32  1  0.88780236  0.53660446  0.61384131  1
  Gd  Gd33  1  0.53769334  0.54479275  0.14973131  1
  Gd  Gd34  1  0.88924375  0.87461979  0.61528073  1
  Gd  Gd35  1  0.56806898  0.87064565  0.11321039  1
  N  N36  1  0.20320012  0.21511064  0.33026027  1
  N  N37  1  0.10953004  0.09385513  0.09687851  1
  N  N38  1  0.91151528  0.18417038  0.84843336  1
  N  N39  1  0.72419291  0.11852916  0.56832072  1
  N  N40  1  0.55574205  0.23269120  0.33380346  1
  N  N41  1  0.42486810  0.12559171  0.09017914  1
  N  N42  1  0.21001616  0.21196606  0.84973236  1
  N  N43  1  0.14904534  0.07779184  0.58261728  1
  N  N44  1  0.90072821  0.19856554  0.36091600  1
  N  N45  1  0.78237308  0.09013907  0.13880413  1
  N  N46  1  0.52166825  0.22913308  0.84094016  1
  N  N47  1  0.43843385  0.09388769  0.62878679  1
  N  N48  1  0.23144690  0.53629291  0.33922723  1
  N  N49  1  0.11495723  0.42602885  0.09322599  1
  N  N50  1  0.90655485  0.54650953  0.84957194  1
  N  N51  1  0.73897058  0.44355238  0.65445061  1
  N  N52  1  0.56142777  0.53743290  0.37077804  1
  N  N53  1  0.41797655  0.42228962  0.08287589  1
  N  N54  1  0.21114850  0.54469551  0.84148095  1
  N  N55  1  0.15320999  0.40439299  0.58449437  1
  N  N56  1  0.90630275  0.52772727  0.36613649  1
  N  N57  1  0.80372883  0.41565057  0.14554690  1
  N  N58  1  0.50694594  0.56225539  0.85347910  1
  N  N59  1  0.43804043  0.43139541  0.59889545  1
  N  N60  1  0.23510638  0.86787177  0.34181536  1
  N  N61  1  0.11495563  0.76168520  0.09719718  1
  N  N62  1  0.90458754  0.85176559  0.84687185  1
  N  N63  1  0.73815278  0.78124823  0.64910727  1
  N  N64  1  0.57621514  0.83905398  0.34691355  1
  N  N65  1  0.40670411  0.78322906  0.07985185  1
  N  N66  1  0.21002515  0.87941525  0.83870866  1
  N  N67  1  0.15107248  0.74092467  0.58395803  1
  N  N68  1  0.90453368  0.86870563  0.36379847  1
  N  N69  1  0.82418951  0.73790762  0.15328807  1
  N  N70  1  0.54542046  0.87809640  0.86716362  1
  N  N71  1  0.44108666  0.76531816  0.60471352  1
