# generated using pymatgen
data_Gd2Al7N9
_symmetry_space_group_name_H-M   'P 1'
_cell_length_a   9.94545790
_cell_length_b   9.85647729
_cell_length_c   10.59619526
_cell_angle_alpha   90.25210753
_cell_angle_beta   90.22262119
_cell_angle_gamma   60.45733304
_symmetry_Int_Tables_number   1
_chemical_formula_structural   Gd2Al7N9
_chemical_formula_sum   'Gd8 Al28 N36'
_cell_volume   903.65998732
_cell_formula_units_Z   4
loop_
 _symmetry_equiv_pos_site_id
 _symmetry_equiv_pos_as_xyz
  1  'x, y, z'
loop_
 _atom_site_type_symbol
 _atom_site_label
 _atom_site_symmetry_multiplicity
 _atom_site_fract_x
 _atom_site_fract_y
 _atom_site_fract_z
 _atom_site_occupancy
  Al  Al0  1  0.12721772  0.08515130  0.38545179  1
  Al  Al1  1  0.21538194  0.21342434  0.14397495  1
  Al  Al2  1  0.53991802  0.21949651  0.13680113  1
  Al  Al3  1  0.11916518  0.09261021  0.90005649  1
  Al  Al4  1  0.22559847  0.20015336  0.64701015  1
  Al  Al5  1  0.79382295  0.08981210  0.29696290  1
  Al  Al6  1  0.90373279  0.20014126  0.08391337  1
  Al  Al7  1  0.41615858  0.11759684  0.89533800  1
  Al  Al8  1  0.52789938  0.21864124  0.66049246  1
  Al  Al9  1  0.12873138  0.41946697  0.39024083  1
  Al  Al10  1  0.22042018  0.53081864  0.13438429  1
  Al  Al11  1  0.45759118  0.42620327  0.40049599  1
  Al  Al12  1  0.11455785  0.42586010  0.89350595  1
  Al  Al13  1  0.23225284  0.52622262  0.63786152  1
  Al  Al14  1  0.80440222  0.41806360  0.31345133  1
  Al  Al15  1  0.90593187  0.53450395  0.07649486  1
  Al  Al16  1  0.40884893  0.44318567  0.89152954  1
  Al  Al17  1  0.52296153  0.55478568  0.65186597  1
  Al  Al18  1  0.12107039  0.75498809  0.31905926  1
  Al  Al19  1  0.22067840  0.88139720  0.14568608  1
  Al  Al20  1  0.78626031  0.75866816  0.83931372  1
  Al  Al21  1  0.46315476  0.75063441  0.40584269  1
  Al  Al22  1  0.11344258  0.75688286  0.81978356  1
  Al  Al23  1  0.22818505  0.87823514  0.64135929  1
  Al  Al24  1  0.80281575  0.74252322  0.30839278  1
  Al  Al25  1  0.91624677  0.85118988  0.07509399  1
  Al  Al26  1  0.40907983  0.77691132  0.89053782  1
  Al  Al27  1  0.53751895  0.88164212  0.67079001  1
  Gd  Gd28  1  0.76308919  0.09410873  0.86499583  1
  Gd  Gd29  1  0.86652109  0.21650177  0.57140210  1
  Gd  Gd30  1  0.45838243  0.08754132  0.39631379  1
  Gd  Gd31  1  0.75041768  0.44540710  0.86411497  1
  Gd  Gd32  1  0.87828842  0.54324984  0.58749136  1
  Gd  Gd33  1  0.53650171  0.54552251  0.14830815  1
  Gd  Gd34  1  0.88394079  0.87411374  0.57168100  1
  Gd  Gd35  1  0.56109697  0.87271118  0.10723594  1
  N  N36  1  0.20882654  0.21287485  0.32338275  1
  N  N37  1  0.12463934  0.08997395  0.08746237  1
  N  N38  1  0.90680676  0.19942503  0.90196569  1
  N  N39  1  0.74330162  0.10702747  0.64704512  1
  N  N40  1  0.57222783  0.22339117  0.31612576  1
  N  N41  1  0.42333090  0.12721101  0.08112649  1
  N  N42  1  0.20756610  0.21128449  0.83259736  1
  N  N43  1  0.13620549  0.08332970  0.57107614  1
  N  N44  1  0.90243635  0.19621951  0.35022490  1
  N  N45  1  0.78359105  0.08712015  0.11262713  1
  N  N46  1  0.50180359  0.23625005  0.83677734  1
  N  N47  1  0.44180079  0.09007942  0.61167558  1
  N  N48  1  0.23789139  0.52864823  0.33399507  1
  N  N49  1  0.12115140  0.41981847  0.07901755  1
  N  N50  1  0.89601483  0.55190347  0.89123271  1
  N  N51  1  0.73893684  0.44654465  0.65352390  1
  N  N52  1  0.57266247  0.53141743  0.36155595  1
  N  N53  1  0.42380832  0.42135894  0.07017594  1
  N  N54  1  0.20725758  0.53728527  0.83038457  1
  N  N55  1  0.14609401  0.40486354  0.57499212  1
  N  N56  1  0.90487710  0.53196007  0.36875417  1
  N  N57  1  0.80291925  0.42036733  0.12743285  1
  N  N58  1  0.48732689  0.57160520  0.83268008  1
  N  N59  1  0.44337899  0.42424698  0.58267373  1
  N  N60  1  0.24136960  0.86594628  0.33210469  1
  N  N61  1  0.12093021  0.75679583  0.13463193  1
  N  N62  1  0.91373115  0.83992541  0.89388592  1
  N  N63  1  0.75206758  0.77796887  0.66467305  1
  N  N64  1  0.58214319  0.83630475  0.33207312  1
  N  N65  1  0.40799004  0.77686911  0.06512959  1
  N  N66  1  0.20763194  0.89224231  0.82574288  1
  N  N67  1  0.13426789  0.74858707  0.63435697  1
  N  N68  1  0.89669874  0.87222871  0.35481518  1
  N  N69  1  0.82276456  0.73806678  0.13144334  1
  N  N70  1  0.53932594  0.88303249  0.86021123  1
  N  N71  1  0.44273939  0.76750619  0.59105860  1
