# generated using pymatgen
data_Gd2Al7N9
_symmetry_space_group_name_H-M   'P 1'
_cell_length_a   10.01013735
_cell_length_b   9.86624577
_cell_length_c   10.44821848
_cell_angle_alpha   90.19056017
_cell_angle_beta   90.56899049
_cell_angle_gamma   60.67494744
_symmetry_Int_Tables_number   1
_chemical_formula_structural   Gd2Al7N9
_chemical_formula_sum   'Gd8 Al28 N36'
_cell_volume   899.61458117
_cell_formula_units_Z   4
loop_
 _symmetry_equiv_pos_site_id
 _symmetry_equiv_pos_as_xyz
  1  'x, y, z'
loop_
 _atom_site_type_symbol
 _atom_site_label
 _atom_site_symmetry_multiplicity
 _atom_site_fract_x
 _atom_site_fract_y
 _atom_site_fract_z
 _atom_site_occupancy
  Al  Al0  1  0.12637316  0.08659378  0.39212873  1
  Al  Al1  1  0.21326945  0.21440787  0.14499012  1
  Al  Al2  1  0.53544788  0.22206046  0.14272231  1
  Al  Al3  1  0.11404748  0.09402353  0.89593651  1
  Al  Al4  1  0.22882642  0.19910556  0.65251560  1
  Al  Al5  1  0.78592142  0.08801432  0.30958658  1
  Al  Al6  1  0.90951306  0.19808659  0.14444249  1
  Al  Al7  1  0.41847796  0.11674037  0.89977316  1
  Al  Al8  1  0.52695055  0.22056635  0.66590495  1
  Al  Al9  1  0.12551731  0.41928047  0.39679749  1
  Al  Al10  1  0.22010553  0.53014534  0.15082590  1
  Al  Al11  1  0.45484200  0.42720568  0.40596481  1
  Al  Al12  1  0.11819607  0.42552986  0.89777173  1
  Al  Al13  1  0.23185456  0.52658810  0.64510634  1
  Al  Al14  1  0.79414327  0.42770251  0.32661863  1
  Al  Al15  1  0.90900044  0.53396446  0.08139504  1
  Al  Al16  1  0.40790186  0.44333919  0.89872108  1
  Al  Al17  1  0.52248686  0.55481903  0.65942932  1
  Al  Al18  1  0.11905121  0.75869605  0.32843640  1
  Al  Al19  1  0.21780071  0.88273707  0.14897895  1
  Al  Al20  1  0.78670618  0.75821933  0.84591815  1
  Al  Al21  1  0.46169417  0.75149442  0.41008091  1
  Al  Al22  1  0.11487527  0.75825362  0.82345645  1
  Al  Al23  1  0.23079594  0.87653099  0.64392590  1
  Al  Al24  1  0.80115670  0.74242938  0.31629585  1
  Al  Al25  1  0.91869929  0.84889905  0.08174957  1
  Al  Al26  1  0.41224794  0.77590330  0.89615516  1
  Al  Al27  1  0.53831758  0.88060476  0.67552383  1
  Gd  Gd28  1  0.76592196  0.09565597  0.87540029  1
  Gd  Gd29  1  0.87873008  0.20995995  0.60864478  1
  Gd  Gd30  1  0.45257602  0.08805689  0.40118178  1
  Gd  Gd31  1  0.75817071  0.43524178  0.87365457  1
  Gd  Gd32  1  0.88273427  0.54035853  0.60239978  1
  Gd  Gd33  1  0.53774823  0.54616892  0.14508107  1
  Gd  Gd34  1  0.88081574  0.87545053  0.58006993  1
  Gd  Gd35  1  0.56222352  0.87324318  0.11195711  1
  N  N36  1  0.20374693  0.21507795  0.32593361  1
  N  N37  1  0.11328205  0.09480398  0.08598303  1
  N  N38  1  0.91692996  0.19079106  0.83425215  1
  N  N39  1  0.73656579  0.10796017  0.64852967  1
  N  N40  1  0.56897180  0.22258947  0.32411802  1
  N  N41  1  0.42149424  0.12686378  0.08845847  1
  N  N42  1  0.21159337  0.21048387  0.83990741  1
  N  N43  1  0.14438975  0.08060751  0.57395882  1
  N  N44  1  0.90317133  0.19590098  0.34011348  1
  N  N45  1  0.78441207  0.09006285  0.11905775  1
  N  N46  1  0.50468888  0.23645413  0.84544006  1
  N  N47  1  0.44211189  0.09010660  0.61884019  1
  N  N48  1  0.23439700  0.52886152  0.33872583  1
  N  N49  1  0.12186718  0.42207743  0.08482488  1
  N  N50  1  0.90000146  0.54802119  0.89169879  1
  N  N51  1  0.73323095  0.45229989  0.65556609  1
  N  N52  1  0.56711375  0.53389105  0.36178543  1
  N  N53  1  0.41792309  0.42419473  0.08001866  1
  N  N54  1  0.20930662  0.53704650  0.83128552  1
  N  N55  1  0.14903263  0.40285996  0.58086423  1
  N  N56  1  0.90201891  0.53330906  0.37859570  1
  N  N57  1  0.80489031  0.42057219  0.13108686  1
  N  N58  1  0.49383949  0.56734560  0.84534941  1
  N  N59  1  0.43946581  0.42784938  0.58930668  1
  N  N60  1  0.23877737  0.86938283  0.33774929  1
  N  N61  1  0.12049901  0.75710001  0.14165867  1
  N  N62  1  0.91594632  0.83966255  0.89736240  1
  N  N63  1  0.75017977  0.77749290  0.66928822  1
  N  N64  1  0.58244802  0.83640043  0.33900316  1
  N  N65  1  0.40519144  0.78271960  0.07327478  1
  N  N66  1  0.21364477  0.88755593  0.83095308  1
  N  N67  1  0.13370580  0.75009953  0.63513012  1
  N  N68  1  0.89490172  0.87205548  0.36104899  1
  N  N69  1  0.82316351  0.73728083  0.13619127  1
  N  N70  1  0.54231239  0.88162869  0.86729560  1
  N  N71  1  0.44269413  0.76663311  0.59694296  1
