# generated using pymatgen
data_Gd2Al7N9
_symmetry_space_group_name_H-M   'P 1'
_cell_length_a   10.03111444
_cell_length_b   9.86927521
_cell_length_c   10.40291796
_cell_angle_alpha   90.16398708
_cell_angle_beta   90.67124855
_cell_angle_gamma   60.73052446
_symmetry_Int_Tables_number   1
_chemical_formula_structural   Gd2Al7N9
_chemical_formula_sum   'Gd8 Al28 N36'
_cell_volume   898.33477614
_cell_formula_units_Z   4
loop_
 _symmetry_equiv_pos_site_id
 _symmetry_equiv_pos_as_xyz
  1  'x, y, z'
loop_
 _atom_site_type_symbol
 _atom_site_label
 _atom_site_symmetry_multiplicity
 _atom_site_fract_x
 _atom_site_fract_y
 _atom_site_fract_z
 _atom_site_occupancy
  Al  Al0  1  0.12636605  0.08698963  0.39963583  1
  Al  Al1  1  0.21267383  0.21475121  0.15200168  1
  Al  Al2  1  0.53421560  0.22286199  0.14996086  1
  Al  Al3  1  0.11424327  0.09304684  0.90292078  1
  Al  Al4  1  0.22878383  0.19908830  0.65978548  1
  Al  Al5  1  0.78554347  0.08845647  0.31719164  1
  Al  Al6  1  0.90993149  0.19781020  0.15157875  1
  Al  Al7  1  0.41792572  0.11683201  0.90723038  1
  Al  Al8  1  0.52621611  0.22102821  0.67309348  1
  Al  Al9  1  0.12530512  0.41930440  0.40428133  1
  Al  Al10  1  0.21952943  0.53135566  0.15917481  1
  Al  Al11  1  0.45541262  0.42724704  0.41288364  1
  Al  Al12  1  0.11876042  0.42592446  0.90448199  1
  Al  Al13  1  0.23216046  0.52709145  0.65062402  1
  Al  Al14  1  0.79430828  0.42804708  0.33381432  1
  Al  Al15  1  0.90962305  0.53408328  0.08850826  1
  Al  Al16  1  0.40754588  0.44371095  0.90581785  1
  Al  Al17  1  0.52364695  0.55429826  0.66673323  1
  Al  Al18  1  0.11917591  0.75871381  0.33895855  1
  Al  Al19  1  0.21740425  0.88222761  0.15743947  1
  Al  Al20  1  0.78640089  0.75850876  0.85378131  1
  Al  Al21  1  0.46232827  0.75116619  0.41709741  1
  Al  Al22  1  0.11423701  0.75869896  0.82957068  1
  Al  Al23  1  0.23087018  0.87615598  0.64955892  1
  Al  Al24  1  0.80086880  0.74269979  0.32376435  1
  Al  Al25  1  0.91833423  0.84945707  0.08981915  1
  Al  Al26  1  0.41178243  0.77553170  0.90322764  1
  Al  Al27  1  0.53777538  0.88072648  0.68263833  1
  Gd  Gd28  1  0.76525231  0.09616163  0.88302011  1
  Gd  Gd29  1  0.87847640  0.20977730  0.61486705  1
  Gd  Gd30  1  0.45226173  0.08836200  0.40757046  1
  Gd  Gd31  1  0.75982732  0.43417268  0.88102689  1
  Gd  Gd32  1  0.88379447  0.54028579  0.61124500  1
  Gd  Gd33  1  0.53890977  0.54528697  0.15025374  1
  Gd  Gd34  1  0.87901365  0.87649394  0.58822856  1
  Gd  Gd35  1  0.56135759  0.87309810  0.11916189  1
  N  N36  1  0.20324729  0.21547126  0.33345869  1
  N  N37  1  0.11336854  0.09423513  0.09366680  1
  N  N38  1  0.91717712  0.18985848  0.84169302  1
  N  N39  1  0.73513147  0.10931780  0.65538319  1
  N  N40  1  0.56922349  0.22272588  0.33172034  1
  N  N41  1  0.42090629  0.12679768  0.09680875  1
  N  N42  1  0.21137614  0.21039852  0.84770597  1
  N  N43  1  0.14388309  0.08108716  0.58186263  1
  N  N44  1  0.90307343  0.19611171  0.34788376  1
  N  N45  1  0.78429156  0.09042140  0.12628861  1
  N  N46  1  0.50405257  0.23666683  0.85343029  1
  N  N47  1  0.44149140  0.09039932  0.62602493  1
  N  N48  1  0.23461557  0.52875441  0.34748251  1
  N  N49  1  0.12187796  0.42284661  0.09230689  1
  N  N50  1  0.90104618  0.54765268  0.89741264  1
  N  N51  1  0.73388768  0.45199573  0.66174557  1
  N  N52  1  0.56734754  0.53398806  0.36801491  1
  N  N53  1  0.41645627  0.42515847  0.08795411  1
  N  N54  1  0.20948706  0.53789982  0.83766327  1
  N  N55  1  0.14932362  0.40276622  0.58860096  1
  N  N56  1  0.90227092  0.53348658  0.38590106  1
  N  N57  1  0.80598443  0.42016843  0.13754809  1
  N  N58  1  0.49573912  0.56620984  0.85381412  1
  N  N59  1  0.43977451  0.42825109  0.59676812  1
  N  N60  1  0.23896597  0.86952309  0.34661642  1
  N  N61  1  0.11930569  0.75775997  0.15075277  1
  N  N62  1  0.91588328  0.84015301  0.90393642  1
  N  N63  1  0.74887751  0.77781557  0.67648913  1
  N  N64  1  0.58287190  0.83638936  0.34687684  1
  N  N65  1  0.40400322  0.78273350  0.08120388  1
  N  N66  1  0.21362392  0.88660477  0.83739897  1
  N  N67  1  0.13320567  0.75041236  0.63915902  1
  N  N68  1  0.89422245  0.87243294  0.36869972  1
  N  N69  1  0.82205654  0.73782742  0.14245604  1
  N  N70  1  0.54145759  0.88177999  0.87494795  1
  N  N71  1  0.44274963  0.76627436  0.60447008  1
