# generated using pymatgen
data_Gd2Al7N9
_symmetry_space_group_name_H-M   'P 1'
_cell_length_a   9.97223352
_cell_length_b   9.86386665
_cell_length_c   10.29049831
_cell_angle_alpha   90.05080659
_cell_angle_beta   89.86986738
_cell_angle_gamma   60.51133730
_symmetry_Int_Tables_number   1
_chemical_formula_structural   Gd2Al7N9
_chemical_formula_sum   'Gd8 Al28 N36'
_cell_volume   881.08772418
_cell_formula_units_Z   4
loop_
 _symmetry_equiv_pos_site_id
 _symmetry_equiv_pos_as_xyz
  1  'x, y, z'
loop_
 _atom_site_type_symbol
 _atom_site_label
 _atom_site_symmetry_multiplicity
 _atom_site_fract_x
 _atom_site_fract_y
 _atom_site_fract_z
 _atom_site_occupancy
  Al  Al0  1  0.12262956  0.08950719  0.39688685  1
  Al  Al1  1  0.21476463  0.21264920  0.14513677  1
  Al  Al2  1  0.53394479  0.22339838  0.15455518  1
  Al  Al3  1  0.11381770  0.09087978  0.90704918  1
  Al  Al4  1  0.23058535  0.19938669  0.66112471  1
  Al  Al5  1  0.76644153  0.10724750  0.38082478  1
  Al  Al6  1  0.90176773  0.20219417  0.17305197  1
  Al  Al7  1  0.42740421  0.11435218  0.89322455  1
  Al  Al8  1  0.53825131  0.21764241  0.65813312  1
  Al  Al9  1  0.12650684  0.41930801  0.39781369  1
  Al  Al10  1  0.21586849  0.53987564  0.14950568  1
  Al  Al11  1  0.43950534  0.43395261  0.41355513  1
  Al  Al12  1  0.11180000  0.43342071  0.90771363  1
  Al  Al13  1  0.23388757  0.53340074  0.65161463  1
  Al  Al14  1  0.76905268  0.43239581  0.40602169  1
  Al  Al15  1  0.91108516  0.52456339  0.17147317  1
  Al  Al16  1  0.42205287  0.43864350  0.89692944  1
  Al  Al17  1  0.53702535  0.54718409  0.64927486  1
  Al  Al18  1  0.13112009  0.75263378  0.39967893  1
  Al  Al19  1  0.21521979  0.87678211  0.15048902  1
  Al  Al20  1  0.78621707  0.75749256  0.87285584  1
  Al  Al21  1  0.44533630  0.76109848  0.41640826  1
  Al  Al22  1  0.11108725  0.75839505  0.90333681  1
  Al  Al23  1  0.23196380  0.86798644  0.65020437  1
  Al  Al24  1  0.77926725  0.75435272  0.37144796  1
  Al  Al25  1  0.90749349  0.86347729  0.17374164  1
  Al  Al26  1  0.42194398  0.76549609  0.89401970  1
  Al  Al27  1  0.54626497  0.87339490  0.66513394  1
  Gd  Gd28  1  0.77019211  0.09137981  0.92084548  1
  Gd  Gd29  1  0.89261839  0.19560544  0.62825185  1
  Gd  Gd30  1  0.44498720  0.09372532  0.41452321  1
  Gd  Gd31  1  0.77243222  0.43536464  0.90492957  1
  Gd  Gd32  1  0.90129987  0.53497228  0.62686010  1
  Gd  Gd33  1  0.54422594  0.54086340  0.16073422  1
  Gd  Gd34  1  0.88812020  0.87517047  0.61966326  1
  Gd  Gd35  1  0.56148182  0.87196577  0.12372992  1
  N  N36  1  0.20277005  0.21498760  0.32845440  1
  N  N37  1  0.10916836  0.09374091  0.09754011  1
  N  N38  1  0.91043091  0.19011985  0.84746341  1
  N  N39  1  0.72667642  0.11884238  0.56875265  1
  N  N40  1  0.55202445  0.23416383  0.33406745  1
  N  N41  1  0.42536075  0.12671613  0.08497738  1
  N  N42  1  0.21065618  0.21208186  0.84996250  1
  N  N43  1  0.15205419  0.07628775  0.58051055  1
  N  N44  1  0.89640517  0.20420461  0.36388935  1
  N  N45  1  0.78053245  0.09297515  0.14231803  1
  N  N46  1  0.52698893  0.22779158  0.84109944  1
  N  N47  1  0.44333597  0.09017295  0.63555586  1
  N  N48  1  0.22699014  0.53793907  0.33789569  1
  N  N49  1  0.11162893  0.42857336  0.09554448  1
  N  N50  1  0.90559127  0.54761214  0.84948810  1
  N  N51  1  0.74487336  0.44317330  0.59441969  1
  N  N52  1  0.54744070  0.54442947  0.37608623  1
  N  N53  1  0.42131861  0.42423663  0.08113695  1
  N  N54  1  0.21286299  0.54415004  0.84156481  1
  N  N55  1  0.16094552  0.39936528  0.58068157  1
  N  N56  1  0.90157635  0.52785105  0.36706114  1
  N  N57  1  0.80419721  0.41573928  0.12688917  1
  N  N58  1  0.51916594  0.55471057  0.83846186  1
  N  N59  1  0.44019659  0.42830990  0.59815564  1
  N  N60  1  0.22989894  0.86982858  0.33967662  1
  N  N61  1  0.11115750  0.76306878  0.09643213  1
  N  N62  1  0.90240225  0.85184285  0.84705248  1
  N  N63  1  0.74021812  0.77788144  0.58841709  1
  N  N64  1  0.56330404  0.84536007  0.34553081  1
  N  N65  1  0.40951583  0.77468449  0.07421413  1
  N  N66  1  0.21138075  0.87845043  0.83882097  1
  N  N67  1  0.15137501  0.74057605  0.58285448  1
  N  N68  1  0.90179802  0.86930180  0.36416960  1
  N  N69  1  0.81789032  0.73945324  0.14668782  1
  N  N70  1  0.55977825  0.86803129  0.86046622  1
  N  N71  1  0.44202155  0.76584859  0.60481088  1
