# generated using pymatgen
data_Gd2Al7N9
_symmetry_space_group_name_H-M   'P 1'
_cell_length_a   9.90299685
_cell_length_b   9.82954838
_cell_length_c   10.72864158
_cell_angle_alpha   90.22908168
_cell_angle_beta   89.16679150
_cell_angle_gamma   60.17934811
_symmetry_Int_Tables_number   1
_chemical_formula_structural   Gd2Al7N9
_chemical_formula_sum   'Gd8 Al28 N36'
_cell_volume   905.88964842
_cell_formula_units_Z   4
loop_
 _symmetry_equiv_pos_site_id
 _symmetry_equiv_pos_as_xyz
  1  'x, y, z'
loop_
 _atom_site_type_symbol
 _atom_site_label
 _atom_site_symmetry_multiplicity
 _atom_site_fract_x
 _atom_site_fract_y
 _atom_site_fract_z
 _atom_site_occupancy
  Al  Al0  1  0.11762900  0.08951252  0.29455180  1
  Al  Al1  1  0.21206576  0.21403986  0.06201025  1
  Al  Al2  1  0.53842419  0.21943695  0.11708678  1
  Al  Al3  1  0.11219142  0.08663644  0.81572654  1
  Al  Al4  1  0.23514349  0.19772096  0.64073678  1
  Al  Al5  1  0.78626143  0.09296293  0.27699903  1
  Al  Al6  1  0.90569763  0.19908312  0.06342442  1
  Al  Al7  1  0.42912363  0.10878317  0.87391787  1
  Al  Al8  1  0.53388567  0.21867502  0.63877309  1
  Al  Al9  1  0.11606169  0.42653248  0.29544600  1
  Al  Al10  1  0.20994050  0.54390066  0.05274642  1
  Al  Al11  1  0.46156212  0.42436272  0.38077598  1
  Al  Al12  1  0.11419349  0.43766464  0.81582493  1
  Al  Al13  1  0.22977871  0.53390569  0.55775089  1
  Al  Al14  1  0.79849336  0.42099404  0.29109752  1
  Al  Al15  1  0.90960181  0.53416296  0.05690835  1
  Al  Al16  1  0.41870320  0.43984285  0.87166800  1
  Al  Al17  1  0.53247132  0.54722888  0.62884766  1
  Al  Al18  1  0.11966927  0.75971014  0.30294703  1
  Al  Al19  1  0.20393868  0.87867870  0.04769046  1
  Al  Al20  1  0.78743295  0.75603081  0.81865961  1
  Al  Al21  1  0.46717402  0.74882459  0.38859620  1
  Al  Al22  1  0.11765339  0.75409154  0.80621827  1
  Al  Al23  1  0.22989428  0.86966420  0.56195374  1
  Al  Al24  1  0.79653012  0.74935779  0.28841062  1
  Al  Al25  1  0.90879289  0.85600718  0.05637174  1
  Al  Al26  1  0.42075836  0.76884204  0.86994896  1
  Al  Al27  1  0.54313543  0.87467253  0.64910448  1
  Gd  Gd28  1  0.76510861  0.09658796  0.84432349  1
  Gd  Gd29  1  0.89091233  0.20183875  0.54538973  1
  Gd  Gd30  1  0.44580477  0.09618286  0.38157194  1
  Gd  Gd31  1  0.76343564  0.44037668  0.83621211  1
  Gd  Gd32  1  0.89486886  0.53322494  0.55505124  1
  Gd  Gd33  1  0.53838943  0.54113414  0.12733848  1
  Gd  Gd34  1  0.88826504  0.87056105  0.55372414  1
  Gd  Gd35  1  0.55517386  0.87389135  0.09798948  1
  N  N36  1  0.19757820  0.21752944  0.33961873  1
  N  N37  1  0.12041074  0.08701209  0.11229522  1
  N  N38  1  0.91555247  0.19517376  0.88733365  1
  N  N39  1  0.75260627  0.10676967  0.62679121  1
  N  N40  1  0.56297660  0.22738780  0.29306781  1
  N  N41  1  0.42935720  0.12461866  0.05358942  1
  N  N42  1  0.21022232  0.21080889  0.85294204  1
  N  N43  1  0.13584327  0.07663692  0.63698645  1
  N  N44  1  0.89269603  0.20049708  0.32721522  1
  N  N45  1  0.78201979  0.08823091  0.09318677  1
  N  N46  1  0.50233645  0.23688995  0.81115500  1
  N  N47  1  0.44586768  0.08813849  0.59649542  1
  N  N48  1  0.21923908  0.54141045  0.36869000  1
  N  N49  1  0.11745014  0.42717599  0.11288340  1
  N  N50  1  0.90509576  0.54931197  0.87658096  1
  N  N51  1  0.75372662  0.43644616  0.62483749  1
  N  N52  1  0.56810300  0.53442745  0.33768350  1
  N  N53  1  0.43017643  0.41689671  0.04871615  1
  N  N54  1  0.20272483  0.55314260  0.87496680  1
  N  N55  1  0.14234235  0.41798721  0.63736335  1
  N  N56  1  0.89722729  0.53727568  0.34142627  1
  N  N57  1  0.80501580  0.41966468  0.10550971  1
  N  N58  1  0.49794601  0.56471762  0.80681365  1
  N  N59  1  0.45161328  0.41891916  0.55923115  1
  N  N60  1  0.22136917  0.87436356  0.37307030  1
  N  N61  1  0.12021236  0.75763151  0.12004136  1
  N  N62  1  0.90724158  0.84341804  0.87446460  1
  N  N63  1  0.76092218  0.76631996  0.64360825  1
  N  N64  1  0.57408840  0.84298923  0.31409108  1
  N  N65  1  0.41792503  0.76848753  0.04474882  1
  N  N66  1  0.20003235  0.87942804  0.86768376  1
  N  N67  1  0.14308461  0.74398870  0.62594591  1
  N  N68  1  0.88886699  0.87727695  0.33721519  1
  N  N69  1  0.81731752  0.74162668  0.11190794  1
  N  N70  1  0.54168550  0.87812957  0.83478398  1
  N  N71  1  0.45267698  0.76063531  0.57046267  1
