# generated using pymatgen
data_Gd2Al7N9
_symmetry_space_group_name_H-M   'P 1'
_cell_length_a   9.90288798
_cell_length_b   9.83055425
_cell_length_c   10.74239639
_cell_angle_alpha   90.18185113
_cell_angle_beta   89.77274158
_cell_angle_gamma   60.29406612
_symmetry_Int_Tables_number   1
_chemical_formula_structural   Gd2Al7N9
_chemical_formula_sum   'Gd8 Al28 N36'
_cell_volume   908.32224158
_cell_formula_units_Z   4
loop_
 _symmetry_equiv_pos_site_id
 _symmetry_equiv_pos_as_xyz
  1  'x, y, z'
loop_
 _atom_site_type_symbol
 _atom_site_label
 _atom_site_symmetry_multiplicity
 _atom_site_fract_x
 _atom_site_fract_y
 _atom_site_fract_z
 _atom_site_occupancy
  Al  Al0  1  0.12689227  0.08273224  0.38794904  1
  Al  Al1  1  0.21908340  0.20637580  0.14529112  1
  Al  Al2  1  0.53970996  0.21887764  0.13835851  1
  Al  Al3  1  0.11429540  0.09611945  0.89958749  1
  Al  Al4  1  0.22616812  0.19556563  0.65664263  1
  Al  Al5  1  0.79410865  0.08836967  0.29696073  1
  Al  Al6  1  0.89808164  0.20358266  0.08248656  1
  Al  Al7  1  0.41522323  0.11688042  0.89763070  1
  Al  Al8  1  0.52386300  0.21980310  0.66153411  1
  Al  Al9  1  0.11772889  0.43206710  0.31701003  1
  Al  Al10  1  0.21094906  0.54133884  0.07065247  1
  Al  Al11  1  0.46613413  0.42090239  0.40264943  1
  Al  Al12  1  0.11523643  0.43523910  0.82746446  1
  Al  Al13  1  0.22872308  0.53346105  0.57344108  1
  Al  Al14  1  0.80467818  0.41679538  0.31128157  1
  Al  Al15  1  0.91510129  0.53114409  0.07552693  1
  Al  Al16  1  0.41718353  0.44098269  0.89260523  1
  Al  Al17  1  0.52578929  0.55175856  0.65263453  1
  Al  Al18  1  0.12455351  0.75469049  0.32152172  1
  Al  Al19  1  0.21251455  0.87813541  0.11098579  1
  Al  Al20  1  0.79050191  0.75580578  0.83964241  1
  Al  Al21  1  0.46341492  0.74842027  0.40884784  1
  Al  Al22  1  0.11761653  0.75473347  0.82343834  1
  Al  Al23  1  0.22890115  0.87379719  0.62455125  1
  Al  Al24  1  0.80055488  0.74515059  0.30666553  1
  Al  Al25  1  0.91131405  0.85449639  0.07480931  1
  Al  Al26  1  0.41295630  0.77541091  0.88629198  1
  Al  Al27  1  0.54163130  0.87897943  0.67191202  1
  Gd  Gd28  1  0.75905381  0.09672987  0.86367066  1
  Gd  Gd29  1  0.86016875  0.21775579  0.56861748  1
  Gd  Gd30  1  0.45631806  0.08767825  0.39947533  1
  Gd  Gd31  1  0.75511606  0.44897163  0.86112567  1
  Gd  Gd32  1  0.88647408  0.53805060  0.57773093  1
  Gd  Gd33  1  0.53636908  0.54515194  0.15158091  1
  Gd  Gd34  1  0.88652262  0.87197651  0.57339022  1
  Gd  Gd35  1  0.55925747  0.87172204  0.11100174  1
  N  N36  1  0.21106365  0.20647341  0.32422746  1
  N  N37  1  0.12062136  0.09246986  0.08578233  1
  N  N38  1  0.90084810  0.20322398  0.90424207  1
  N  N39  1  0.74217643  0.10418567  0.64986661  1
  N  N40  1  0.56962856  0.22300031  0.31515266  1
  N  N41  1  0.42356343  0.12685496  0.07870745  1
  N  N42  1  0.20939412  0.20625141  0.83806956  1
  N  N43  1  0.13075844  0.08911535  0.57469196  1
  N  N44  1  0.90154914  0.19560085  0.35084296  1
  N  N45  1  0.78311795  0.08688709  0.11461986  1
  N  N46  1  0.49527337  0.23884483  0.83402505  1
  N  N47  1  0.44035925  0.08941560  0.61203599  1
  N  N48  1  0.22560880  0.53723307  0.38658278  1
  N  N49  1  0.11911608  0.42951585  0.13660614  1
  N  N50  1  0.90903773  0.54736096  0.89533347  1
  N  N51  1  0.74425808  0.44687998  0.65286863  1
  N  N52  1  0.57558338  0.52898514  0.36210037  1
  N  N53  1  0.43245631  0.41738961  0.07038199  1
  N  N54  1  0.20184398  0.55237848  0.89307255  1
  N  N55  1  0.13828473  0.42044459  0.64714428  1
  N  N56  1  0.90329680  0.53261555  0.36388375  1
  N  N57  1  0.80360195  0.42160974  0.12734638  1
  N  N58  1  0.49084150  0.56916349  0.82865220  1
  N  N59  1  0.45125528  0.41877967  0.58048823  1
  N  N60  1  0.24019153  0.85901046  0.35955389  1
  N  N61  1  0.12039562  0.75447285  0.13806265  1
  N  N62  1  0.91079654  0.84371601  0.89490975  1
  N  N63  1  0.75864471  0.77018242  0.66543805  1
  N  N64  1  0.57937844  0.83675581  0.33176565  1
  N  N65  1  0.41260951  0.77128707  0.05993217  1
  N  N66  1  0.20473745  0.89044598  0.83847888  1
  N  N67  1  0.13983935  0.74066512  0.64217141  1
  N  N68  1  0.89450151  0.87264316  0.35666739  1
  N  N69  1  0.82054064  0.73916584  0.13046055  1
  N  N70  1  0.54254239  0.88068523  0.85861194  1
  N  N71  1  0.44797759  0.76460994  0.59301457  1
