# generated using pymatgen
data_Gd2Al7N9
_symmetry_space_group_name_H-M   'P 1'
_cell_length_a   10.05899422
_cell_length_b   9.85126363
_cell_length_c   10.35543566
_cell_angle_alpha   90.09329213
_cell_angle_beta   90.15753304
_cell_angle_gamma   60.46493117
_symmetry_Int_Tables_number   1
_chemical_formula_structural   Gd2Al7N9
_chemical_formula_sum   'Gd8 Al28 N36'
_cell_volume   892.81090838
_cell_formula_units_Z   4
loop_
 _symmetry_equiv_pos_site_id
 _symmetry_equiv_pos_as_xyz
  1  'x, y, z'
loop_
 _atom_site_type_symbol
 _atom_site_label
 _atom_site_symmetry_multiplicity
 _atom_site_fract_x
 _atom_site_fract_y
 _atom_site_fract_z
 _atom_site_occupancy
  Al  Al0  1  0.11232175  0.09509783  0.30250504  1
  Al  Al1  1  0.22092441  0.21015740  0.05982551  1
  Al  Al2  1  0.53895379  0.21629469  0.13602798  1
  Al  Al3  1  0.12238718  0.08665381  0.81605657  1
  Al  Al4  1  0.21976124  0.20475760  0.56814617  1
  Al  Al5  1  0.79176371  0.08953521  0.28352714  1
  Al  Al6  1  0.90994167  0.20101788  0.06393422  1
  Al  Al7  1  0.41641967  0.10916506  0.80388088  1
  Al  Al8  1  0.53681516  0.22449787  0.62510802  1
  Al  Al9  1  0.10980425  0.42744084  0.30125114  1
  Al  Al10  1  0.21228000  0.54091036  0.06701354  1
  Al  Al11  1  0.44228272  0.43000554  0.33766533  1
  Al  Al12  1  0.12350861  0.42513040  0.81559007  1
  Al  Al13  1  0.23240909  0.53508466  0.55545642  1
  Al  Al14  1  0.78987716  0.42584427  0.29091914  1
  Al  Al15  1  0.91101023  0.53101352  0.05728229  1
  Al  Al16  1  0.41268097  0.44687806  0.83547975  1
  Al  Al17  1  0.55136877  0.54371995  0.54127115  1
  Al  Al18  1  0.11502341  0.76075658  0.30287066  1
  Al  Al19  1  0.21149527  0.87829052  0.05940037  1
  Al  Al20  1  0.79706526  0.75115053  0.81724412  1
  Al  Al21  1  0.44114585  0.76434934  0.30931463  1
  Al  Al22  1  0.12006419  0.75502443  0.81348244  1
  Al  Al23  1  0.23457150  0.86547937  0.56221048  1
  Al  Al24  1  0.79175327  0.75090299  0.28575389  1
  Al  Al25  1  0.90802604  0.85617413  0.05865416  1
  Al  Al26  1  0.42174866  0.76094144  0.80452498  1
  Al  Al27  1  0.55010489  0.86916507  0.63393873  1
  Gd  Gd28  1  0.75950295  0.10043315  0.85168121  1
  Gd  Gd29  1  0.89380149  0.19756426  0.54926274  1
  Gd  Gd30  1  0.45012581  0.08772073  0.35608566  1
  Gd  Gd31  1  0.76826917  0.43716705  0.82104625  1
  Gd  Gd32  1  0.90200917  0.53407861  0.55262132  1
  Gd  Gd33  1  0.54394886  0.53820530  0.08508542  1
  Gd  Gd34  1  0.89012372  0.87257051  0.55980557  1
  Gd  Gd35  1  0.55215688  0.87723836  0.06716367  1
  N  N36  1  0.18211809  0.22547709  0.38381618  1
  N  N37  1  0.11890515  0.09298881  0.11693916  1
  N  N38  1  0.92136408  0.19087804  0.87788750  1
  N  N39  1  0.74872266  0.10983071  0.62629697  1
  N  N40  1  0.58266143  0.21105757  0.31723749  1
  N  N41  1  0.42175058  0.12141442  0.12079463  1
  N  N42  1  0.21801611  0.20643976  0.87240361  1
  N  N43  1  0.14191932  0.07567963  0.63252906  1
  N  N44  1  0.89351631  0.20207514  0.32811970  1
  N  N45  1  0.77871298  0.09234578  0.09323181  1
  N  N46  1  0.50115363  0.23862864  0.81072387  1
  N  N47  1  0.43839081  0.09205573  0.60399075  1
  N  N48  1  0.20984204  0.54431757  0.36697585  1
  N  N49  1  0.11527798  0.42343616  0.11596432  1
  N  N50  1  0.91342920  0.54191734  0.86861680  1
  N  N51  1  0.75227274  0.44099092  0.60350262  1
  N  N52  1  0.56019294  0.54123091  0.34784468  1
  N  N53  1  0.41028917  0.42896653  0.13261882  1
  N  N54  1  0.21107708  0.54620796  0.88026587  1
  N  N55  1  0.14947552  0.41214923  0.63289784  1
  N  N56  1  0.89478299  0.53755376  0.33655697  1
  N  N57  1  0.80658403  0.41850757  0.10288352  1
  N  N58  1  0.51372697  0.55536306  0.86460275  1
  N  N59  1  0.44632180  0.42861093  0.56012471  1
  N  N60  1  0.22056468  0.87561968  0.37336442  1
  N  N61  1  0.11391817  0.76212424  0.11688467  1
  N  N62  1  0.91181464  0.84507361  0.86896660  1
  N  N63  1  0.76045206  0.76683970  0.63790858  1
  N  N64  1  0.58304181  0.83691148  0.32145034  1
  N  N65  1  0.40311568  0.78401232  0.13074197  1
  N  N66  1  0.21947003  0.87200139  0.87241677  1
  N  N67  1  0.14427019  0.74377060  0.62827743  1
  N  N68  1  0.89375991  0.87266684  0.33705656  1
  N  N69  1  0.81169923  0.74353940  0.10345804  1
  N  N70  1  0.54144492  0.87866447  0.83152262  1
  N  N71  1  0.44425171  0.75488403  0.61515945  1
