# generated using pymatgen
data_Gd2Al7N9
_symmetry_space_group_name_H-M   'P 1'
_cell_length_a   9.90496819
_cell_length_b   9.82712314
_cell_length_c   10.72449481
_cell_angle_alpha   90.22640785
_cell_angle_beta   89.17990431
_cell_angle_gamma   60.17789178
_symmetry_Int_Tables_number   1
_chemical_formula_structural   Gd2Al7N9
_chemical_formula_sum   'Gd8 Al28 N36'
_cell_volume   905.48824714
_cell_formula_units_Z   4
loop_
 _symmetry_equiv_pos_site_id
 _symmetry_equiv_pos_as_xyz
  1  'x, y, z'
loop_
 _atom_site_type_symbol
 _atom_site_label
 _atom_site_symmetry_multiplicity
 _atom_site_fract_x
 _atom_site_fract_y
 _atom_site_fract_z
 _atom_site_occupancy
  Al  Al0  1  0.11766236  0.09008020  0.29522548  1
  Al  Al1  1  0.21152188  0.21433248  0.05715790  1
  Al  Al2  1  0.53850891  0.21934482  0.11694224  1
  Al  Al3  1  0.11272311  0.08741288  0.81588559  1
  Al  Al4  1  0.23430512  0.19801514  0.63250813  1
  Al  Al5  1  0.78635513  0.09305530  0.27687801  1
  Al  Al6  1  0.90601394  0.19908099  0.06365241  1
  Al  Al7  1  0.42923008  0.10867810  0.87371971  1
  Al  Al8  1  0.53393278  0.21870541  0.63866593  1
  Al  Al9  1  0.11609901  0.42589407  0.29610967  1
  Al  Al10  1  0.20992210  0.54353267  0.05302920  1
  Al  Al11  1  0.46144850  0.42448517  0.38077398  1
  Al  Al12  1  0.11480776  0.43639249  0.81593435  1
  Al  Al13  1  0.22981554  0.53399913  0.55777254  1
  Al  Al14  1  0.79819457  0.42120401  0.29110407  1
  Al  Al15  1  0.91000066  0.53385755  0.05714998  1
  Al  Al16  1  0.41849942  0.43986359  0.87163693  1
  Al  Al17  1  0.53247519  0.54720800  0.62888622  1
  Al  Al18  1  0.11958677  0.75974840  0.30299325  1
  Al  Al19  1  0.20389051  0.87908872  0.04797601  1
  Al  Al20  1  0.78774680  0.75581982  0.81865934  1
  Al  Al21  1  0.46701717  0.74891308  0.38854106  1
  Al  Al22  1  0.11762985  0.75412691  0.80645048  1
  Al  Al23  1  0.22994686  0.86943827  0.56202027  1
  Al  Al24  1  0.79658141  0.74930274  0.28827410  1
  Al  Al25  1  0.90898233  0.85597116  0.05637908  1
  Al  Al26  1  0.42048275  0.76891211  0.86991046  1
  Al  Al27  1  0.54317246  0.87455277  0.64905879  1
  Gd  Gd28  1  0.76508199  0.09674002  0.84455066  1
  Gd  Gd29  1  0.89072647  0.20195305  0.54531339  1
  Gd  Gd30  1  0.44682333  0.09571227  0.38058505  1
  Gd  Gd31  1  0.76337429  0.44047148  0.83647186  1
  Gd  Gd32  1  0.89467826  0.53327779  0.55497101  1
  Gd  Gd33  1  0.53827497  0.54114601  0.12729109  1
  Gd  Gd34  1  0.88824698  0.87058677  0.55378259  1
  Gd  Gd35  1  0.55551595  0.87356137  0.09748145  1
  N  N36  1  0.19614943  0.21819440  0.34589685  1
  N  N37  1  0.12081531  0.08754281  0.11301249  1
  N  N38  1  0.91570583  0.19517547  0.88732745  1
  N  N39  1  0.75258113  0.10683478  0.62679674  1
  N  N40  1  0.56314328  0.22767106  0.29292697  1
  N  N41  1  0.42977855  0.12428246  0.05400748  1
  N  N42  1  0.20935772  0.21137127  0.85804903  1
  N  N43  1  0.13603831  0.07684980  0.63713393  1
  N  N44  1  0.89252286  0.20068158  0.32718048  1
  N  N45  1  0.78226186  0.08820466  0.09312019  1
  N  N46  1  0.50218348  0.23684266  0.81095541  1
  N  N47  1  0.44644811  0.08785178  0.59563309  1
  N  N48  1  0.21910992  0.54142525  0.36886625  1
  N  N49  1  0.11794332  0.42614515  0.11360267  1
  N  N50  1  0.90539205  0.54906188  0.87655556  1
  N  N51  1  0.75363838  0.43650216  0.62483840  1
  N  N52  1  0.56792457  0.53453814  0.33773704  1
  N  N53  1  0.43015390  0.41685756  0.04864844  1
  N  N54  1  0.20253774  0.55293886  0.87502017  1
  N  N55  1  0.14250082  0.41754391  0.63743468  1
  N  N56  1  0.89699503  0.53738402  0.34139555  1
  N  N57  1  0.80481720  0.41984132  0.10544667  1
  N  N58  1  0.49781705  0.56471156  0.80680797  1
  N  N59  1  0.45154227  0.41898273  0.55926427  1
  N  N60  1  0.22122003  0.87441850  0.37328542  1
  N  N61  1  0.12032421  0.75760318  0.12009642  1
  N  N62  1  0.90724350  0.84350605  0.87440526  1
  N  N63  1  0.76089506  0.76632247  0.64357296  1
  N  N64  1  0.57415804  0.84266971  0.31377581  1
  N  N65  1  0.41779316  0.76851967  0.04471014  1
  N  N66  1  0.19982875  0.87985338  0.86769811  1
  N  N67  1  0.14305458  0.74398871  0.62608621  1
  N  N68  1  0.88872806  0.87737603  0.33725300  1
  N  N69  1  0.81767382  0.74146763  0.11181566  1
  N  N70  1  0.54154489  0.87817505  0.83460454  1
  N  N71  1  0.45261911  0.76068715  0.57049372  1
