# generated using pymatgen
data_Gd2Al7N9
_symmetry_space_group_name_H-M   'P 1'
_cell_length_a   9.92637728
_cell_length_b   9.82934707
_cell_length_c   10.33776984
_cell_angle_alpha   90.13783414
_cell_angle_beta   89.91294405
_cell_angle_gamma   60.58863921
_symmetry_Int_Tables_number   1
_chemical_formula_structural   Gd2Al7N9
_chemical_formula_sum   'Gd8 Al28 N36'
_cell_volume   878.64851747
_cell_formula_units_Z   4
loop_
 _symmetry_equiv_pos_site_id
 _symmetry_equiv_pos_as_xyz
  1  'x, y, z'
loop_
 _atom_site_type_symbol
 _atom_site_label
 _atom_site_symmetry_multiplicity
 _atom_site_fract_x
 _atom_site_fract_y
 _atom_site_fract_z
 _atom_site_occupancy
  Al  Al0  1  0.12158692  0.08959192  0.40173982  1
  Al  Al1  1  0.21229831  0.21469621  0.15094034  1
  Al  Al2  1  0.53475569  0.22269122  0.16035218  1
  Al  Al3  1  0.11475864  0.08989305  0.91184087  1
  Al  Al4  1  0.23192998  0.19845807  0.66732509  1
  Al  Al5  1  0.76635332  0.10421132  0.38679796  1
  Al  Al6  1  0.90009508  0.20283327  0.17919155  1
  Al  Al7  1  0.43081291  0.11015327  0.89820988  1
  Al  Al8  1  0.54072819  0.21677570  0.66393841  1
  Al  Al9  1  0.12127671  0.42290635  0.40178843  1
  Al  Al10  1  0.21724656  0.53907769  0.15575500  1
  Al  Al11  1  0.43951169  0.43370007  0.41869557  1
  Al  Al12  1  0.11496719  0.43027115  0.91467360  1
  Al  Al13  1  0.23432128  0.53301448  0.65641355  1
  Al  Al14  1  0.76991190  0.43554620  0.41037120  1
  Al  Al15  1  0.90547884  0.53212091  0.17117766  1
  Al  Al16  1  0.42373117  0.43793167  0.90207871  1
  Al  Al17  1  0.53894951  0.54705389  0.65453523  1
  Al  Al18  1  0.12594258  0.75343614  0.40362067  1
  Al  Al19  1  0.21268231  0.87731265  0.15608823  1
  Al  Al20  1  0.80050299  0.74887116  0.91940076  1
  Al  Al21  1  0.44398154  0.76113464  0.42262086  1
  Al  Al22  1  0.11429206  0.75705248  0.91010894  1
  Al  Al23  1  0.23335874  0.86767744  0.65556170  1
  Al  Al24  1  0.77153000  0.75865831  0.40457983  1
  Al  Al25  1  0.90194517  0.86210382  0.17345864  1
  Al  Al26  1  0.42530095  0.76668144  0.89883594  1
  Al  Al27  1  0.55172808  0.87141641  0.67491485  1
  Gd  Gd28  1  0.77134001  0.09086210  0.92639105  1
  Gd  Gd29  1  0.89405900  0.19743459  0.63162860  1
  Gd  Gd30  1  0.44099868  0.09583083  0.42217695  1
  Gd  Gd31  1  0.77259103  0.43291733  0.91160858  1
  Gd  Gd32  1  0.90237302  0.53812721  0.64381184  1
  Gd  Gd33  1  0.54290050  0.54289187  0.16688840  1
  Gd  Gd34  1  0.88942445  0.87488386  0.63805231  1
  Gd  Gd35  1  0.55374560  0.87657777  0.13384491  1
  N  N36  1  0.19972019  0.21697124  0.33334043  1
  N  N37  1  0.10731883  0.09436180  0.10222168  1
  N  N38  1  0.91183678  0.18854551  0.84962497  1
  N  N39  1  0.73051456  0.11562479  0.57447687  1
  N  N40  1  0.55122917  0.23275456  0.34005040  1
  N  N41  1  0.42284205  0.12906568  0.08947792  1
  N  N42  1  0.21258559  0.21044852  0.85504463  1
  N  N43  1  0.15441246  0.07518589  0.58441239  1
  N  N44  1  0.89542662  0.20436758  0.36907428  1
  N  N45  1  0.77837047  0.09367575  0.14655427  1
  N  N46  1  0.52867860  0.22707421  0.84598164  1
  N  N47  1  0.44591027  0.08896577  0.64197245  1
  N  N48  1  0.22670824  0.53781710  0.34346161  1
  N  N49  1  0.11069793  0.43033433  0.10200372  1
  N  N50  1  0.90765811  0.54431362  0.86031374  1
  N  N51  1  0.74770761  0.44620855  0.59803695  1
  N  N52  1  0.54747136  0.54458872  0.38149888  1
  N  N53  1  0.42248318  0.42392379  0.08614809  1
  N  N54  1  0.21432359  0.54280140  0.84600169  1
  N  N55  1  0.15796177  0.39975715  0.58491801  1
  N  N56  1  0.89638467  0.53745890  0.36479313  1
  N  N57  1  0.80268753  0.41645525  0.13209523  1
  N  N58  1  0.52012181  0.55486809  0.84256375  1
  N  N59  1  0.44124016  0.42769577  0.60274103  1
  N  N60  1  0.22777860  0.86997047  0.34476716  1
  N  N61  1  0.11060491  0.76173212  0.10306102  1
  N  N62  1  0.90491721  0.84888842  0.85757966  1
  N  N63  1  0.74170459  0.77876138  0.58621553  1
  N  N64  1  0.56292351  0.84595476  0.35078237  1
  N  N65  1  0.40692321  0.77601146  0.07854414  1
  N  N66  1  0.21318662  0.87746836  0.84342085  1
  N  N67  1  0.14830588  0.74219226  0.58686386  1
  N  N68  1  0.89510195  0.86550915  0.36234794  1
  N  N69  1  0.81412887  0.74199253  0.10564523  1
  N  N70  1  0.56334258  0.86646937  0.86769641  1
  N  N71  1  0.44428853  0.76568698  0.61027320  1
