# generated using pymatgen
data_Gd2Al7N9
_symmetry_space_group_name_H-M   'P 1'
_cell_length_a   9.92644700
_cell_length_b   9.82936100
_cell_length_c   10.33773428
_cell_angle_alpha   90.13742632
_cell_angle_beta   89.91280354
_cell_angle_gamma   60.58813165
_symmetry_Int_Tables_number   1
_chemical_formula_structural   Gd2Al7N9
_chemical_formula_sum   'Gd8 Al28 N36'
_cell_volume   878.64854236
_cell_formula_units_Z   4
loop_
 _symmetry_equiv_pos_site_id
 _symmetry_equiv_pos_as_xyz
  1  'x, y, z'
loop_
 _atom_site_type_symbol
 _atom_site_label
 _atom_site_symmetry_multiplicity
 _atom_site_fract_x
 _atom_site_fract_y
 _atom_site_fract_z
 _atom_site_occupancy
  Al  Al0  1  0.12166235  0.08952543  0.39719719  1
  Al  Al1  1  0.21237416  0.21462842  0.14639829  1
  Al  Al2  1  0.53482880  0.22262332  0.15580575  1
  Al  Al3  1  0.11483308  0.08982912  0.90730297  1
  Al  Al4  1  0.23200350  0.19839193  0.66278009  1
  Al  Al5  1  0.76642739  0.10414390  0.38225419  1
  Al  Al6  1  0.90017081  0.20276714  0.17465197  1
  Al  Al7  1  0.43088688  0.11008417  0.89366927  1
  Al  Al8  1  0.54080048  0.21670721  0.65939859  1
  Al  Al9  1  0.12135313  0.42283893  0.39724445  1
  Al  Al10  1  0.21732074  0.53901150  0.15121541  1
  Al  Al11  1  0.43958664  0.43363253  0.41415229  1
  Al  Al12  1  0.11504241  0.43020629  0.91013222  1
  Al  Al13  1  0.23439349  0.53294954  0.65187118  1
  Al  Al14  1  0.76998495  0.43547828  0.40582791  1
  Al  Al15  1  0.90555472  0.53205416  0.16663846  1
  Al  Al16  1  0.42380354  0.43786452  0.89753353  1
  Al  Al17  1  0.53902259  0.54698544  0.64999807  1
  Al  Al18  1  0.12601568  0.75337108  0.39907972  1
  Al  Al19  1  0.21275705  0.87724477  0.15155108  1
  Al  Al20  1  0.80057871  0.74880690  0.91485830  1
  Al  Al21  1  0.44405557  0.76106597  0.41807961  1
  Al  Al22  1  0.11436546  0.75698839  0.90556742  1
  Al  Al23  1  0.23343159  0.86761214  0.65102406  1
  Al  Al24  1  0.77160394  0.75859016  0.40003840  1
  Al  Al25  1  0.90202001  0.86203758  0.16891458  1
  Al  Al26  1  0.42537418  0.76661370  0.89430057  1
  Al  Al27  1  0.55179993  0.87134726  0.67037167  1
  Gd  Gd28  1  0.77141443  0.09080177  0.92184875  1
  Gd  Gd29  1  0.89413203  0.19736412  0.62708713  1
  Gd  Gd30  1  0.44107680  0.09576239  0.41763282  1
  Gd  Gd31  1  0.77266788  0.43285641  0.90706681  1
  Gd  Gd32  1  0.90244719  0.53805491  0.63926587  1
  Gd  Gd33  1  0.54297678  0.54281703  0.16234412  1
  Gd  Gd34  1  0.88949544  0.87481404  0.63350994  1
  Gd  Gd35  1  0.55382261  0.87650554  0.12930297  1
  N  N36  1  0.19979706  0.21690315  0.32879887  1
  N  N37  1  0.10739465  0.09429520  0.09768341  1
  N  N38  1  0.91191203  0.18848440  0.84508496  1
  N  N39  1  0.73058635  0.11555671  0.56993492  1
  N  N40  1  0.55130383  0.23268816  0.33550479  1
  N  N41  1  0.42291756  0.12899496  0.08493723  1
  N  N42  1  0.21266034  0.21038257  0.85050273  1
  N  N43  1  0.15448454  0.07512138  0.57987116  1
  N  N44  1  0.89550122  0.20429965  0.36453341  1
  N  N45  1  0.77844616  0.09361079  0.14201200  1
  N  N46  1  0.52875119  0.22700514  0.84144148  1
  N  N47  1  0.44598368  0.08889788  0.63742915  1
  N  N48  1  0.22678278  0.53775120  0.33892111  1
  N  N49  1  0.11077308  0.43026821  0.09746338  1
  N  N50  1  0.90773517  0.54425062  0.85576849  1
  N  N51  1  0.74777935  0.44613922  0.59349532  1
  N  N52  1  0.54754533  0.54452064  0.37695467  1
  N  N53  1  0.42255398  0.42385634  0.08160330  1
  N  N54  1  0.21439649  0.54273734  0.84145898  1
  N  N55  1  0.15803644  0.39969241  0.58037457  1
  N  N56  1  0.89646000  0.53739013  0.36025297  1
  N  N57  1  0.80276440  0.41638989  0.12755422  1
  N  N58  1  0.52019641  0.55479973  0.83802629  1
  N  N59  1  0.44131333  0.42762930  0.59819986  1
  N  N60  1  0.22785221  0.86990376  0.34022806  1
  N  N61  1  0.11067969  0.76166645  0.09852028  1
  N  N62  1  0.90498996  0.84882771  0.85303923  1
  N  N63  1  0.74177680  0.77869169  0.58167402  1
  N  N64  1  0.56299823  0.84588521  0.34624088  1
  N  N65  1  0.40699806  0.77594166  0.07400850  1
  N  N66  1  0.21326091  0.87740315  0.83888341  1
  N  N67  1  0.14837733  0.74212969  0.58232395  1
  N  N68  1  0.89517541  0.86544140  0.35780537  1
  N  N69  1  0.81420551  0.74192597  0.10110348  1
  N  N70  1  0.56341571  0.86639999  0.86315560  1
  N  N71  1  0.44436071  0.76561883  0.60573243  1
