# generated using pymatgen
data_Gd2Al7N9
_symmetry_space_group_name_H-M   'P 1'
_cell_length_a   10.11203411
_cell_length_b   9.87674613
_cell_length_c   10.21428983
_cell_angle_alpha   89.96635057
_cell_angle_beta   90.71604947
_cell_angle_gamma   60.84207603
_symmetry_Int_Tables_number   1
_chemical_formula_structural   Gd2Al7N9
_chemical_formula_sum   'Gd8 Al28 N36'
_cell_volume   890.77404085
_cell_formula_units_Z   4
loop_
 _symmetry_equiv_pos_site_id
 _symmetry_equiv_pos_as_xyz
  1  'x, y, z'
loop_
 _atom_site_type_symbol
 _atom_site_label
 _atom_site_symmetry_multiplicity
 _atom_site_fract_x
 _atom_site_fract_y
 _atom_site_fract_z
 _atom_site_occupancy
  Al  Al0  1  0.12695653  0.08602069  0.39938585  1
  Al  Al1  1  0.21330148  0.21343198  0.14995039  1
  Al  Al2  1  0.52947079  0.22551515  0.15180308  1
  Al  Al3  1  0.11450664  0.09060991  0.90201407  1
  Al  Al4  1  0.22766519  0.20078253  0.65807589  1
  Al  Al5  1  0.78089967  0.09783432  0.33048535  1
  Al  Al6  1  0.91182828  0.19670749  0.15413361  1
  Al  Al7  1  0.41742304  0.11719253  0.90353966  1
  Al  Al8  1  0.52629117  0.22181651  0.67045025  1
  Al  Al9  1  0.12557599  0.42037057  0.40218060  1
  Al  Al10  1  0.21665355  0.53862433  0.15456213  1
  Al  Al11  1  0.45365648  0.42895457  0.41307694  1
  Al  Al12  1  0.11630900  0.42987715  0.90172063  1
  Al  Al13  1  0.23055339  0.53494689  0.65017561  1
  Al  Al14  1  0.79079131  0.42811686  0.33798195  1
  Al  Al15  1  0.91267934  0.53243752  0.10165464  1
  Al  Al16  1  0.40979546  0.44243856  0.90331219  1
  Al  Al17  1  0.52684632  0.55187025  0.66562076  1
  Al  Al18  1  0.13821507  0.74967948  0.40100528  1
  Al  Al19  1  0.21632040  0.87788408  0.15388142  1
  Al  Al20  1  0.78298456  0.75927225  0.84195253  1
  Al  Al21  1  0.46152268  0.75052559  0.41583509  1
  Al  Al22  1  0.11138163  0.75870827  0.90042449  1
  Al  Al23  1  0.22938161  0.86986310  0.64886898  1
  Al  Al24  1  0.79559550  0.74182452  0.33194687  1
  Al  Al25  1  0.91589757  0.85909146  0.15531702  1
  Al  Al26  1  0.41217006  0.77429634  0.89981840  1
  Al  Al27  1  0.53249633  0.88212083  0.67614738  1
  Gd  Gd28  1  0.76665831  0.09197924  0.89115656  1
  Gd  Gd29  1  0.88186254  0.20689422  0.61743800  1
  Gd  Gd30  1  0.45049671  0.08817485  0.40534326  1
  Gd  Gd31  1  0.76414258  0.43305155  0.88360883  1
  Gd  Gd32  1  0.88632750  0.53702128  0.61354485  1
  Gd  Gd33  1  0.54041963  0.54436681  0.14531373  1
  Gd  Gd34  1  0.88423541  0.87393346  0.61062126  1
  Gd  Gd35  1  0.56467100  0.87123565  0.11443916  1
  N  N36  1  0.20262639  0.21561916  0.33400510  1
  N  N37  1  0.11365902  0.09305980  0.09538403  1
  N  N38  1  0.91641488  0.18771301  0.84659904  1
  N  N39  1  0.73080441  0.11393176  0.64451269  1
  N  N40  1  0.56665709  0.22501399  0.33508913  1
  N  N41  1  0.42141126  0.12523348  0.09815575  1
  N  N42  1  0.21039743  0.21096453  0.84871437  1
  N  N43  1  0.14634863  0.07781991  0.58373064  1
  N  N44  1  0.90232259  0.19855050  0.35355561  1
  N  N45  1  0.78662889  0.09015131  0.13431906  1
  N  N46  1  0.50639097  0.23504711  0.85375697  1
  N  N47  1  0.43749466  0.09378416  0.62571339  1
  N  N48  1  0.23279309  0.53388620  0.34282143  1
  N  N49  1  0.12153623  0.42386677  0.09262257  1
  N  N50  1  0.90249072  0.54877748  0.88633860  1
  N  N51  1  0.73501678  0.44937038  0.65776590  1
  N  N52  1  0.56585259  0.53431047  0.36735848  1
  N  N53  1  0.41481488  0.42639726  0.08866996  1
  N  N54  1  0.20888288  0.54626438  0.83995017  1
  N  N55  1  0.15025421  0.40617071  0.58905829  1
  N  N56  1  0.90397399  0.53008448  0.38144665  1
  N  N57  1  0.80675912  0.41871597  0.13826759  1
  N  N58  1  0.50186942  0.56293977  0.85675383  1
  N  N59  1  0.43816206  0.42989981  0.59899090  1
  N  N60  1  0.23644768  0.86704350  0.34266360  1
  N  N61  1  0.11807121  0.75918955  0.09699073  1
  N  N62  1  0.90819319  0.84659642  0.85160800  1
  N  N63  1  0.73833395  0.77732807  0.65892780  1
  N  N64  1  0.58105099  0.83589483  0.34712873  1
  N  N65  1  0.40498767  0.78382005  0.08163295  1
  N  N66  1  0.21004257  0.87931577  0.83867735  1
  N  N67  1  0.14839359  0.74304928  0.58501926  1
  N  N68  1  0.90347631  0.86970605  0.35704270  1
  N  N69  1  0.82239762  0.73839706  0.14625640  1
  N  N70  1  0.54098070  0.88116011  0.87062139  1
  N  N71  1  0.44015106  0.76568572  0.60531754  1
