# generated using pymatgen
data_Gd2Al7N9
_symmetry_space_group_name_H-M   'P 1'
_cell_length_a   9.92662374
_cell_length_b   9.84045103
_cell_length_c   10.68370988
_cell_angle_alpha   90.40308826
_cell_angle_beta   90.18571137
_cell_angle_gamma   60.39734847
_symmetry_Int_Tables_number   1
_chemical_formula_structural   Gd2Al7N9
_chemical_formula_sum   'Gd8 Al28 N36'
_cell_volume   907.36813504
_cell_formula_units_Z   4
loop_
 _symmetry_equiv_pos_site_id
 _symmetry_equiv_pos_as_xyz
  1  'x, y, z'
loop_
 _atom_site_type_symbol
 _atom_site_label
 _atom_site_symmetry_multiplicity
 _atom_site_fract_x
 _atom_site_fract_y
 _atom_site_fract_z
 _atom_site_occupancy
  Al  Al0  1  0.12755781  0.08410804  0.38763913  1
  Al  Al1  1  0.21800726  0.20931887  0.14310256  1
  Al  Al2  1  0.54065132  0.21935821  0.13844173  1
  Al  Al3  1  0.11851428  0.09057742  0.90164493  1
  Al  Al4  1  0.22419445  0.20044090  0.65110819  1
  Al  Al5  1  0.79519763  0.08864718  0.29758578  1
  Al  Al6  1  0.90205105  0.20083306  0.08251757  1
  Al  Al7  1  0.41672350  0.11659394  0.89585232  1
  Al  Al8  1  0.52498963  0.21976985  0.66095782  1
  Al  Al9  1  0.12083459  0.42655662  0.34332248  1
  Al  Al10  1  0.21225708  0.54495922  0.07373071  1
  Al  Al11  1  0.46894277  0.42095728  0.40127446  1
  Al  Al12  1  0.11157325  0.42732911  0.87643792  1
  Al  Al13  1  0.22992594  0.53153431  0.56950665  1
  Al  Al14  1  0.80358285  0.41652409  0.31118014  1
  Al  Al15  1  0.90717372  0.53433947  0.08060282  1
  Al  Al16  1  0.41662903  0.44102882  0.89259075  1
  Al  Al17  1  0.52447631  0.55237144  0.65162889  1
  Al  Al18  1  0.12136708  0.75249834  0.31925357  1
  Al  Al19  1  0.21946982  0.88129992  0.14670084  1
  Al  Al20  1  0.78793642  0.75730523  0.83968319  1
  Al  Al21  1  0.46281928  0.75088118  0.40631975  1
  Al  Al22  1  0.11689777  0.75160578  0.82107477  1
  Al  Al23  1  0.22914381  0.87529846  0.64308382  1
  Al  Al24  1  0.79984570  0.74721306  0.30676861  1
  Al  Al25  1  0.91404176  0.85385282  0.07471410  1
  Al  Al26  1  0.40944005  0.77661802  0.88975260  1
  Al  Al27  1  0.53937302  0.87913467  0.67121098  1
  Gd  Gd28  1  0.76021722  0.09557896  0.86490353  1
  Gd  Gd29  1  0.86573410  0.21444909  0.57193278  1
  Gd  Gd30  1  0.45754612  0.08865323  0.40011582  1
  Gd  Gd31  1  0.75329678  0.44579406  0.86134453  1
  Gd  Gd32  1  0.88110430  0.54059776  0.57809231  1
  Gd  Gd33  1  0.53621146  0.54790101  0.14876262  1
  Gd  Gd34  1  0.88604770  0.87142912  0.57534260  1
  Gd  Gd35  1  0.55845261  0.87365773  0.10820349  1
  N  N36  1  0.21160807  0.20810884  0.32254169  1
  N  N37  1  0.12360554  0.08919347  0.08713344  1
  N  N38  1  0.90543206  0.19949350  0.90257275  1
  N  N39  1  0.74280397  0.10475872  0.64966030  1
  N  N40  1  0.57229139  0.22199494  0.31599760  1
  N  N41  1  0.42434053  0.12768959  0.07873798  1
  N  N42  1  0.20789346  0.20884594  0.83729975  1
  N  N43  1  0.13630819  0.08110787  0.57220912  1
  N  N44  1  0.90231553  0.19641519  0.35225956  1
  N  N45  1  0.78482216  0.08652310  0.11427837  1
  N  N46  1  0.49701986  0.23885961  0.83450928  1
  N  N47  1  0.44104562  0.08858068  0.61339056  1
  N  N48  1  0.23090625  0.53897088  0.38092410  1
  N  N49  1  0.11876355  0.42398864  0.10978691  1
  N  N50  1  0.89871121  0.55163377  0.89812441  1
  N  N51  1  0.74217795  0.44528209  0.65292036  1
  N  N52  1  0.57502248  0.53140313  0.36037490  1
  N  N53  1  0.43229146  0.41823355  0.07166039  1
  N  N54  1  0.20239241  0.55228671  0.89230712  1
  N  N55  1  0.13861541  0.41003876  0.60512721  1
  N  N56  1  0.90291694  0.53369415  0.36069504  1
  N  N57  1  0.80231846  0.41972797  0.12735757  1
  N  N58  1  0.48921790  0.57067655  0.83016799  1
  N  N59  1  0.45167227  0.41859172  0.57967437  1
  N  N60  1  0.24156004  0.86517612  0.33185262  1
  N  N61  1  0.12010845  0.75525443  0.13864602  1
  N  N62  1  0.91227725  0.84231115  0.89341422  1
  N  N63  1  0.75507053  0.77306995  0.66596535  1
  N  N64  1  0.57989597  0.83840527  0.33233132  1
  N  N65  1  0.40530261  0.77751591  0.06281234  1
  N  N66  1  0.20774818  0.89140687  0.82514588  1
  N  N67  1  0.14005373  0.73798831  0.63994469  1
  N  N68  1  0.89578448  0.87280034  0.35803583  1
  N  N69  1  0.81922019  0.74211205  0.13093210  1
  N  N70  1  0.54042492  0.88164025  0.85991422  1
  N  N71  1  0.44363745  0.76524648  0.59051866  1
