# generated using pymatgen
data_Gd2Al7N9
_symmetry_space_group_name_H-M   'P 1'
_cell_length_a   10.03948894
_cell_length_b   9.83194842
_cell_length_c   10.49981411
_cell_angle_alpha   90.05168226
_cell_angle_beta   90.07548264
_cell_angle_gamma   60.23595889
_symmetry_Int_Tables_number   1
_chemical_formula_structural   Gd2Al7N9
_chemical_formula_sum   'Gd8 Al28 N36'
_cell_volume   899.68556886
_cell_formula_units_Z   4
loop_
 _symmetry_equiv_pos_site_id
 _symmetry_equiv_pos_as_xyz
  1  'x, y, z'
loop_
 _atom_site_type_symbol
 _atom_site_label
 _atom_site_symmetry_multiplicity
 _atom_site_fract_x
 _atom_site_fract_y
 _atom_site_fract_z
 _atom_site_occupancy
  Al  Al0  1  0.11218956  0.09414128  0.30292348  1
  Al  Al1  1  0.21140636  0.21246908  0.05854153  1
  Al  Al2  1  0.54047806  0.21315241  0.11978888  1
  Al  Al3  1  0.12255734  0.08865874  0.81319951  1
  Al  Al4  1  0.22338740  0.20365316  0.56620511  1
  Al  Al5  1  0.78845173  0.09314069  0.27813924  1
  Al  Al6  1  0.91093805  0.19832748  0.06193819  1
  Al  Al7  1  0.42327141  0.11290144  0.87666540  1
  Al  Al8  1  0.52745568  0.22082935  0.63347502  1
  Al  Al9  1  0.11228900  0.42725683  0.30399082  1
  Al  Al10  1  0.20599803  0.54242600  0.05760113  1
  Al  Al11  1  0.45756894  0.42585293  0.37153194  1
  Al  Al12  1  0.12326206  0.42668712  0.80978241  1
  Al  Al13  1  0.22880671  0.53746500  0.55626022  1
  Al  Al14  1  0.79031390  0.42681974  0.28866990  1
  Al  Al15  1  0.91632312  0.52941508  0.05666140  1
  Al  Al16  1  0.41633013  0.43577897  0.87746180  1
  Al  Al17  1  0.54193322  0.54707499  0.59080995  1
  Al  Al18  1  0.11778835  0.75926897  0.30198037  1
  Al  Al19  1  0.21094031  0.87722224  0.05757663  1
  Al  Al20  1  0.79675643  0.75366739  0.81845169  1
  Al  Al21  1  0.44246137  0.75957296  0.30669736  1
  Al  Al22  1  0.11988183  0.75574215  0.80936610  1
  Al  Al23  1  0.23274757  0.86916798  0.56235352  1
  Al  Al24  1  0.79629290  0.74972052  0.28449906  1
  Al  Al25  1  0.91000569  0.85704789  0.05555093  1
  Al  Al26  1  0.42117027  0.76395266  0.81256144  1
  Al  Al27  1  0.54133119  0.88615242  0.64793578  1
  Gd  Gd28  1  0.76096025  0.10132072  0.84630167  1
  Gd  Gd29  1  0.88794734  0.20259769  0.54860662  1
  Gd  Gd30  1  0.45404028  0.08535677  0.36000394  1
  Gd  Gd31  1  0.77290903  0.43617242  0.83091134  1
  Gd  Gd32  1  0.89195813  0.53997856  0.55500527  1
  Gd  Gd33  1  0.54598369  0.53043378  0.09331805  1
  Gd  Gd34  1  0.88484998  0.87575978  0.55756185  1
  Gd  Gd35  1  0.56315842  0.85790961  0.07343534  1
  N  N36  1  0.18733464  0.22160717  0.37895341  1
  N  N37  1  0.11876099  0.09142240  0.11936078  1
  N  N38  1  0.92372785  0.18734013  0.88019127  1
  N  N39  1  0.74417385  0.11340561  0.62513164  1
  N  N40  1  0.57028384  0.22193721  0.29748386  1
  N  N41  1  0.43101326  0.11448755  0.06869196  1
  N  N42  1  0.20812466  0.21343242  0.87397994  1
  N  N43  1  0.13784203  0.08079337  0.63064505  1
  N  N44  1  0.89098762  0.20330489  0.32875844  1
  N  N45  1  0.78096330  0.09126752  0.09081250  1
  N  N46  1  0.49820530  0.23615618  0.81094547  1
  N  N47  1  0.44371916  0.09117541  0.57945917  1
  N  N48  1  0.21820435  0.54123997  0.36603544  1
  N  N49  1  0.11948771  0.42127932  0.12097681  1
  N  N50  1  0.91455597  0.54511979  0.87110307  1
  N  N51  1  0.74972795  0.44233535  0.61606440  1
  N  N52  1  0.56406249  0.53587647  0.33235063  1
  N  N53  1  0.41882457  0.41141256  0.05929615  1
  N  N54  1  0.20369756  0.55093339  0.87310373  1
  N  N55  1  0.14436460  0.41478267  0.62791138  1
  N  N56  1  0.89579409  0.53728440  0.34013007  1
  N  N57  1  0.81068327  0.41787724  0.10070443  1
  N  N58  1  0.51636899  0.55359842  0.85875677  1
  N  N59  1  0.44807666  0.42548744  0.55699029  1
  N  N60  1  0.22327945  0.87409602  0.37400585  1
  N  N61  1  0.11579659  0.75957016  0.11719185  1
  N  N62  1  0.91142133  0.84732179  0.86933000  1
  N  N63  1  0.75498993  0.77279852  0.64248797  1
  N  N64  1  0.58293940  0.83694754  0.30766821  1
  N  N65  1  0.40102305  0.77894915  0.12934403  1
  N  N66  1  0.21699785  0.87436803  0.87288057  1
  N  N67  1  0.14103395  0.74744014  0.62528276  1
  N  N68  1  0.89172557  0.87589367  0.33683248  1
  N  N69  1  0.82147989  0.73949272  0.10575165  1
  N  N70  1  0.54095212  0.88249956  0.83954468  1
  N  N71  1  0.43874299  0.76483835  0.62592261  1
