# generated using pymatgen
data_Gd2Al7N9
_symmetry_space_group_name_H-M   'P 1'
_cell_length_a   9.89097086
_cell_length_b   9.82594165
_cell_length_c   10.80677972
_cell_angle_alpha   90.00849445
_cell_angle_beta   89.46599691
_cell_angle_gamma   60.16724202
_symmetry_Int_Tables_number   1
_chemical_formula_structural   Gd2Al7N9
_chemical_formula_sum   'Gd8 Al28 N36'
_cell_volume   911.05373334
_cell_formula_units_Z   4
loop_
 _symmetry_equiv_pos_site_id
 _symmetry_equiv_pos_as_xyz
  1  'x, y, z'
loop_
 _atom_site_type_symbol
 _atom_site_label
 _atom_site_symmetry_multiplicity
 _atom_site_fract_x
 _atom_site_fract_y
 _atom_site_fract_z
 _atom_site_occupancy
  Al  Al0  1  0.12133346  0.08316703  0.35077992  1
  Al  Al1  1  0.22062021  0.20844641  0.14236401  1
  Al  Al2  1  0.53975850  0.21765575  0.13706096  1
  Al  Al3  1  0.11186690  0.10065934  0.90293319  1
  Al  Al4  1  0.22572523  0.19442951  0.66156666  1
  Al  Al5  1  0.78990657  0.08757291  0.29588718  1
  Al  Al6  1  0.89755808  0.20406919  0.08909762  1
  Al  Al7  1  0.41834696  0.11547678  0.89764778  1
  Al  Al8  1  0.52677373  0.21906896  0.66134673  1
  Al  Al9  1  0.11700749  0.43365209  0.31570960  1
  Al  Al10  1  0.21072535  0.54184353  0.06962484  1
  Al  Al11  1  0.46513442  0.42093286  0.40378337  1
  Al  Al12  1  0.11427782  0.43698881  0.82944031  1
  Al  Al13  1  0.22900961  0.53499242  0.57702291  1
  Al  Al14  1  0.80277143  0.42007675  0.30999312  1
  Al  Al15  1  0.91310006  0.53252470  0.07555156  1
  Al  Al16  1  0.41784008  0.44050988  0.89159939  1
  Al  Al17  1  0.52677664  0.55209540  0.65160738  1
  Al  Al18  1  0.12360987  0.75475144  0.31999644  1
  Al  Al19  1  0.20763730  0.87229450  0.07000387  1
  Al  Al20  1  0.78813735  0.75706515  0.83925413  1
  Al  Al21  1  0.47367047  0.74344996  0.40945201  1
  Al  Al22  1  0.11851845  0.75652377  0.82445143  1
  Al  Al23  1  0.22825984  0.87227350  0.57297675  1
  Al  Al24  1  0.80124270  0.74579216  0.30756652  1
  Al  Al25  1  0.90989453  0.85499635  0.07463868  1
  Al  Al26  1  0.41821195  0.77217309  0.88992828  1
  Al  Al27  1  0.54049189  0.87860340  0.67104334  1
  Gd  Gd28  1  0.76345456  0.09778526  0.86121635  1
  Gd  Gd29  1  0.86731762  0.21494761  0.56252237  1
  Gd  Gd30  1  0.45225463  0.08994400  0.40293740  1
  Gd  Gd31  1  0.75611574  0.44830740  0.85919420  1
  Gd  Gd32  1  0.88862357  0.53686315  0.57830721  1
  Gd  Gd33  1  0.53598575  0.54126653  0.15243390  1
  Gd  Gd34  1  0.88833374  0.87113878  0.57474067  1
  Gd  Gd35  1  0.55827367  0.87199675  0.11571728  1
  N  N36  1  0.21192713  0.20802620  0.32068097  1
  N  N37  1  0.12042490  0.09032438  0.10169086  1
  N  N38  1  0.90092843  0.20588987  0.91300054  1
  N  N39  1  0.74608948  0.10464361  0.64842443  1
  N  N40  1  0.56581619  0.22401789  0.31467245  1
  N  N41  1  0.42463836  0.12624967  0.07642066  1
  N  N42  1  0.21030664  0.20699255  0.84316239  1
  N  N43  1  0.12708908  0.09147348  0.59087881  1
  N  N44  1  0.89871071  0.19609874  0.34242820  1
  N  N45  1  0.78084049  0.08637166  0.11551277  1
  N  N46  1  0.49895302  0.23739122  0.83325645  1
  N  N47  1  0.44060579  0.09046782  0.61411650  1
  N  N48  1  0.22409131  0.53825437  0.38827172  1
  N  N49  1  0.11789963  0.43154845  0.13610064  1
  N  N50  1  0.90704594  0.54882767  0.89665673  1
  N  N51  1  0.74716799  0.44340895  0.65181727  1
  N  N52  1  0.57619392  0.52781723  0.36201742  1
  N  N53  1  0.43231301  0.41580831  0.06779594  1
  N  N54  1  0.20167470  0.55309383  0.89290624  1
  N  N55  1  0.13886997  0.42140664  0.65091842  1
  N  N56  1  0.90280303  0.53281925  0.36481181  1
  N  N57  1  0.80257078  0.42401895  0.12911797  1
  N  N58  1  0.49051728  0.57021819  0.82645920  1
  N  N59  1  0.45160556  0.41911798  0.58049693  1
  N  N60  1  0.23376493  0.85945639  0.38403983  1
  N  N61  1  0.12174777  0.75461419  0.13900644  1
  N  N62  1  0.90811503  0.84435889  0.89508329  1
  N  N63  1  0.75897141  0.76976316  0.66583937  1
  N  N64  1  0.57927329  0.83920142  0.33345947  1
  N  N65  1  0.42093998  0.76552898  0.06421002  1
  N  N66  1  0.19756733  0.88386159  0.88729574  1
  N  N67  1  0.14427432  0.74589774  0.64400841  1
  N  N68  1  0.89381392  0.87314301  0.35783998  1
  N  N69  1  0.82023017  0.73972652  0.13235741  1
  N  N70  1  0.53997048  0.88043433  0.85666827  1
  N  N71  1  0.45157287  0.76335556  0.58939352  1
