# generated using pymatgen
data_Gd2Al7N9
_symmetry_space_group_name_H-M   'P 1'
_cell_length_a   9.97581905
_cell_length_b   9.86480854
_cell_length_c   10.29334399
_cell_angle_alpha   90.05157893
_cell_angle_beta   89.87715949
_cell_angle_gamma   60.51360743
_symmetry_Int_Tables_number   1
_chemical_formula_structural   Gd2Al7N9
_chemical_formula_sum   'Gd8 Al28 N36'
_cell_volume   881.75256308
_cell_formula_units_Z   4
loop_
 _symmetry_equiv_pos_site_id
 _symmetry_equiv_pos_as_xyz
  1  'x, y, z'
loop_
 _atom_site_type_symbol
 _atom_site_label
 _atom_site_symmetry_multiplicity
 _atom_site_fract_x
 _atom_site_fract_y
 _atom_site_fract_z
 _atom_site_occupancy
  Al  Al0  1  0.12258285  0.08955251  0.39695956  1
  Al  Al1  1  0.21481299  0.21253075  0.14517579  1
  Al  Al2  1  0.53389960  0.22341274  0.15459199  1
  Al  Al3  1  0.11374268  0.09094117  0.90698921  1
  Al  Al4  1  0.23042923  0.19959101  0.66106187  1
  Al  Al5  1  0.76634472  0.10747078  0.38096986  1
  Al  Al6  1  0.90181732  0.20213955  0.17305361  1
  Al  Al7  1  0.42712382  0.11452559  0.89339289  1
  Al  Al8  1  0.53810402  0.21761749  0.65812232  1
  Al  Al9  1  0.12680649  0.41912363  0.39797134  1
  Al  Al10  1  0.21588735  0.53986051  0.14953476  1
  Al  Al11  1  0.43952128  0.43397988  0.41366845  1
  Al  Al12  1  0.11156187  0.43364886  0.90761459  1
  Al  Al13  1  0.23400318  0.53334088  0.65163383  1
  Al  Al14  1  0.76889404  0.43228863  0.40612794  1
  Al  Al15  1  0.91171742  0.52358355  0.17147476  1
  Al  Al16  1  0.42200464  0.43864553  0.89689767  1
  Al  Al17  1  0.53693616  0.54728832  0.64934396  1
  Al  Al18  1  0.13149704  0.75255461  0.39983376  1
  Al  Al19  1  0.21529119  0.87681964  0.15056310  1
  Al  Al20  1  0.78448361  0.75847229  0.86307219  1
  Al  Al21  1  0.44562478  0.76110753  0.41646011  1
  Al  Al22  1  0.11085664  0.75844371  0.90326761  1
  Al  Al23  1  0.23181460  0.86794228  0.65019799  1
  Al  Al24  1  0.78151666  0.75328711  0.36294180  1
  Al  Al25  1  0.90804812  0.86384926  0.17378609  1
  Al  Al26  1  0.42163125  0.76557487  0.89425140  1
  Al  Al27  1  0.54411419  0.87446966  0.66597668  1
  Gd  Gd28  1  0.77016937  0.09139467  0.92074600  1
  Gd  Gd29  1  0.89238957  0.19558264  0.62833399  1
  Gd  Gd30  1  0.44510795  0.09368786  0.41437099  1
  Gd  Gd31  1  0.77243814  0.43549414  0.90490051  1
  Gd  Gd32  1  0.90166054  0.53391842  0.62606201  1
  Gd  Gd33  1  0.54425968  0.54070588  0.16074744  1
  Gd  Gd34  1  0.88844056  0.87538622  0.61868648  1
  Gd  Gd35  1  0.56219352  0.87157642  0.12263290  1
  N  N36  1  0.20277032  0.21494287  0.32842055  1
  N  N37  1  0.10914529  0.09374535  0.09751521  1
  N  N38  1  0.91039937  0.19021316  0.84748578  1
  N  N39  1  0.72630782  0.11906877  0.56864969  1
  N  N40  1  0.55206388  0.23425908  0.33399906  1
  N  N41  1  0.42543882  0.12649370  0.08525894  1
  N  N42  1  0.21057934  0.21216819  0.84998902  1
  N  N43  1  0.15179578  0.07641625  0.58057766  1
  N  N44  1  0.89636632  0.20420826  0.36381352  1
  N  N45  1  0.78061259  0.09283535  0.14226680  1
  N  N46  1  0.52686843  0.22771533  0.84112382  1
  N  N47  1  0.44283036  0.09054783  0.63526208  1
  N  N48  1  0.22698295  0.53795771  0.33785049  1
  N  N49  1  0.11169401  0.42855341  0.09546955  1
  N  N50  1  0.90558504  0.54748803  0.84953943  1
  N  N51  1  0.74452337  0.44299565  0.59431675  1
  N  N52  1  0.54738503  0.54449300  0.37599307  1
  N  N53  1  0.42127894  0.42419219  0.08111656  1
  N  N54  1  0.21285473  0.54417031  0.84161913  1
  N  N55  1  0.16147747  0.39927870  0.58062785  1
  N  N56  1  0.90182391  0.52711394  0.36785260  1
  N  N57  1  0.80422810  0.41573706  0.12690951  1
  N  N58  1  0.51910036  0.55483605  0.83856690  1
  N  N59  1  0.44027806  0.42831004  0.59822645  1
  N  N60  1  0.23004383  0.86988493  0.33966691  1
  N  N61  1  0.11117959  0.76304195  0.09640148  1
  N  N62  1  0.90247332  0.85219096  0.84714497  1
  N  N63  1  0.74051944  0.77762094  0.59849488  1
  N  N64  1  0.56429567  0.84505002  0.34622937  1
  N  N65  1  0.40960803  0.77470480  0.07453008  1
  N  N66  1  0.21131392  0.87846315  0.83888430  1
  N  N67  1  0.15184422  0.74021969  0.58286151  1
  N  N68  1  0.90212550  0.86979758  0.36475740  1
  N  N69  1  0.81827442  0.73916994  0.15309620  1
  N  N70  1  0.55816103  0.86900132  0.86121652  1
  N  N71  1  0.44163848  0.76596672  0.60470331  1
