# generated using pymatgen
data_Gd2Al7N9
_symmetry_space_group_name_H-M   'P 1'
_cell_length_a   9.98091697
_cell_length_b   9.86442078
_cell_length_c   10.29874923
_cell_angle_alpha   90.05392155
_cell_angle_beta   89.88861100
_cell_angle_gamma   60.51892478
_symmetry_Int_Tables_number   1
_chemical_formula_structural   Gd2Al7N9
_chemical_formula_sum   'Gd8 Al28 N36'
_cell_volume   882.67853622
_cell_formula_units_Z   4
loop_
 _symmetry_equiv_pos_site_id
 _symmetry_equiv_pos_as_xyz
  1  'x, y, z'
loop_
 _atom_site_type_symbol
 _atom_site_label
 _atom_site_symmetry_multiplicity
 _atom_site_fract_x
 _atom_site_fract_y
 _atom_site_fract_z
 _atom_site_occupancy
  Al  Al0  1  0.12244220  0.08965580  0.39708547  1
  Al  Al1  1  0.21485674  0.21237757  0.14520793  1
  Al  Al2  1  0.53388041  0.22341931  0.15462388  1
  Al  Al3  1  0.11363068  0.09103782  0.90683930  1
  Al  Al4  1  0.23031218  0.19981121  0.66101869  1
  Al  Al5  1  0.76615382  0.10776339  0.38098251  1
  Al  Al6  1  0.90192036  0.20203702  0.17299840  1
  Al  Al7  1  0.42678123  0.11449761  0.89381235  1
  Al  Al8  1  0.53793970  0.21749884  0.65811660  1
  Al  Al9  1  0.12718817  0.41901152  0.39809818  1
  Al  Al10  1  0.21599663  0.53980634  0.14949698  1
  Al  Al11  1  0.43956608  0.43404228  0.41382635  1
  Al  Al12  1  0.11101683  0.43409517  0.90742368  1
  Al  Al13  1  0.23422120  0.53323743  0.65181178  1
  Al  Al14  1  0.76862859  0.43214365  0.40606815  1
  Al  Al15  1  0.91249031  0.52256484  0.17092694  1
  Al  Al16  1  0.42198359  0.43860641  0.89682885  1
  Al  Al17  1  0.53683823  0.54743371  0.64955176  1
  Al  Al18  1  0.13208853  0.75232766  0.39993725  1
  Al  Al19  1  0.21540200  0.87685596  0.15063683  1
  Al  Al20  1  0.78198692  0.75985904  0.84750394  1
  Al  Al21  1  0.44605199  0.76109864  0.41639285  1
  Al  Al22  1  0.11027841  0.75862210  0.90311721  1
  Al  Al23  1  0.23167450  0.86789013  0.65027613  1
  Al  Al24  1  0.78401465  0.75200414  0.35331938  1
  Al  Al25  1  0.90869588  0.86416406  0.17339922  1
  Al  Al26  1  0.42122361  0.76590505  0.89467008  1
  Al  Al27  1  0.54015032  0.87647987  0.66779765  1
  Gd  Gd28  1  0.77024525  0.09112574  0.92055021  1
  Gd  Gd29  1  0.89198409  0.19560874  0.62853765  1
  Gd  Gd30  1  0.44505066  0.09381830  0.41376133  1
  Gd  Gd31  1  0.77255088  0.43588263  0.90491788  1
  Gd  Gd32  1  0.90256964  0.53188116  0.62510809  1
  Gd  Gd33  1  0.54434984  0.54041771  0.16068038  1
  Gd  Gd34  1  0.88929760  0.87562445  0.61741949  1
  Gd  Gd35  1  0.56337892  0.87092300  0.12043991  1
  N  N36  1  0.20254906  0.21501850  0.32838557  1
  N  N37  1  0.10911393  0.09375458  0.09746644  1
  N  N38  1  0.91032105  0.19041229  0.84747396  1
  N  N39  1  0.72594650  0.11910295  0.56841741  1
  N  N40  1  0.55210834  0.23444491  0.33391995  1
  N  N41  1  0.42553316  0.12620776  0.08587444  1
  N  N42  1  0.21057020  0.21223634  0.84997211  1
  N  N43  1  0.15133610  0.07664961  0.58069681  1
  N  N44  1  0.89632591  0.20417468  0.36371130  1
  N  N45  1  0.78076902  0.09257294  0.14233461  1
  N  N46  1  0.52665122  0.22749791  0.84108999  1
  N  N47  1  0.44220546  0.09105052  0.63429492  1
  N  N48  1  0.22704084  0.53794071  0.33780026  1
  N  N49  1  0.11194089  0.42842931  0.09544028  1
  N  N50  1  0.90575096  0.54715367  0.84940888  1
  N  N51  1  0.74406530  0.44283868  0.59395124  1
  N  N52  1  0.54729696  0.54460319  0.37580744  1
  N  N53  1  0.42127240  0.42408647  0.08106407  1
  N  N54  1  0.21293268  0.54416317  0.84169507  1
  N  N55  1  0.16215523  0.39918660  0.58055160  1
  N  N56  1  0.90185214  0.52687174  0.36891184  1
  N  N57  1  0.80434253  0.41574863  0.12709794  1
  N  N58  1  0.51899270  0.55508608  0.83866309  1
  N  N59  1  0.44042603  0.42829698  0.59829520  1
  N  N60  1  0.23022897  0.87001597  0.33968247  1
  N  N61  1  0.11134056  0.76296260  0.09649300  1
  N  N62  1  0.90270359  0.85265428  0.84704545  1
  N  N63  1  0.74164900  0.77699480  0.61876565  1
  N  N64  1  0.56631426  0.84436922  0.34739384  1
  N  N65  1  0.40972740  0.77464740  0.07513224  1
  N  N66  1  0.21124895  0.87846148  0.83894730  1
  N  N67  1  0.15247636  0.73981717  0.58282672  1
  N  N68  1  0.90220992  0.86997387  0.36544772  1
  N  N69  1  0.81910242  0.73868127  0.15773282  1
  N  N70  1  0.55501133  0.87087329  0.86255615  1
  N  N71  1  0.44124286  0.76615295  0.60432174  1
