# generated using pymatgen
data_Gd2Al7N9
_symmetry_space_group_name_H-M   'P 1'
_cell_length_a   9.94012005
_cell_length_b   9.83069147
_cell_length_c   10.35870684
_cell_angle_alpha   90.29185142
_cell_angle_beta   89.81386255
_cell_angle_gamma   60.26531046
_symmetry_Int_Tables_number   1
_chemical_formula_structural   Gd2Al7N9
_chemical_formula_sum   'Gd8 Al28 N36'
_cell_volume   878.92434684
_cell_formula_units_Z   4
loop_
 _symmetry_equiv_pos_site_id
 _symmetry_equiv_pos_as_xyz
  1  'x, y, z'
loop_
 _atom_site_type_symbol
 _atom_site_label
 _atom_site_symmetry_multiplicity
 _atom_site_fract_x
 _atom_site_fract_y
 _atom_site_fract_z
 _atom_site_occupancy
  Al  Al0  1  0.10608145  0.09639783  0.28849376  1
  Al  Al1  1  0.21810620  0.21012073  0.04243759  1
  Al  Al2  1  0.52692462  0.21841084  0.04488394  1
  Al  Al3  1  0.12907153  0.08429441  0.80692235  1
  Al  Al4  1  0.22587318  0.20350435  0.56055983  1
  Al  Al5  1  0.77020200  0.09965397  0.27423314  1
  Al  Al6  1  0.90279989  0.20213042  0.05875531  1
  Al  Al7  1  0.43542549  0.10166371  0.78699465  1
  Al  Al8  1  0.55553241  0.21378447  0.54754327  1
  Al  Al9  1  0.10385601  0.43098860  0.28935393  1
  Al  Al10  1  0.21642237  0.53680827  0.04986432  1
  Al  Al11  1  0.43681535  0.42950845  0.30470961  1
  Al  Al12  1  0.12689826  0.42555130  0.80591258  1
  Al  Al13  1  0.23529462  0.53315724  0.55255841  1
  Al  Al14  1  0.77870802  0.43064677  0.27951489  1
  Al  Al15  1  0.90491115  0.53612407  0.04751679  1
  Al  Al16  1  0.42798255  0.43733742  0.79116209  1
  Al  Al17  1  0.54935434  0.53961037  0.53880889  1
  Al  Al18  1  0.11100381  0.76307031  0.29103495  1
  Al  Al19  1  0.21515797  0.87775865  0.04975783  1
  Al  Al20  1  0.78703378  0.75672540  0.79941206  1
  Al  Al21  1  0.43667065  0.76258174  0.31036312  1
  Al  Al22  1  0.12736125  0.75083043  0.80651988  1
  Al  Al23  1  0.23352512  0.86651680  0.55367294  1
  Al  Al24  1  0.78218418  0.75631355  0.28501093  1
  Al  Al25  1  0.90140227  0.85900578  0.04991909  1
  Al  Al26  1  0.43607666  0.76426700  0.78389956  1
  Al  Al27  1  0.55801076  0.86499847  0.55449657  1
  Gd  Gd28  1  0.77261966  0.09400874  0.82633651  1
  Gd  Gd29  1  0.90271183  0.19467808  0.52833238  1
  Gd  Gd30  1  0.43188322  0.10104635  0.31976916  1
  Gd  Gd31  1  0.77812232  0.43034610  0.80793246  1
  Gd  Gd32  1  0.90510276  0.53046313  0.54039744  1
  Gd  Gd33  1  0.53647777  0.54194011  0.06058835  1
  Gd  Gd34  1  0.89863446  0.86752928  0.54572193  1
  Gd  Gd35  1  0.55168210  0.87385358  0.04370267  1
  N  N36  1  0.17195269  0.22979833  0.37571125  1
  N  N37  1  0.11880662  0.09329141  0.10580228  1
  N  N38  1  0.92778774  0.18703833  0.87503077  1
  N  N39  1  0.75621241  0.10833939  0.60997419  1
  N  N40  1  0.57091444  0.21936191  0.36161214  1
  N  N41  1  0.42271428  0.11833006  0.10370964  1
  N  N42  1  0.22614317  0.20382278  0.85673397  1
  N  N43  1  0.14498584  0.07561549  0.62351617  1
  N  N44  1  0.88359348  0.20585241  0.30710784  1
  N  N45  1  0.76409571  0.09763459  0.08456894  1
  N  N46  1  0.51266395  0.23006101  0.85997729  1
  N  N47  1  0.44692972  0.09508446  0.59021697  1
  N  N48  1  0.21226803  0.54277927  0.36155933  1
  N  N49  1  0.11392306  0.42442103  0.10381695  1
  N  N50  1  0.91224006  0.54688148  0.85951714  1
  N  N51  1  0.75610873  0.43517015  0.58993657  1
  N  N52  1  0.55069478  0.53896052  0.34391520  1
  N  N53  1  0.41658512  0.41713392  0.12396148  1
  N  N54  1  0.22545496  0.53934749  0.86506930  1
  N  N55  1  0.14990963  0.41170120  0.62374805  1
  N  N56  1  0.88742827  0.54028319  0.32484075  1
  N  N57  1  0.79720014  0.42462785  0.09184975  1
  N  N58  1  0.52107449  0.55683973  0.84397562  1
  N  N59  1  0.44599172  0.42873414  0.60127064  1
  N  N60  1  0.20944162  0.88085496  0.36503703  1
  N  N61  1  0.11526387  0.75971225  0.10519901  1
  N  N62  1  0.91354559  0.83981208  0.86154195  1
  N  N63  1  0.76090098  0.76762276  0.61888757  1
  N  N64  1  0.57466811  0.84124421  0.36195019  1
  N  N65  1  0.40748928  0.78486888  0.13181815  1
  N  N66  1  0.23032989  0.86900117  0.86301304  1
  N  N67  1  0.14778090  0.74321955  0.62116672  1
  N  N68  1  0.88576974  0.87802745  0.32504326  1
  N  N69  1  0.80226037  0.74815075  0.10330220  1
  N  N70  1  0.55278171  0.87501609  0.82638840  1
  N  N71  1  0.44662896  0.75712612  0.59600222  1
