# generated using pymatgen
data_Gd2Al7N9
_symmetry_space_group_name_H-M   'P 1'
_cell_length_a   9.87593325
_cell_length_b   9.83361468
_cell_length_c   10.79844364
_cell_angle_alpha   90.18493838
_cell_angle_beta   89.36908174
_cell_angle_gamma   60.13817541
_symmetry_Int_Tables_number   1
_chemical_formula_structural   Gd2Al7N9
_chemical_formula_sum   'Gd8 Al28 N36'
_cell_volume   909.36428996
_cell_formula_units_Z   4
loop_
 _symmetry_equiv_pos_site_id
 _symmetry_equiv_pos_as_xyz
  1  'x, y, z'
loop_
 _atom_site_type_symbol
 _atom_site_label
 _atom_site_symmetry_multiplicity
 _atom_site_fract_x
 _atom_site_fract_y
 _atom_site_fract_z
 _atom_site_occupancy
  Al  Al0  1  0.11583343  0.08219805  0.31460633  1
  Al  Al1  1  0.21945790  0.21058577  0.14237262  1
  Al  Al2  1  0.53992558  0.21911784  0.13606946  1
  Al  Al3  1  0.11092612  0.08766742  0.83036209  1
  Al  Al4  1  0.23399433  0.19845845  0.66564625  1
  Al  Al5  1  0.78837936  0.09249556  0.29565548  1
  Al  Al6  1  0.90862515  0.19779678  0.07978084  1
  Al  Al7  1  0.41606695  0.11708016  0.89901436  1
  Al  Al8  1  0.52984457  0.21912877  0.65925135  1
  Al  Al9  1  0.11451218  0.43670961  0.31570425  1
  Al  Al10  1  0.21083883  0.54331216  0.06985263  1
  Al  Al11  1  0.46381781  0.42382767  0.40138556  1
  Al  Al12  1  0.11352549  0.43695410  0.83053126  1
  Al  Al13  1  0.22858488  0.53557371  0.57585644  1
  Al  Al14  1  0.80134897  0.41940580  0.31013095  1
  Al  Al15  1  0.91280732  0.53234253  0.07473534  1
  Al  Al16  1  0.41829339  0.43976025  0.89022611  1
  Al  Al17  1  0.53004143  0.54917196  0.64992464  1
  Al  Al18  1  0.12096478  0.75918530  0.32046472  1
  Al  Al19  1  0.20430121  0.87833884  0.06521877  1
  Al  Al20  1  0.78598248  0.75742038  0.83873577  1
  Al  Al21  1  0.46924763  0.74769269  0.40835190  1
  Al  Al22  1  0.11732772  0.75431103  0.82483949  1
  Al  Al23  1  0.22879482  0.86999391  0.57958845  1
  Al  Al24  1  0.79809885  0.74841047  0.30628638  1
  Al  Al25  1  0.90976936  0.85531399  0.07526592  1
  Al  Al26  1  0.42007359  0.76980843  0.88888124  1
  Al  Al27  1  0.53964239  0.87911932  0.66993431  1
  Gd  Gd28  1  0.76273253  0.09659063  0.86334393  1
  Gd  Gd29  1  0.88337128  0.20535317  0.56721002  1
  Gd  Gd30  1  0.44999301  0.09352855  0.39893698  1
  Gd  Gd31  1  0.76184940  0.44106782  0.85731967  1
  Gd  Gd32  1  0.88749826  0.53854120  0.57623076  1
  Gd  Gd33  1  0.53911761  0.54059467  0.14774598  1
  Gd  Gd34  1  0.88691828  0.87163746  0.57295315  1
  Gd  Gd35  1  0.55667262  0.87274379  0.11409132  1
  N  N36  1  0.20711967  0.21327129  0.32455912  1
  N  N37  1  0.11926985  0.08189359  0.13465684  1
  N  N38  1  0.91529605  0.19443857  0.90548255  1
  N  N39  1  0.74934615  0.10608282  0.64801000  1
  N  N40  1  0.56431530  0.22723297  0.31237484  1
  N  N41  1  0.42410199  0.12716100  0.07746696  1
  N  N42  1  0.21065541  0.21037614  0.84549189  1
  N  N43  1  0.13158118  0.07692343  0.64916179  1
  N  N44  1  0.89442546  0.20005834  0.35057031  1
  N  N45  1  0.78250333  0.08814389  0.11308334  1
  N  N46  1  0.49871485  0.23672063  0.83135198  1
  N  N47  1  0.44301302  0.08993991  0.61016975  1
  N  N48  1  0.22137357  0.54242532  0.38800664  1
  N  N49  1  0.11746779  0.43273915  0.13559621  1
  N  N50  1  0.90490068  0.54953589  0.89545682  1
  N  N51  1  0.75127865  0.43827995  0.64836333  1
  N  N52  1  0.57092055  0.53321937  0.35757133  1
  N  N53  1  0.43251472  0.41612679  0.06634190  1
  N  N54  1  0.20173167  0.55251911  0.89279423  1
  N  N55  1  0.13810554  0.42198771  0.64963524  1
  N  N56  1  0.89895583  0.53629032  0.36322701  1
  N  N57  1  0.80779771  0.41778009  0.12577345  1
  N  N58  1  0.49540774  0.56635121  0.82570941  1
  N  N59  1  0.45159904  0.41932335  0.57867815  1
  N  N60  1  0.22383223  0.87202078  0.39167452  1
  N  N61  1  0.12203744  0.75639747  0.13835306  1
  N  N62  1  0.90687016  0.84370316  0.89490238  1
  N  N63  1  0.75810860  0.77057937  0.66505304  1
  N  N64  1  0.57541638  0.84216202  0.33155734  1
  N  N65  1  0.41931690  0.76644412  0.06272511  1
  N  N66  1  0.19903864  0.88093025  0.88574374  1
  N  N67  1  0.14235644  0.74466985  0.64481109  1
  N  N68  1  0.89016422  0.87666819  0.35608633  1
  N  N69  1  0.81889831  0.74013471  0.13113198  1
  N  N70  1  0.53848214  0.88181462  0.85555258  1
  N  N71  1  0.45281293  0.76144412  0.58910759  1
