# generated using pymatgen
data_Gd2Al7N9
_symmetry_space_group_name_H-M   'P 1'
_cell_length_a   9.99106666
_cell_length_b   9.86895015
_cell_length_c   10.47948129
_cell_angle_alpha   90.18939898
_cell_angle_beta   90.43008902
_cell_angle_gamma   60.66807679
_symmetry_Int_Tables_number   1
_chemical_formula_structural   Gd2Al7N9
_chemical_formula_sum   'Gd8 Al28 N36'
_cell_volume   900.79388597
_cell_formula_units_Z   4
loop_
 _symmetry_equiv_pos_site_id
 _symmetry_equiv_pos_as_xyz
  1  'x, y, z'
loop_
 _atom_site_type_symbol
 _atom_site_label
 _atom_site_symmetry_multiplicity
 _atom_site_fract_x
 _atom_site_fract_y
 _atom_site_fract_z
 _atom_site_occupancy
  Al  Al0  1  0.12460824  0.08759557  0.38732219  1
  Al  Al1  1  0.21395807  0.21364298  0.14299198  1
  Al  Al2  1  0.53674558  0.22143341  0.13794533  1
  Al  Al3  1  0.11958562  0.09154961  0.89713810  1
  Al  Al4  1  0.22834409  0.19947970  0.64741985  1
  Al  Al5  1  0.79143292  0.09171508  0.30053759  1
  Al  Al6  1  0.90452329  0.19912421  0.08469879  1
  Al  Al7  1  0.41677772  0.11733768  0.89583927  1
  Al  Al8  1  0.52714344  0.22062416  0.66085797  1
  Al  Al9  1  0.12660402  0.41898392  0.39182688  1
  Al  Al10  1  0.22070498  0.52952475  0.14599578  1
  Al  Al11  1  0.45584867  0.42675737  0.40040415  1
  Al  Al12  1  0.11749509  0.42545142  0.89347556  1
  Al  Al13  1  0.23188698  0.52609921  0.64075081  1
  Al  Al14  1  0.80150534  0.41874385  0.31661796  1
  Al  Al15  1  0.90906849  0.53307476  0.07689363  1
  Al  Al16  1  0.40664634  0.44408485  0.89408028  1
  Al  Al17  1  0.52226830  0.55475102  0.65318100  1
  Al  Al18  1  0.11925192  0.75834036  0.32347098  1
  Al  Al19  1  0.21979514  0.88191985  0.14682979  1
  Al  Al20  1  0.78877272  0.75709369  0.84046023  1
  Al  Al21  1  0.46263470  0.75089304  0.40515083  1
  Al  Al22  1  0.11456491  0.75752935  0.81864619  1
  Al  Al23  1  0.23029088  0.87687788  0.63925935  1
  Al  Al24  1  0.80215117  0.74203783  0.31038220  1
  Al  Al25  1  0.91949764  0.84830814  0.07693623  1
  Al  Al26  1  0.41003795  0.77697772  0.89151652  1
  Al  Al27  1  0.53856473  0.88102073  0.67064897  1
  Gd  Gd28  1  0.76112553  0.09282331  0.86864600  1
  Gd  Gd29  1  0.87261535  0.21351698  0.58366321  1
  Gd  Gd30  1  0.45555627  0.08751102  0.39525237  1
  Gd  Gd31  1  0.75141996  0.44464091  0.86634210  1
  Gd  Gd32  1  0.88133985  0.54148021  0.59309977  1
  Gd  Gd33  1  0.53837304  0.54522127  0.14302892  1
  Gd  Gd34  1  0.88183001  0.87598848  0.57370615  1
  Gd  Gd35  1  0.56271320  0.87268456  0.10701018  1
  N  N36  1  0.20576344  0.21421644  0.32357353  1
  N  N37  1  0.12232075  0.09042917  0.08592528  1
  N  N38  1  0.90848737  0.19661989  0.89072329  1
  N  N39  1  0.74031509  0.10870067  0.64742025  1
  N  N40  1  0.57096076  0.22298155  0.31822128  1
  N  N41  1  0.42231883  0.12667169  0.08364177  1
  N  N42  1  0.20964545  0.21061617  0.83401864  1
  N  N43  1  0.14016705  0.08251033  0.57283922  1
  N  N44  1  0.90011562  0.19769157  0.35504716  1
  N  N45  1  0.78402629  0.08835873  0.11304491  1
  N  N46  1  0.50131309  0.23767603  0.83955905  1
  N  N47  1  0.44278851  0.09009862  0.61276004  1
  N  N48  1  0.23531823  0.52832273  0.33372318  1
  N  N49  1  0.12257236  0.42078940  0.08032499  1
  N  N50  1  0.90007561  0.54885040  0.88795521  1
  N  N51  1  0.73626432  0.44861376  0.65259783  1
  N  N52  1  0.56841742  0.53330915  0.35810922  1
  N  N53  1  0.41903553  0.42359298  0.07446530  1
  N  N54  1  0.20842969  0.53677460  0.82620010  1
  N  N55  1  0.14765054  0.40379020  0.57634317  1
  N  N56  1  0.90330443  0.53198640  0.37125691  1
  N  N57  1  0.80522367  0.41864984  0.12576947  1
  N  N58  1  0.48896207  0.57031149  0.83774833  1
  N  N59  1  0.44052472  0.42670240  0.58388908  1
  N  N60  1  0.23932396  0.86883268  0.33491649  1
  N  N61  1  0.12169137  0.75651894  0.13729828  1
  N  N62  1  0.91672722  0.83841247  0.89315157  1
  N  N63  1  0.75134882  0.77766651  0.66434202  1
  N  N64  1  0.58293689  0.83599156  0.33349350  1
  N  N65  1  0.40672113  0.78041987  0.06799228  1
  N  N66  1  0.21046178  0.89006131  0.82548467  1
  N  N67  1  0.13397856  0.74953170  0.63068813  1
  N  N68  1  0.89529942  0.87290292  0.35551202  1
  N  N69  1  0.82370308  0.73664514  0.13099796  1
  N  N70  1  0.54138009  0.88224117  0.86169864  1
  N  N71  1  0.44339296  0.76674305  0.59200214  1
