# generated using pymatgen
data_Gd2Al7N9
_symmetry_space_group_name_H-M   'P 1'
_cell_length_a   9.91734195
_cell_length_b   9.83825853
_cell_length_c   10.68316331
_cell_angle_alpha   90.40203800
_cell_angle_beta   90.17314865
_cell_angle_gamma   60.40780634
_symmetry_Int_Tables_number   1
_chemical_formula_structural   Gd2Al7N9
_chemical_formula_sum   'Gd8 Al28 N36'
_cell_volume   906.36536238
_cell_formula_units_Z   4
loop_
 _symmetry_equiv_pos_site_id
 _symmetry_equiv_pos_as_xyz
  1  'x, y, z'
loop_
 _atom_site_type_symbol
 _atom_site_label
 _atom_site_symmetry_multiplicity
 _atom_site_fract_x
 _atom_site_fract_y
 _atom_site_fract_z
 _atom_site_occupancy
  Al  Al0  1  0.12768390  0.08428157  0.38766960  1
  Al  Al1  1  0.21897579  0.20756258  0.14354970  1
  Al  Al2  1  0.54066504  0.21950898  0.13843297  1
  Al  Al3  1  0.11844122  0.09050897  0.90194122  1
  Al  Al4  1  0.22521237  0.19760134  0.65271278  1
  Al  Al5  1  0.79512600  0.08867768  0.29761359  1
  Al  Al6  1  0.90173676  0.20101451  0.08252049  1
  Al  Al7  1  0.41622803  0.11696776  0.89628089  1
  Al  Al8  1  0.52482303  0.21988903  0.66105613  1
  Al  Al9  1  0.11878443  0.43036890  0.32127639  1
  Al  Al10  1  0.21117191  0.54385445  0.07341046  1
  Al  Al11  1  0.46814475  0.42111910  0.40122190  1
  Al  Al12  1  0.11147733  0.43126322  0.84525207  1
  Al  Al13  1  0.22885574  0.53130673  0.57023100  1
  Al  Al14  1  0.80366858  0.41677880  0.31123814  1
  Al  Al15  1  0.91081702  0.53288587  0.07957385  1
  Al  Al16  1  0.41647570  0.44092355  0.89298784  1
  Al  Al17  1  0.52440016  0.55231954  0.65162668  1
  Al  Al18  1  0.12135002  0.75221430  0.31971016  1
  Al  Al19  1  0.21941836  0.88109051  0.14691348  1
  Al  Al20  1  0.78843588  0.75657032  0.84013636  1
  Al  Al21  1  0.46265184  0.75089488  0.40621566  1
  Al  Al22  1  0.11713053  0.75161702  0.82167959  1
  Al  Al23  1  0.22903990  0.87512931  0.64327132  1
  Al  Al24  1  0.79967660  0.74689095  0.30671051  1
  Al  Al25  1  0.91413902  0.85377486  0.07480985  1
  Al  Al26  1  0.40960283  0.77651575  0.88979970  1
  Al  Al27  1  0.53958667  0.87885122  0.67116662  1
  Gd  Gd28  1  0.76001144  0.09550501  0.86497540  1
  Gd  Gd29  1  0.86530079  0.21458716  0.57183588  1
  Gd  Gd30  1  0.45735493  0.08885274  0.39970154  1
  Gd  Gd31  1  0.75402899  0.44596165  0.86162603  1
  Gd  Gd32  1  0.88219696  0.53995987  0.57716055  1
  Gd  Gd33  1  0.53640823  0.54777693  0.14860146  1
  Gd  Gd34  1  0.88595920  0.87137352  0.57529804  1
  Gd  Gd35  1  0.55859534  0.87362506  0.10837633  1
  N  N36  1  0.21198216  0.20730253  0.32379356  1
  N  N37  1  0.12337190  0.08927972  0.08723531  1
  N  N38  1  0.90510891  0.19953015  0.90248376  1
  N  N39  1  0.74266101  0.10462065  0.64969456  1
  N  N40  1  0.57211697  0.22226479  0.31581222  1
  N  N41  1  0.42394272  0.12809406  0.07859499  1
  N  N42  1  0.20869555  0.20664790  0.83824189  1
  N  N43  1  0.13598637  0.08143368  0.57248191  1
  N  N44  1  0.90216405  0.19646863  0.35233786  1
  N  N45  1  0.78468490  0.08652599  0.11423935  1
  N  N46  1  0.49670262  0.23894725  0.83443510  1
  N  N47  1  0.44074499  0.08888556  0.61303219  1
  N  N48  1  0.22892686  0.53788057  0.38261260  1
  N  N49  1  0.11844919  0.42831698  0.13054164  1
  N  N50  1  0.90299194  0.54925660  0.89801094  1
  N  N51  1  0.74246533  0.44575357  0.65273231  1
  N  N52  1  0.57461224  0.53143923  0.36029798  1
  N  N53  1  0.43202407  0.41828842  0.07168449  1
  N  N54  1  0.20163825  0.55131533  0.89336087  1
  N  N55  1  0.13663032  0.41519467  0.62961833  1
  N  N56  1  0.90305735  0.53357782  0.36146545  1
  N  N57  1  0.80302731  0.41985923  0.12690538  1
  N  N58  1  0.48929548  0.57046932  0.83020194  1
  N  N59  1  0.45115737  0.41840584  0.57959063  1
  N  N60  1  0.24144303  0.86495521  0.33211376  1
  N  N61  1  0.12034560  0.75494140  0.13874912  1
  N  N62  1  0.91231221  0.84233287  0.89341323  1
  N  N63  1  0.75555641  0.77187795  0.66590141  1
  N  N64  1  0.57969204  0.83839387  0.33214831  1
  N  N65  1  0.40537765  0.77756327  0.06285635  1
  N  N66  1  0.20773995  0.89119316  0.82535960  1
  N  N67  1  0.13997200  0.73794470  0.64027922  1
  N  N68  1  0.89550302  0.87290873  0.35801632  1
  N  N69  1  0.81934777  0.74163907  0.13035441  1
  N  N70  1  0.54096684  0.88122040  0.85987582  1
  N  N71  1  0.44353428  0.76529000  0.59055175  1
