# generated using pymatgen
data_Gd2Al7N9
_symmetry_space_group_name_H-M   'P 1'
_cell_length_a   10.10607349
_cell_length_b   9.88537399
_cell_length_c   10.20476163
_cell_angle_alpha   90.09344891
_cell_angle_beta   90.69408809
_cell_angle_gamma   60.84169804
_symmetry_Int_Tables_number   1
_chemical_formula_structural   Gd2Al7N9
_chemical_formula_sum   'Gd8 Al28 N36'
_cell_volume   890.21176163
_cell_formula_units_Z   4
loop_
 _symmetry_equiv_pos_site_id
 _symmetry_equiv_pos_as_xyz
  1  'x, y, z'
loop_
 _atom_site_type_symbol
 _atom_site_label
 _atom_site_symmetry_multiplicity
 _atom_site_fract_x
 _atom_site_fract_y
 _atom_site_fract_z
 _atom_site_occupancy
  Al  Al0  1  0.12718423  0.08557945  0.40113506  1
  Al  Al1  1  0.21429287  0.21196914  0.14947857  1
  Al  Al2  1  0.52899979  0.22533780  0.15418842  1
  Al  Al3  1  0.11426374  0.09083684  0.90415437  1
  Al  Al4  1  0.22643372  0.20207771  0.66036449  1
  Al  Al5  1  0.77961697  0.09784229  0.33713041  1
  Al  Al6  1  0.91130127  0.19504014  0.15757175  1
  Al  Al7  1  0.41778025  0.11770149  0.90302181  1
  Al  Al8  1  0.52722792  0.22194824  0.67003931  1
  Al  Al9  1  0.13021266  0.41787539  0.40359528  1
  Al  Al10  1  0.21613723  0.53866308  0.15424588  1
  Al  Al11  1  0.45225311  0.42934664  0.41529714  1
  Al  Al12  1  0.10968016  0.43413657  0.90317397  1
  Al  Al13  1  0.22967771  0.53505075  0.65266837  1
  Al  Al14  1  0.78484672  0.42430171  0.34407377  1
  Al  Al15  1  0.91967470  0.52322146  0.15879923  1
  Al  Al16  1  0.41127427  0.44169670  0.90390717  1
  Al  Al17  1  0.52761509  0.55113598  0.66779116  1
  Al  Al18  1  0.13874618  0.74906087  0.40260325  1
  Al  Al19  1  0.21664746  0.87765655  0.15511384  1
  Al  Al20  1  0.78414390  0.75892804  0.83699543  1
  Al  Al21  1  0.45973151  0.75110566  0.41754890  1
  Al  Al22  1  0.11082637  0.75876655  0.90203672  1
  Al  Al23  1  0.22993535  0.86945708  0.65037655  1
  Al  Al24  1  0.79108552  0.74985450  0.33697268  1
  Al  Al25  1  0.91574659  0.85834121  0.15797739  1
  Al  Al26  1  0.41289290  0.77377549  0.90057695  1
  Al  Al27  1  0.53137604  0.88320790  0.67594830  1
  Gd  Gd28  1  0.76594138  0.09382451  0.89690988  1
  Gd  Gd29  1  0.88392341  0.20693787  0.62243799  1
  Gd  Gd30  1  0.45009000  0.08803593  0.40799218  1
  Gd  Gd31  1  0.77044654  0.43768629  0.88841712  1
  Gd  Gd32  1  0.88468301  0.53946175  0.61451017  1
  Gd  Gd33  1  0.53962030  0.54452048  0.14571052  1
  Gd  Gd34  1  0.88637790  0.87541639  0.61329767  1
  Gd  Gd35  1  0.56706799  0.87018270  0.11350246  1
  N  N36  1  0.20309241  0.21476464  0.33415521  1
  N  N37  1  0.11316531  0.09243834  0.09754531  1
  N  N38  1  0.91473078  0.18978268  0.85088561  1
  N  N39  1  0.72961683  0.11634856  0.63487694  1
  N  N40  1  0.56503833  0.22572991  0.33708561  1
  N  N41  1  0.42212929  0.12471766  0.09797052  1
  N  N42  1  0.20986408  0.21166938  0.85138648  1
  N  N43  1  0.14788098  0.07700865  0.58508365  1
  N  N44  1  0.90219806  0.19726796  0.35746583  1
  N  N45  1  0.78634043  0.08894796  0.13793832  1
  N  N46  1  0.50854571  0.23417746  0.85349951  1
  N  N47  1  0.43584039  0.09524106  0.62821332  1
  N  N48  1  0.23270533  0.53380532  0.34310076  1
  N  N49  1  0.11577893  0.42570263  0.09506126  1
  N  N50  1  0.90774121  0.54653317  0.85107620  1
  N  N51  1  0.73480867  0.44953811  0.65631234  1
  N  N52  1  0.56360311  0.53489707  0.36910716  1
  N  N53  1  0.41465630  0.42543090  0.08955637  1
  N  N54  1  0.20969097  0.54604910  0.84304969  1
  N  N55  1  0.14975211  0.40629598  0.58825475  1
  N  N56  1  0.90714002  0.52751894  0.36500120  1
  N  N57  1  0.80547424  0.41605197  0.14340047  1
  N  N58  1  0.50520196  0.56165233  0.85922832  1
  N  N59  1  0.43690164  0.43072635  0.60111395  1
  N  N60  1  0.23622460  0.86669050  0.34401111  1
  N  N61  1  0.11787060  0.75927782  0.09867868  1
  N  N62  1  0.90669527  0.84917286  0.85320575  1
  N  N63  1  0.73578038  0.78295544  0.65196553  1
  N  N64  1  0.57889620  0.83640517  0.34851099  1
  N  N65  1  0.40560827  0.78432461  0.08275456  1
  N  N66  1  0.20983292  0.87938366  0.84033373  1
  N  N67  1  0.15007862  0.74192743  0.58623008  1
  N  N68  1  0.90329864  0.86983075  0.36032285  1
  N  N69  1  0.82313587  0.73705410  0.14987304  1
  N  N70  1  0.54284961  0.87946658  0.87020785  1
  N  N71  1  0.44012257  0.76525320  0.60698442  1
