# generated using pymatgen
data_Gd2Al7N9
_symmetry_space_group_name_H-M   'P 1'
_cell_length_a   9.95906247
_cell_length_b   9.85445929
_cell_length_c   10.28951896
_cell_angle_alpha   90.05191896
_cell_angle_beta   89.86584824
_cell_angle_gamma   60.51221082
_symmetry_Int_Tables_number   1
_chemical_formula_structural   Gd2Al7N9
_chemical_formula_sum   'Gd8 Al28 N36'
_cell_volume   879.00845317
_cell_formula_units_Z   4
loop_
 _symmetry_equiv_pos_site_id
 _symmetry_equiv_pos_as_xyz
  1  'x, y, z'
loop_
 _atom_site_type_symbol
 _atom_site_label
 _atom_site_symmetry_multiplicity
 _atom_site_fract_x
 _atom_site_fract_y
 _atom_site_fract_z
 _atom_site_occupancy
  Al  Al0  1  0.12262237  0.08947182  0.39676791  1
  Al  Al1  1  0.21422130  0.21339459  0.14516257  1
  Al  Al2  1  0.53417765  0.22330403  0.15447071  1
  Al  Al3  1  0.11418372  0.09063092  0.90696800  1
  Al  Al4  1  0.23117708  0.19881796  0.66137914  1
  Al  Al5  1  0.76660685  0.10616465  0.38013154  1
  Al  Al6  1  0.90166473  0.20237326  0.17303235  1
  Al  Al7  1  0.42891544  0.11247453  0.89261439  1
  Al  Al8  1  0.53897379  0.21743401  0.65817377  1
  Al  Al9  1  0.12497732  0.42058033  0.39715542  1
  Al  Al10  1  0.21647163  0.53962058  0.14946370  1
  Al  Al11  1  0.43947124  0.43389655  0.41327881  1
  Al  Al12  1  0.11250957  0.43251280  0.90795664  1
  Al  Al13  1  0.23361322  0.53353816  0.65164925  1
  Al  Al14  1  0.76955562  0.43316056  0.40538904  1
  Al  Al15  1  0.90838720  0.52869232  0.16869058  1
  Al  Al16  1  0.42239123  0.43851471  0.89681451  1
  Al  Al17  1  0.53753624  0.54695633  0.64918619  1
  Al  Al18  1  0.12951879  0.75265509  0.39896589  1
  Al  Al19  1  0.21456864  0.87671917  0.15037526  1
  Al  Al20  1  0.79512762  0.75251546  0.90474659  1
  Al  Al21  1  0.44475814  0.76083856  0.41628220  1
  Al  Al22  1  0.11161261  0.75847512  0.90342457  1
  Al  Al23  1  0.23257308  0.86804129  0.65027274  1
  Al  Al24  1  0.77339986  0.75682389  0.39200155  1
  Al  Al25  1  0.90496835  0.86215212  0.17099439  1
  Al  Al26  1  0.42349343  0.76592584  0.89329398  1
  Al  Al27  1  0.55038509  0.87144359  0.66624859  1
  Gd  Gd28  1  0.77044809  0.09107684  0.92084800  1
  Gd  Gd29  1  0.89331236  0.19584317  0.62792449  1
  Gd  Gd30  1  0.44436354  0.09396466  0.41487112  1
  Gd  Gd31  1  0.77250899  0.43506399  0.90493739  1
  Gd  Gd32  1  0.90090927  0.53742510  0.63159001  1
  Gd  Gd33  1  0.54412225  0.54124258  0.16056737  1
  Gd  Gd34  1  0.88778769  0.87445857  0.62486642  1
  Gd  Gd35  1  0.55714645  0.87420394  0.12579225  1
  N  N36  1  0.20232631  0.21546843  0.32860200  1
  N  N37  1  0.10912690  0.09380061  0.09756921  1
  N  N38  1  0.91070128  0.18977650  0.84703349  1
  N  N39  1  0.72830596  0.11740044  0.56877124  1
  N  N40  1  0.55176955  0.23382285  0.33429571  1
  N  N41  1  0.42461885  0.12776083  0.08452818  1
  N  N42  1  0.21128684  0.21155177  0.84987620  1
  N  N43  1  0.15282107  0.07593683  0.58022240  1
  N  N44  1  0.89651397  0.20410274  0.36395902  1
  N  N45  1  0.78010636  0.09322900  0.14253015  1
  N  N46  1  0.52732097  0.22779346  0.84088442  1
  N  N47  1  0.44471866  0.08926967  0.63573902  1
  N  N48  1  0.22712984  0.53780914  0.33799901  1
  N  N49  1  0.11148248  0.42907575  0.09619800  1
  N  N50  1  0.90626270  0.54707693  0.85066652  1
  N  N51  1  0.74622976  0.44403836  0.59411678  1
  N  N52  1  0.54765208  0.54423492  0.37612678  1
  N  N53  1  0.42165983  0.42422468  0.08110181  1
  N  N54  1  0.21315063  0.54393746  0.84137296  1
  N  N55  1  0.15905095  0.39985644  0.58058538  1
  N  N56  1  0.89939531  0.53283471  0.36306971  1
  N  N57  1  0.80404805  0.41600962  0.12690922  1
  N  N58  1  0.51929637  0.55457185  0.83798911  1
  N  N59  1  0.44011357  0.42826116  0.59782630  1
  N  N60  1  0.22933571  0.86976608  0.33970730  1
  N  N61  1  0.11112585  0.76272161  0.09707167  1
  N  N62  1  0.90276180  0.85069480  0.84815091  1
  N  N63  1  0.73962572  0.77869104  0.57664573  1
  N  N64  1  0.56310660  0.84496388  0.34360131  1
  N  N65  1  0.40867256  0.77472915  0.07358640  1
  N  N66  1  0.21189627  0.87828833  0.83858956  1
  N  N67  1  0.14963465  0.74184888  0.58252014  1
  N  N68  1  0.89889399  0.86625495  0.36054748  1
  N  N69  1  0.81666072  0.74067988  0.11192495  1
  N  N70  1  0.56309897  0.86607930  0.86053854  1
  N  N71  1  0.44323326  0.76569168  0.60470886  1
