# generated using pymatgen
data_Gd2Al7N9
_symmetry_space_group_name_H-M   'P 1'
_cell_length_a   10.05813239
_cell_length_b   9.85808167
_cell_length_c   10.32409813
_cell_angle_alpha   90.13294785
_cell_angle_beta   90.79573475
_cell_angle_gamma   60.74077862
_symmetry_Int_Tables_number   1
_chemical_formula_structural   Gd2Al7N9
_chemical_formula_sum   'Gd8 Al28 N36'
_cell_volume   892.97355849
_cell_formula_units_Z   4
loop_
 _symmetry_equiv_pos_site_id
 _symmetry_equiv_pos_as_xyz
  1  'x, y, z'
loop_
 _atom_site_type_symbol
 _atom_site_label
 _atom_site_symmetry_multiplicity
 _atom_site_fract_x
 _atom_site_fract_y
 _atom_site_fract_z
 _atom_site_occupancy
  Al  Al0  1  0.12653291  0.08659016  0.39853099  1
  Al  Al1  1  0.21239965  0.21482259  0.15071948  1
  Al  Al2  1  0.53257721  0.22404389  0.15020500  1
  Al  Al3  1  0.11393314  0.09137162  0.90163313  1
  Al  Al4  1  0.22878598  0.19904887  0.65845176  1
  Al  Al5  1  0.78665386  0.08758438  0.31935679  1
  Al  Al6  1  0.91080870  0.19721954  0.15154392  1
  Al  Al7  1  0.41696079  0.11673404  0.90685092  1
  Al  Al8  1  0.52480454  0.22185154  0.67181286  1
  Al  Al9  1  0.12532929  0.41973164  0.40313840  1
  Al  Al10  1  0.21710602  0.53752247  0.15780776  1
  Al  Al11  1  0.45698813  0.42652587  0.41214486  1
  Al  Al12  1  0.11866160  0.42737395  0.90225331  1
  Al  Al13  1  0.23070221  0.53430260  0.64671612  1
  Al  Al14  1  0.79442230  0.42821912  0.33371039  1
  Al  Al15  1  0.91076594  0.53384164  0.08889344  1
  Al  Al16  1  0.40697639  0.44452574  0.90407913  1
  Al  Al17  1  0.52545463  0.55315947  0.66561565  1
  Al  Al18  1  0.13262243  0.75217395  0.39679211  1
  Al  Al19  1  0.21553697  0.87788851  0.15675164  1
  Al  Al20  1  0.78237283  0.75958336  0.85356496  1
  Al  Al21  1  0.46408237  0.75027953  0.41691978  1
  Al  Al22  1  0.11877995  0.75598517  0.89866442  1
  Al  Al23  1  0.22927429  0.87103419  0.64633612  1
  Al  Al24  1  0.80212003  0.74295092  0.32601449  1
  Al  Al25  1  0.91066660  0.85503801  0.09468314  1
  Al  Al26  1  0.41172034  0.77537878  0.90119692  1
  Al  Al27  1  0.53673887  0.88089988  0.68092563  1
  Gd  Gd28  1  0.76160591  0.10016698  0.88381121  1
  Gd  Gd29  1  0.87863119  0.20931388  0.61342273  1
  Gd  Gd30  1  0.45228246  0.08860142  0.40634787  1
  Gd  Gd31  1  0.76132243  0.43351988  0.88145580  1
  Gd  Gd32  1  0.88526351  0.53949703  0.61208734  1
  Gd  Gd33  1  0.53927262  0.54499526  0.14822995  1
  Gd  Gd34  1  0.88004698  0.87646680  0.59600843  1
  Gd  Gd35  1  0.56076946  0.87253054  0.11984682  1
  N  N36  1  0.20315405  0.21545954  0.33324767  1
  N  N37  1  0.11369467  0.09287483  0.09351245  1
  N  N38  1  0.91723374  0.18926152  0.84162664  1
  N  N39  1  0.73323863  0.11133676  0.65494509  1
  N  N40  1  0.57011892  0.22249659  0.33232951  1
  N  N41  1  0.42079481  0.12648386  0.09742255  1
  N  N42  1  0.21088323  0.20994306  0.84734180  1
  N  N43  1  0.14440453  0.07951185  0.58208886  1
  N  N44  1  0.90333157  0.19629881  0.34846313  1
  N  N45  1  0.78429714  0.09050999  0.12752482  1
  N  N46  1  0.50091470  0.23803035  0.85284236  1
  N  N47  1  0.44072085  0.09083273  0.62527953  1
  N  N48  1  0.23402764  0.53171878  0.34467938  1
  N  N49  1  0.12253783  0.42376098  0.09141363  1
  N  N50  1  0.90144003  0.54801892  0.89578413  1
  N  N51  1  0.73490628  0.45142535  0.66041261  1
  N  N52  1  0.56824932  0.53361583  0.36776180  1
  N  N53  1  0.41545767  0.42589003  0.08748545  1
  N  N54  1  0.20569710  0.54751733  0.83516255  1
  N  N55  1  0.15042423  0.40421312  0.58890950  1
  N  N56  1  0.90312834  0.53255819  0.38556452  1
  N  N57  1  0.80648184  0.41989820  0.13660569  1
  N  N58  1  0.49774796  0.56488543  0.85421504  1
  N  N59  1  0.44036752  0.42802604  0.59687309  1
  N  N60  1  0.23773713  0.86714668  0.34411106  1
  N  N61  1  0.12492749  0.75457648  0.10263415  1
  N  N62  1  0.90413527  0.84626772  0.90348545  1
  N  N63  1  0.74687234  0.77759682  0.67480421  1
  N  N64  1  0.58367956  0.83601190  0.34808092  1
  N  N65  1  0.40361387  0.78339749  0.08077115  1
  N  N66  1  0.20942560  0.88006794  0.83562916  1
  N  N67  1  0.14506295  0.74482436  0.58413577  1
  N  N68  1  0.89728928  0.87103063  0.37039768  1
  N  N69  1  0.82112110  0.73752448  0.14380248  1
  N  N70  1  0.53954187  0.88183245  0.87400966  1
  N  N71  1  0.44288722  0.76620939  0.60521750  1
