# generated using pymatgen
data_Gd2Al7N9
_symmetry_space_group_name_H-M   'P 1'
_cell_length_a   9.89924752
_cell_length_b   9.82908516
_cell_length_c   10.73531331
_cell_angle_alpha   90.19487757
_cell_angle_beta   89.80071829
_cell_angle_gamma   60.27355373
_symmetry_Int_Tables_number   1
_chemical_formula_structural   Gd2Al7N9
_chemical_formula_sum   'Gd8 Al28 N36'
_cell_volume   907.07039496
_cell_formula_units_Z   4
loop_
 _symmetry_equiv_pos_site_id
 _symmetry_equiv_pos_as_xyz
  1  'x, y, z'
loop_
 _atom_site_type_symbol
 _atom_site_label
 _atom_site_symmetry_multiplicity
 _atom_site_fract_x
 _atom_site_fract_y
 _atom_site_fract_z
 _atom_site_occupancy
  Al  Al0  1  0.12712818  0.08276908  0.38781040  1
  Al  Al1  1  0.21885642  0.20635005  0.14475621  1
  Al  Al2  1  0.53995211  0.21880808  0.13830885  1
  Al  Al3  1  0.11600316  0.09376374  0.90043064  1
  Al  Al4  1  0.22614579  0.19530806  0.65618825  1
  Al  Al5  1  0.79403785  0.08846763  0.29687111  1
  Al  Al6  1  0.89906171  0.20272313  0.08230896  1
  Al  Al7  1  0.41524065  0.11694339  0.89750848  1
  Al  Al8  1  0.52390524  0.21982722  0.66146366  1
  Al  Al9  1  0.11765269  0.43186273  0.31679141  1
  Al  Al10  1  0.21078970  0.54209097  0.07087085  1
  Al  Al11  1  0.46630501  0.42079803  0.40253421  1
  Al  Al12  1  0.11537117  0.43485063  0.82745610  1
  Al  Al13  1  0.22866949  0.53344480  0.57354853  1
  Al  Al14  1  0.80443436  0.41687480  0.31107075  1
  Al  Al15  1  0.91508175  0.53118730  0.07547788  1
  Al  Al16  1  0.41730090  0.44102529  0.89266009  1
  Al  Al17  1  0.52542259  0.55220384  0.65213120  1
  Al  Al18  1  0.12258476  0.75278275  0.32065593  1
  Al  Al19  1  0.21669646  0.87906428  0.13432405  1
  Al  Al20  1  0.79044611  0.75587991  0.83965655  1
  Al  Al21  1  0.46241207  0.74930233  0.40789081  1
  Al  Al22  1  0.11713812  0.75383744  0.82303869  1
  Al  Al23  1  0.22826424  0.87637275  0.64044538  1
  Al  Al24  1  0.80013282  0.74519524  0.30639648  1
  Al  Al25  1  0.91229038  0.85426640  0.07488474  1
  Al  Al26  1  0.41157137  0.77608582  0.88730721  1
  Al  Al27  1  0.54140918  0.87876362  0.67145041  1
  Gd  Gd28  1  0.75898094  0.09679457  0.86389849  1
  Gd  Gd29  1  0.86065056  0.21742107  0.56866976  1
  Gd  Gd30  1  0.45641291  0.08769769  0.39932478  1
  Gd  Gd31  1  0.75551057  0.44839296  0.86105576  1
  Gd  Gd32  1  0.88637784  0.53815962  0.57764911  1
  Gd  Gd33  1  0.53605340  0.54596041  0.15073727  1
  Gd  Gd34  1  0.88648766  0.87198731  0.57352309  1
  Gd  Gd35  1  0.55892649  0.87155867  0.11004182  1
  N  N36  1  0.21098486  0.20658106  0.32415672  1
  N  N37  1  0.12184176  0.09041312  0.08569898  1
  N  N38  1  0.90206067  0.20206318  0.90383576  1
  N  N39  1  0.74229916  0.10435862  0.64992678  1
  N  N40  1  0.56969990  0.22291327  0.31526112  1
  N  N41  1  0.42376300  0.12683697  0.07869658  1
  N  N42  1  0.20932382  0.20591619  0.83804952  1
  N  N43  1  0.13212654  0.08636873  0.57369507  1
  N  N44  1  0.90159392  0.19556653  0.35086682  1
  N  N45  1  0.78316404  0.08687522  0.11456447  1
  N  N46  1  0.49519467  0.23898378  0.83396728  1
  N  N47  1  0.44046628  0.08935428  0.61196359  1
  N  N48  1  0.22554557  0.53728550  0.38676451  1
  N  N49  1  0.11924175  0.42944281  0.13639814  1
  N  N50  1  0.90900563  0.54735543  0.89515097  1
  N  N51  1  0.74410078  0.44700031  0.65264612  1
  N  N52  1  0.57490483  0.52952943  0.36176434  1
  N  N53  1  0.43265620  0.41737855  0.07044171  1
  N  N54  1  0.20196719  0.55229031  0.89301370  1
  N  N55  1  0.13832416  0.42002968  0.64696841  1
  N  N56  1  0.90317831  0.53266300  0.36370745  1
  N  N57  1  0.80365812  0.42140267  0.12701924  1
  N  N58  1  0.49064826  0.56968489  0.82876545  1
  N  N59  1  0.45128199  0.41867660  0.58039341  1
  N  N60  1  0.24093870  0.86147435  0.34084287  1
  N  N61  1  0.12013792  0.75383402  0.13845238  1
  N  N62  1  0.91131708  0.84374030  0.89471970  1
  N  N63  1  0.75837936  0.77022786  0.66538149  1
  N  N64  1  0.57913963  0.83683861  0.33152390  1
  N  N65  1  0.40865893  0.77357416  0.06009894  1
  N  N66  1  0.20696143  0.89194713  0.82734896  1
  N  N67  1  0.13928999  0.74022549  0.64181763  1
  N  N68  1  0.89428818  0.87264499  0.35689106  1
  N  N69  1  0.82029726  0.73940035  0.13015150  1
  N  N70  1  0.54261787  0.88051029  0.85875750  1
  N  N71  1  0.44511989  0.76576242  0.59191747  1
