# generated using pymatgen
data_Gd2Al7N9
_symmetry_space_group_name_H-M   'P 1'
_cell_length_a   10.02274317
_cell_length_b   9.86445949
_cell_length_c   10.26847212
_cell_angle_alpha   90.04679718
_cell_angle_beta   90.10435778
_cell_angle_gamma   60.75697119
_symmetry_Int_Tables_number   1
_chemical_formula_structural   Gd2Al7N9
_chemical_formula_sum   'Gd8 Al28 N36'
_cell_volume   885.84561085
_cell_formula_units_Z   4
loop_
 _symmetry_equiv_pos_site_id
 _symmetry_equiv_pos_as_xyz
  1  'x, y, z'
loop_
 _atom_site_type_symbol
 _atom_site_label
 _atom_site_symmetry_multiplicity
 _atom_site_fract_x
 _atom_site_fract_y
 _atom_site_fract_z
 _atom_site_occupancy
  Al  Al0  1  0.12533418  0.08765326  0.39899031  1
  Al  Al1  1  0.21498634  0.21171660  0.14613995  1
  Al  Al2  1  0.53350849  0.22348940  0.15459081  1
  Al  Al3  1  0.11281992  0.09075090  0.90525218  1
  Al  Al4  1  0.22827314  0.20185676  0.65990122  1
  Al  Al5  1  0.76679511  0.10627053  0.38006416  1
  Al  Al6  1  0.90510624  0.19535588  0.16831900  1
  Al  Al7  1  0.42295555  0.11649373  0.89661330  1
  Al  Al8  1  0.53562114  0.21842757  0.65705122  1
  Al  Al9  1  0.13072003  0.41812369  0.40006715  1
  Al  Al10  1  0.21652388  0.53895444  0.14994888  1
  Al  Al11  1  0.44582017  0.43282860  0.41416723  1
  Al  Al12  1  0.10942500  0.43462156  0.90406295  1
  Al  Al13  1  0.23176871  0.53407238  0.65204981  1
  Al  Al14  1  0.78042004  0.42616134  0.36043796  1
  Al  Al15  1  0.91730676  0.52280859  0.16302580  1
  Al  Al16  1  0.41796365  0.43874251  0.89775956  1
  Al  Al17  1  0.53172627  0.55014000  0.65957440  1
  Al  Al18  1  0.13562026  0.75084103  0.40064670  1
  Al  Al19  1  0.21582954  0.87812766  0.15266315  1
  Al  Al20  1  0.78110106  0.76008320  0.83428399  1
  Al  Al21  1  0.45479493  0.75578514  0.41637070  1
  Al  Al22  1  0.10963860  0.75913937  0.90195166  1
  Al  Al23  1  0.23057777  0.86899382  0.64981513  1
  Al  Al24  1  0.78952895  0.75065905  0.33993542  1
  Al  Al25  1  0.91261875  0.86384650  0.16948927  1
  Al  Al26  1  0.41574496  0.77127530  0.89821499  1
  Al  Al27  1  0.53228885  0.88190743  0.67319322  1
  Gd  Gd28  1  0.76807858  0.08963162  0.91695952  1
  Gd  Gd29  1  0.88863984  0.19821108  0.62636948  1
  Gd  Gd30  1  0.44825836  0.09023638  0.40920601  1
  Gd  Gd31  1  0.77093914  0.43560032  0.89239129  1
  Gd  Gd32  1  0.89195719  0.53630914  0.61601514  1
  Gd  Gd33  1  0.53918581  0.54349652  0.15282743  1
  Gd  Gd34  1  0.88869670  0.87464986  0.61478379  1
  Gd  Gd35  1  0.56769313  0.87005822  0.11329916  1
  N  N36  1  0.20293537  0.21511633  0.32999811  1
  N  N37  1  0.10929635  0.09386306  0.09718240  1
  N  N38  1  0.91075114  0.18613694  0.84887823  1
  N  N39  1  0.72403213  0.11814113  0.56777499  1
  N  N40  1  0.55484545  0.23351193  0.33361725  1
  N  N41  1  0.42492443  0.12546855  0.09000524  1
  N  N42  1  0.20997323  0.21219739  0.84985791  1
  N  N43  1  0.14952680  0.07763850  0.58235697  1
  N  N44  1  0.89997562  0.19937564  0.36176169  1
  N  N45  1  0.78224696  0.09042774  0.14007592  1
  N  N46  1  0.52252702  0.22854057  0.84090142  1
  N  N47  1  0.43885644  0.09340915  0.62912970  1
  N  N48  1  0.23085330  0.53656954  0.33876534  1
  N  N49  1  0.11442926  0.42639366  0.09381322  1
  N  N50  1  0.90636349  0.54678822  0.84957246  1
  N  N51  1  0.74063282  0.44312611  0.63878044  1
  N  N52  1  0.55826422  0.53904701  0.37273375  1
  N  N53  1  0.41876940  0.42267356  0.08202162  1
  N  N54  1  0.21166783  0.54473271  0.84170798  1
  N  N55  1  0.15594600  0.40302845  0.58366031  1
  N  N56  1  0.90568308  0.52771170  0.36711641  1
  N  N57  1  0.80309960  0.41611637  0.14244338  1
  N  N58  1  0.51037065  0.56050704  0.84921917  1
  N  N59  1  0.43829382  0.43076019  0.59890385  1
  N  N60  1  0.23435225  0.86832213  0.34142423  1
  N  N61  1  0.11446315  0.76182724  0.09708966  1
  N  N62  1  0.90425780  0.85234518  0.84698014  1
  N  N63  1  0.73820513  0.78102460  0.64921970  1
  N  N64  1  0.57516692  0.83946071  0.34694672  1
  N  N65  1  0.40752150  0.78076776  0.07909599  1
  N  N66  1  0.21013109  0.87927426  0.83896429  1
  N  N67  1  0.15107499  0.74084768  0.58382818  1
  N  N68  1  0.90427386  0.86848900  0.36404391  1
  N  N69  1  0.82374838  0.73757291  0.15388028  1
  N  N70  1  0.54557804  0.87779236  0.86718178  1
  N  N71  1  0.44052332  0.76614388  0.60451969  1
