# generated using pymatgen
data_Gd2Al7N9
_symmetry_space_group_name_H-M   'P 1'
_cell_length_a   10.05556073
_cell_length_b   9.82850175
_cell_length_c   10.45949388
_cell_angle_alpha   90.03809006
_cell_angle_beta   90.00301384
_cell_angle_gamma   60.17797913
_symmetry_Int_Tables_number   1
_chemical_formula_structural   Gd2Al7N9
_chemical_formula_sum   'Gd8 Al28 N36'
_cell_volume   896.83156425
_cell_formula_units_Z   4
loop_
 _symmetry_equiv_pos_site_id
 _symmetry_equiv_pos_as_xyz
  1  'x, y, z'
loop_
 _atom_site_type_symbol
 _atom_site_label
 _atom_site_symmetry_multiplicity
 _atom_site_fract_x
 _atom_site_fract_y
 _atom_site_fract_z
 _atom_site_occupancy
  Al  Al0  1  0.11227195  0.09464201  0.30211527  1
  Al  Al1  1  0.21884316  0.20925622  0.06026558  1
  Al  Al2  1  0.53904538  0.21252880  0.12328929  1
  Al  Al3  1  0.12248930  0.08827769  0.81506466  1
  Al  Al4  1  0.22444706  0.20306475  0.56674976  1
  Al  Al5  1  0.78949360  0.09420994  0.27871758  1
  Al  Al6  1  0.91055134  0.20112778  0.06142772  1
  Al  Al7  1  0.41990023  0.10905978  0.83146170  1
  Al  Al8  1  0.53146617  0.22524545  0.63130072  1
  Al  Al9  1  0.11198172  0.42711994  0.30219757  1
  Al  Al10  1  0.20427481  0.54234688  0.05873908  1
  Al  Al11  1  0.45080185  0.42489300  0.37068245  1
  Al  Al12  1  0.12255039  0.42728744  0.81202891  1
  Al  Al13  1  0.23149158  0.53680831  0.55880398  1
  Al  Al14  1  0.79395940  0.42596339  0.29218831  1
  Al  Al15  1  0.91222982  0.53022130  0.05653135  1
  Al  Al16  1  0.41644808  0.43686710  0.88111430  1
  Al  Al17  1  0.55193574  0.54810954  0.54747495  1
  Al  Al18  1  0.11592760  0.76026613  0.30198579  1
  Al  Al19  1  0.21119203  0.87584134  0.05832556  1
  Al  Al20  1  0.79704064  0.75290205  0.81769177  1
  Al  Al21  1  0.43853372  0.76494704  0.30992899  1
  Al  Al22  1  0.11917317  0.75584798  0.81014759  1
  Al  Al23  1  0.23390461  0.86754484  0.56304543  1
  Al  Al24  1  0.79316065  0.75143070  0.28427819  1
  Al  Al25  1  0.90764870  0.85749455  0.05658578  1
  Al  Al26  1  0.42202624  0.75805714  0.80777762  1
  Al  Al27  1  0.54576968  0.87711827  0.64004386  1
  Gd  Gd28  1  0.76108565  0.10230966  0.84846794  1
  Gd  Gd29  1  0.89415424  0.19835326  0.54931873  1
  Gd  Gd30  1  0.45283000  0.08770967  0.35315214  1
  Gd  Gd31  1  0.76578677  0.44058267  0.82199174  1
  Gd  Gd32  1  0.89997147  0.53681492  0.55377507  1
  Gd  Gd33  1  0.54565904  0.52908600  0.09665863  1
  Gd  Gd34  1  0.88550206  0.87576151  0.55744282  1
  Gd  Gd35  1  0.55549066  0.86375188  0.06986608  1
  N  N36  1  0.18579257  0.22269739  0.38124075  1
  N  N37  1  0.11837183  0.09152584  0.11775268  1
  N  N38  1  0.92162059  0.19311714  0.87836974  1
  N  N39  1  0.74654223  0.11342803  0.62573908  1
  N  N40  1  0.57404459  0.22417182  0.30045793  1
  N  N41  1  0.42613027  0.11272175  0.10746116  1
  N  N42  1  0.21362327  0.21028468  0.87450395  1
  N  N43  1  0.14226951  0.07827657  0.63286376  1
  N  N44  1  0.89231897  0.20322641  0.32983574  1
  N  N45  1  0.78077103  0.09203761  0.09076076  1
  N  N46  1  0.50037450  0.23877594  0.81066334  1
  N  N47  1  0.44275136  0.09212696  0.59139954  1
  N  N48  1  0.21669530  0.54128834  0.36549101  1
  N  N49  1  0.11608283  0.42222039  0.11881014  1
  N  N50  1  0.91240790  0.54333124  0.87008196  1
  N  N51  1  0.75251868  0.44210356  0.60579350  1
  N  N52  1  0.55981907  0.54182579  0.35154679  1
  N  N53  1  0.41675192  0.41028405  0.06281415  1
  N  N54  1  0.20385788  0.55098217  0.87401173  1
  N  N55  1  0.14867357  0.41285530  0.63045818  1
  N  N56  1  0.89659935  0.53874064  0.33943081  1
  N  N57  1  0.80851036  0.41872451  0.10563001  1
  N  N58  1  0.51610947  0.55639922  0.87375792  1
  N  N59  1  0.44896347  0.42637257  0.55455750  1
  N  N60  1  0.21977943  0.87621462  0.37499628  1
  N  N61  1  0.11393258  0.75981491  0.11711289  1
  N  N62  1  0.91059060  0.84721242  0.86915629  1
  N  N63  1  0.75809183  0.76966304  0.64068462  1
  N  N64  1  0.58230052  0.83610534  0.31431163  1
  N  N65  1  0.39997792  0.77785941  0.13387691  1
  N  N66  1  0.21810324  0.87292807  0.87236472  1
  N  N67  1  0.14083633  0.74763102  0.62588639  1
  N  N68  1  0.89068217  0.87642806  0.33613131  1
  N  N69  1  0.81520100  0.74242348  0.10437499  1
  N  N70  1  0.54034474  0.88054023  0.83470973  1
  N  N71  1  0.44323683  0.75749438  0.61967581  1
