# generated using pymatgen
data_Gd2Al7N9
_symmetry_space_group_name_H-M   'P 1'
_cell_length_a   9.92491150
_cell_length_b   9.83088023
_cell_length_c   10.71440043
_cell_angle_alpha   90.30393412
_cell_angle_beta   90.22283447
_cell_angle_gamma   60.40436873
_symmetry_Int_Tables_number   1
_chemical_formula_structural   Gd2Al7N9
_chemical_formula_sum   'Gd8 Al28 N36'
_cell_volume   909.00487344
_cell_formula_units_Z   4
loop_
 _symmetry_equiv_pos_site_id
 _symmetry_equiv_pos_as_xyz
  1  'x, y, z'
loop_
 _atom_site_type_symbol
 _atom_site_label
 _atom_site_symmetry_multiplicity
 _atom_site_fract_x
 _atom_site_fract_y
 _atom_site_fract_z
 _atom_site_occupancy
  Al  Al0  1  0.12784372  0.08316160  0.38590455  1
  Al  Al1  1  0.21593873  0.21331648  0.14465292  1
  Al  Al2  1  0.54057799  0.21915383  0.13795721  1
  Al  Al3  1  0.11840911  0.09260219  0.90086098  1
  Al  Al4  1  0.22433179  0.20050949  0.64752640  1
  Al  Al5  1  0.79568161  0.08792909  0.29671861  1
  Al  Al6  1  0.90310532  0.20039903  0.08351721  1
  Al  Al7  1  0.41542791  0.11797492  0.89523391  1
  Al  Al8  1  0.52685812  0.21891672  0.66088665  1
  Al  Al9  1  0.12526702  0.41685615  0.38906626  1
  Al  Al10  1  0.21243051  0.54484570  0.07144593  1
  Al  Al11  1  0.46917674  0.42098025  0.40170950  1
  Al  Al12  1  0.11108628  0.42408721  0.89687186  1
  Al  Al13  1  0.23345473  0.53481350  0.56852439  1
  Al  Al14  1  0.80537251  0.41690975  0.31227540  1
  Al  Al15  1  0.90443587  0.53473334  0.07867840  1
  Al  Al16  1  0.41556458  0.44157976  0.89118754  1
  Al  Al17  1  0.52380089  0.55351974  0.65255136  1
  Al  Al18  1  0.12268258  0.75004443  0.31824220  1
  Al  Al19  1  0.22022410  0.88093610  0.14612514  1
  Al  Al20  1  0.78528488  0.75990100  0.83954243  1
  Al  Al21  1  0.46320342  0.75048328  0.40620053  1
  Al  Al22  1  0.11587947  0.75200166  0.82139905  1
  Al  Al23  1  0.22843827  0.87619696  0.64341876  1
  Al  Al24  1  0.80251613  0.74358369  0.30796479  1
  Al  Al25  1  0.91406618  0.85326903  0.07523455  1
  Al  Al26  1  0.40829743  0.77757093  0.88993130  1
  Al  Al27  1  0.53738641  0.88133974  0.67145638  1
  Gd  Gd28  1  0.76161927  0.09579958  0.86456007  1
  Gd  Gd29  1  0.86454563  0.21672015  0.56960282  1
  Gd  Gd30  1  0.45891220  0.08739924  0.39872972  1
  Gd  Gd31  1  0.75032931  0.44623779  0.86329007  1
  Gd  Gd32  1  0.87656270  0.54409807  0.58484803  1
  Gd  Gd33  1  0.53550840  0.54732241  0.15074881  1
  Gd  Gd34  1  0.88598548  0.87256502  0.57352191  1
  Gd  Gd35  1  0.55909627  0.87324438  0.10848461  1
  N  N36  1  0.21056312  0.21070243  0.32274339  1
  N  N37  1  0.12492506  0.08923461  0.08711814  1
  N  N38  1  0.90566945  0.20037063  0.90447026  1
  N  N39  1  0.74457826  0.10520793  0.64922949  1
  N  N40  1  0.57271734  0.22212366  0.31553513  1
  N  N41  1  0.42384241  0.12766812  0.07900171  1
  N  N42  1  0.20609110  0.21246619  0.83211419  1
  N  N43  1  0.13549529  0.08117688  0.57068837  1
  N  N44  1  0.90295654  0.19553991  0.35080538  1
  N  N45  1  0.78493293  0.08599145  0.11422743  1
  N  N46  1  0.49829918  0.23835996  0.83400072  1
  N  N47  1  0.44124555  0.08964160  0.61204371  1
  N  N48  1  0.23372806  0.53980435  0.38227210  1
  N  N49  1  0.11883272  0.41745963  0.08243723  1
  N  N50  1  0.89403385  0.55388240  0.89412992  1
  N  N51  1  0.74104795  0.44547954  0.65513145  1
  N  N52  1  0.57635279  0.53058523  0.36178130  1
  N  N53  1  0.43214992  0.41820058  0.07045371  1
  N  N54  1  0.20181958  0.55235641  0.88914020  1
  N  N55  1  0.14371345  0.40270502  0.57454534  1
  N  N56  1  0.90387421  0.53225672  0.36743628  1
  N  N57  1  0.80190501  0.42025644  0.12872587  1
  N  N58  1  0.48701564  0.57253321  0.82938648  1
  N  N59  1  0.45312852  0.41842402  0.58085442  1
  N  N60  1  0.24241671  0.86440750  0.33070917  1
  N  N61  1  0.12091916  0.75374232  0.13810817  1
  N  N62  1  0.91136542  0.84257469  0.89460081  1
  N  N63  1  0.75279298  0.77779814  0.66609997  1
  N  N64  1  0.58100342  0.83716143  0.33169864  1
  N  N65  1  0.40636592  0.77641947  0.06263837  1
  N  N66  1  0.20647628  0.89297671  0.82480447  1
  N  N67  1  0.13893421  0.73841215  0.64070748  1
  N  N68  1  0.89676651  0.87182754  0.35721443  1
  N  N69  1  0.82111633  0.73962442  0.13247171  1
  N  N70  1  0.53838175  0.88350249  0.85942756  1
  N  N71  1  0.44304093  0.76617107  0.59028608  1
