# generated using pymatgen
data_Gd2Al7N9
_symmetry_space_group_name_H-M   'P 1'
_cell_length_a   9.89067310
_cell_length_b   9.82669579
_cell_length_c   10.80524452
_cell_angle_alpha   89.99896179
_cell_angle_beta   89.45310702
_cell_angle_gamma   60.16019216
_symmetry_Int_Tables_number   1
_chemical_formula_structural   Gd2Al7N9
_chemical_formula_sum   'Gd8 Al28 N36'
_cell_volume   910.90088512
_cell_formula_units_Z   4
loop_
 _symmetry_equiv_pos_site_id
 _symmetry_equiv_pos_as_xyz
  1  'x, y, z'
loop_
 _atom_site_type_symbol
 _atom_site_label
 _atom_site_symmetry_multiplicity
 _atom_site_fract_x
 _atom_site_fract_y
 _atom_site_fract_z
 _atom_site_occupancy
  Al  Al0  1  0.12090327  0.08154875  0.33687074  1
  Al  Al1  1  0.22120690  0.20922700  0.14205133  1
  Al  Al2  1  0.53986478  0.21763015  0.13711766  1
  Al  Al3  1  0.11153266  0.10008998  0.89791240  1
  Al  Al4  1  0.22598618  0.19443303  0.66242596  1
  Al  Al5  1  0.78937185  0.08769836  0.29602909  1
  Al  Al6  1  0.89759985  0.20386151  0.08974660  1
  Al  Al7  1  0.41884455  0.11539460  0.89781384  1
  Al  Al8  1  0.52714418  0.21905632  0.66117522  1
  Al  Al9  1  0.11690963  0.43371492  0.31580429  1
  Al  Al10  1  0.21071798  0.54199087  0.06963454  1
  Al  Al11  1  0.46514157  0.42089663  0.40384882  1
  Al  Al12  1  0.11417450  0.43738342  0.82965233  1
  Al  Al13  1  0.22898669  0.53507166  0.57718217  1
  Al  Al14  1  0.80245327  0.42027708  0.31010163  1
  Al  Al15  1  0.91290242  0.53262966  0.07553466  1
  Al  Al16  1  0.41794211  0.44050533  0.89157066  1
  Al  Al17  1  0.52701834  0.55194661  0.65134743  1
  Al  Al18  1  0.12351377  0.75469042  0.32016575  1
  Al  Al19  1  0.20757205  0.87214848  0.07019417  1
  Al  Al20  1  0.78795504  0.75721387  0.83917867  1
  Al  Al21  1  0.47339159  0.74366952  0.40933684  1
  Al  Al22  1  0.11843076  0.75653301  0.82429258  1
  Al  Al23  1  0.22768466  0.87362173  0.57307193  1
  Al  Al24  1  0.80115617  0.74584439  0.30763057  1
  Al  Al25  1  0.90975945  0.85508429  0.07469865  1
  Al  Al26  1  0.41853116  0.77207307  0.89008267  1
  Al  Al27  1  0.54029080  0.87863799  0.67089177  1
  Gd  Gd28  1  0.76386772  0.09788193  0.86094466  1
  Gd  Gd29  1  0.86994465  0.21361399  0.56210239  1
  Gd  Gd30  1  0.45157601  0.09006705  0.40306976  1
  Gd  Gd31  1  0.75645386  0.44792209  0.85898241  1
  Gd  Gd32  1  0.88869390  0.53679769  0.57838913  1
  Gd  Gd33  1  0.53601316  0.54122572  0.15236223  1
  Gd  Gd34  1  0.88831135  0.87119814  0.57476600  1
  Gd  Gd35  1  0.55834956  0.87193296  0.11585498  1
  N  N36  1  0.21185065  0.20854968  0.32064029  1
  N  N37  1  0.12007403  0.08860148  0.10925290  1
  N  N38  1  0.90198285  0.20544233  0.91427602  1
  N  N39  1  0.74650010  0.10487679  0.64823279  1
  N  N40  1  0.56548168  0.22404427  0.31472652  1
  N  N41  1  0.42490763  0.12612906  0.07639269  1
  N  N42  1  0.21062565  0.20773272  0.84458715  1
  N  N43  1  0.12652311  0.09050793  0.59892527  1
  N  N44  1  0.89814909  0.19632099  0.34186875  1
  N  N45  1  0.78060209  0.08635201  0.11550379  1
  N  N46  1  0.49938203  0.23729230  0.83325603  1
  N  N47  1  0.44063174  0.09061255  0.61428861  1
  N  N48  1  0.22396565  0.53836420  0.38833464  1
  N  N49  1  0.11772591  0.43182338  0.13592012  1
  N  N50  1  0.90678848  0.54898741  0.89660490  1
  N  N51  1  0.74757753  0.44277296  0.65164636  1
  N  N52  1  0.57590626  0.52801063  0.36188846  1
  N  N53  1  0.43228557  0.41577313  0.06777760  1
  N  N54  1  0.20172586  0.55331028  0.89292559  1
  N  N55  1  0.13892767  0.42138139  0.65124701  1
  N  N56  1  0.90266846  0.53288927  0.36482568  1
  N  N57  1  0.80257411  0.42406995  0.12908806  1
  N  N58  1  0.49073835  0.57024779  0.82646320  1
  N  N59  1  0.45148935  0.41921522  0.58054602  1
  N  N60  1  0.23290932  0.86087283  0.38360034  1
  N  N61  1  0.12167604  0.75448601  0.13902909  1
  N  N62  1  0.90797781  0.84451678  0.89502753  1
  N  N63  1  0.75884795  0.76980063  0.66582797  1
  N  N64  1  0.57913689  0.83930454  0.33338329  1
  N  N65  1  0.42088857  0.76562824  0.06428460  1
  N  N66  1  0.19759182  0.88385514  0.88807072  1
  N  N67  1  0.14430217  0.74593435  0.64400600  1
  N  N68  1  0.89369586  0.87317430  0.35781751  1
  N  N69  1  0.82019439  0.73973976  0.13235406  1
  N  N70  1  0.53985827  0.88052060  0.85666120  1
  N  N71  1  0.45153167  0.76331070  0.58909919  1
