# generated using pymatgen
data_Gd2Al7N9
_symmetry_space_group_name_H-M   'P 1'
_cell_length_a   10.05188578
_cell_length_b   9.86820439
_cell_length_c   10.33597697
_cell_angle_alpha   90.13871337
_cell_angle_beta   90.76013114
_cell_angle_gamma   60.74605600
_symmetry_Int_Tables_number   1
_chemical_formula_structural   Gd2Al7N9
_chemical_formula_sum   'Gd8 Al28 N36'
_cell_volume   894.41894620
_cell_formula_units_Z   4
loop_
 _symmetry_equiv_pos_site_id
 _symmetry_equiv_pos_as_xyz
  1  'x, y, z'
loop_
 _atom_site_type_symbol
 _atom_site_label
 _atom_site_symmetry_multiplicity
 _atom_site_fract_x
 _atom_site_fract_y
 _atom_site_fract_z
 _atom_site_occupancy
  Al  Al0  1  0.12688281  0.08726786  0.39950995  1
  Al  Al1  1  0.21235379  0.21501637  0.15112948  1
  Al  Al2  1  0.53286846  0.22404542  0.14987698  1
  Al  Al3  1  0.11382214  0.09209410  0.90242013  1
  Al  Al4  1  0.22891987  0.19898552  0.65911142  1
  Al  Al5  1  0.78551899  0.08849269  0.31816347  1
  Al  Al6  1  0.91047688  0.19731716  0.15137886  1
  Al  Al7  1  0.41731366  0.11684918  0.90719724  1
  Al  Al8  1  0.52571934  0.22132776  0.67240988  1
  Al  Al9  1  0.12563849  0.41879361  0.40406817  1
  Al  Al10  1  0.21782597  0.53526683  0.16104130  1
  Al  Al11  1  0.45682647  0.42617459  0.41260326  1
  Al  Al12  1  0.11877200  0.42676086  0.90310314  1
  Al  Al13  1  0.23202498  0.53087548  0.64471488  1
  Al  Al14  1  0.79435313  0.42822310  0.33371945  1
  Al  Al15  1  0.91040576  0.53397579  0.08893593  1
  Al  Al16  1  0.40720438  0.44453315  0.90487001  1
  Al  Al17  1  0.52520609  0.55339168  0.66578960  1
  Al  Al18  1  0.12526790  0.75568845  0.36623082  1
  Al  Al19  1  0.21624598  0.87981582  0.15970559  1
  Al  Al20  1  0.78440188  0.75874850  0.85448685  1
  Al  Al21  1  0.46356134  0.75093210  0.41720060  1
  Al  Al22  1  0.11398099  0.75893446  0.85244921  1
  Al  Al23  1  0.23057972  0.87288256  0.64409745  1
  Al  Al24  1  0.80087599  0.74302462  0.32455339  1
  Al  Al25  1  0.91616616  0.85175970  0.09528047  1
  Al  Al26  1  0.41162860  0.77507431  0.90185748  1
  Al  Al27  1  0.53765594  0.88076741  0.68163546  1
  Gd  Gd28  1  0.76309166  0.09806393  0.88379908  1
  Gd  Gd29  1  0.87851090  0.20933166  0.61371902  1
  Gd  Gd30  1  0.45225705  0.08854779  0.40642860  1
  Gd  Gd31  1  0.76096082  0.43362002  0.88139073  1
  Gd  Gd32  1  0.88484488  0.54002994  0.61203902  1
  Gd  Gd33  1  0.53879692  0.54532225  0.14879096  1
  Gd  Gd34  1  0.87859856  0.87691507  0.59039437  1
  Gd  Gd35  1  0.56006260  0.87281242  0.11970157  1
  N  N36  1  0.20308713  0.21557476  0.33334948  1
  N  N37  1  0.11376378  0.09309844  0.09374902  1
  N  N38  1  0.91695613  0.18911384  0.84234921  1
  N  N39  1  0.73427267  0.11042660  0.65579015  1
  N  N40  1  0.56985181  0.22258804  0.33205041  1
  N  N41  1  0.42075304  0.12668501  0.09748135  1
  N  N42  1  0.21110794  0.20992956  0.84785009  1
  N  N43  1  0.14386659  0.08097914  0.58260086  1
  N  N44  1  0.90336399  0.19603069  0.34844533  1
  N  N45  1  0.78404355  0.09088638  0.12668710  1
  N  N46  1  0.50202967  0.23775475  0.85355943  1
  N  N47  1  0.44119067  0.09064711  0.62567182  1
  N  N48  1  0.23659846  0.52674353  0.34865074  1
  N  N49  1  0.12237664  0.42386962  0.09184567  1
  N  N50  1  0.90180056  0.54748507  0.89598553  1
  N  N51  1  0.73494372  0.45142137  0.66080272  1
  N  N52  1  0.56788789  0.53383549  0.36787308  1
  N  N53  1  0.41480343  0.42643556  0.08788145  1
  N  N54  1  0.20790359  0.54286584  0.83416596  1
  N  N55  1  0.14975702  0.40310218  0.58926045  1
  N  N56  1  0.90298575  0.53308600  0.38535881  1
  N  N57  1  0.80632824  0.41993711  0.13677685  1
  N  N58  1  0.49714233  0.56531810  0.85413580  1
  N  N59  1  0.44142027  0.42722871  0.59702608  1
  N  N60  1  0.24100157  0.86934140  0.34802041  1
  N  N61  1  0.11964488  0.75743642  0.14605920  1
  N  N62  1  0.91179634  0.84222326  0.90508817  1
  N  N63  1  0.74808897  0.77776577  0.67632392  1
  N  N64  1  0.58351261  0.83608584  0.34772107  1
  N  N65  1  0.40225759  0.78338129  0.08072490  1
  N  N66  1  0.21124598  0.88263581  0.83452391  1
  N  N67  1  0.13980177  0.74722282  0.60236779  1
  N  N68  1  0.89304101  0.87291239  0.36925809  1
  N  N69  1  0.82026162  0.73816980  0.14193799  1
  N  N70  1  0.54004432  0.88195393  0.87465247  1
  N  N71  1  0.44396618  0.76599383  0.60526518  1
