# generated using pymatgen
data_Gd2Al7N9
_symmetry_space_group_name_H-M   'P 1'
_cell_length_a   10.01012820
_cell_length_b   9.86624332
_cell_length_c   10.44822923
_cell_angle_alpha   90.19062381
_cell_angle_beta   90.56896666
_cell_angle_gamma   60.67496238
_symmetry_Int_Tables_number   1
_chemical_formula_structural   Gd2Al7N9
_chemical_formula_sum   'Gd8 Al28 N36'
_cell_volume   899.61459915
_cell_formula_units_Z   4
loop_
 _symmetry_equiv_pos_site_id
 _symmetry_equiv_pos_as_xyz
  1  'x, y, z'
loop_
 _atom_site_type_symbol
 _atom_site_label
 _atom_site_symmetry_multiplicity
 _atom_site_fract_x
 _atom_site_fract_y
 _atom_site_fract_z
 _atom_site_occupancy
  Al  Al0  1  0.12631031  0.08665142  0.39600594  1
  Al  Al1  1  0.21320730  0.21446388  0.14886292  1
  Al  Al2  1  0.53538778  0.22211568  0.14659942  1
  Al  Al3  1  0.11398519  0.09407999  0.89981414  1
  Al  Al4  1  0.22876622  0.19916078  0.65639106  1
  Al  Al5  1  0.78585702  0.08807282  0.31346930  1
  Al  Al6  1  0.90944955  0.19814437  0.14832312  1
  Al  Al7  1  0.41841656  0.11679622  0.90364715  1
  Al  Al8  1  0.52688977  0.22062228  0.66978396  1
  Al  Al9  1  0.12545430  0.41933764  0.40067461  1
  Al  Al10  1  0.22004388  0.53020163  0.15470044  1
  Al  Al11  1  0.45477760  0.42726242  0.40984409  1
  Al  Al12  1  0.11813356  0.42558675  0.90165222  1
  Al  Al13  1  0.23179359  0.52664375  0.64898384  1
  Al  Al14  1  0.79407856  0.42776023  0.33050317  1
  Al  Al15  1  0.90893664  0.53402123  0.08527410  1
  Al  Al16  1  0.40784000  0.44339669  0.90260060  1
  Al  Al17  1  0.52242605  0.55487477  0.66330052  1
  Al  Al18  1  0.11898829  0.75875244  0.33230849  1
  Al  Al19  1  0.21773939  0.88279356  0.15285387  1
  Al  Al20  1  0.78664336  0.75827676  0.84979747  1
  Al  Al21  1  0.46162920  0.75155277  0.41395412  1
  Al  Al22  1  0.11481237  0.75831062  0.82733473  1
  Al  Al23  1  0.23073379  0.87658618  0.64779834  1
  Al  Al24  1  0.80109168  0.74248636  0.32017764  1
  Al  Al25  1  0.91863432  0.84895739  0.08563312  1
  Al  Al26  1  0.41218596  0.77595986  0.90002506  1
  Al  Al27  1  0.53825760  0.88065985  0.67939664  1
  Gd  Gd28  1  0.76586102  0.09571163  0.87927888  1
  Gd  Gd29  1  0.87867014  0.21001456  0.61252384  1
  Gd  Gd30  1  0.45251023  0.08811538  0.40505749  1
  Gd  Gd31  1  0.75810603  0.43529923  0.87753111  1
  Gd  Gd32  1  0.88267781  0.54041204  0.60628260  1
  Gd  Gd33  1  0.53768620  0.54622727  0.14896006  1
  Gd  Gd34  1  0.88075425  0.87550624  0.58394623  1
  Gd  Gd35  1  0.56216097  0.87329941  0.11583195  1
  N  N36  1  0.20368218  0.21513600  0.32980714  1
  N  N37  1  0.11321823  0.09486076  0.08985994  1
  N  N38  1  0.91686731  0.19084866  0.83813005  1
  N  N39  1  0.73650514  0.10801540  0.65240838  1
  N  N40  1  0.56890732  0.22264669  0.32799639  1
  N  N41  1  0.42143275  0.12692020  0.09233311  1
  N  N42  1  0.21153089  0.21054095  0.84378386  1
  N  N43  1  0.14432936  0.08066342  0.57783446  1
  N  N44  1  0.90310761  0.19595843  0.34399440  1
  N  N45  1  0.78434841  0.09012051  0.12293857  1
  N  N46  1  0.50462765  0.23651124  0.84931840  1
  N  N47  1  0.44205176  0.09016241  0.62271656  1
  N  N48  1  0.23433345  0.52891884  0.34260099  1
  N  N49  1  0.12180411  0.42213453  0.08870252  1
  N  N50  1  0.89993782  0.54807789  0.89557744  1
  N  N51  1  0.73317036  0.45235545  0.65944147  1
  N  N52  1  0.56704919  0.53394817  0.36566423  1
  N  N53  1  0.41786310  0.42425101  0.08389727  1
  N  N54  1  0.20924418  0.53710292  0.83516390  1
  N  N55  1  0.14897486  0.40291369  0.58474028  1
  N  N56  1  0.90195465  0.53336700  0.38247869  1
  N  N57  1  0.80482761  0.42062927  0.13496831  1
  N  N58  1  0.49377636  0.56740218  0.84922113  1
  N  N59  1  0.43940427  0.42790455  0.59318434  1
  N  N60  1  0.23871432  0.86944003  0.34162406  1
  N  N61  1  0.12043747  0.75715630  0.14553347  1
  N  N62  1  0.91588368  0.83971887  0.90124446  1
  N  N63  1  0.75012018  0.77754792  0.67316641  1
  N  N64  1  0.58238260  0.83645878  0.34287872  1
  N  N65  1  0.40512894  0.78277566  0.07714604  1
  N  N66  1  0.21358152  0.88761388  0.83482627  1
  N  N67  1  0.13364324  0.75015475  0.63900734  1
  N  N68  1  0.89483912  0.87211244  0.36492564  1
  N  N69  1  0.82310074  0.73733638  0.14007314  1
  N  N70  1  0.54225055  0.88168531  0.87116962  1
  N  N71  1  0.44263219  0.76668953  0.60081619  1
