# generated using pymatgen
data_Gd2Al7N9
_symmetry_space_group_name_H-M   'P 1'
_cell_length_a   9.88823839
_cell_length_b   9.82717014
_cell_length_c   10.80437806
_cell_angle_alpha   89.99818631
_cell_angle_beta   89.44494873
_cell_angle_gamma   60.14494851
_symmetry_Int_Tables_number   1
_chemical_formula_structural   Gd2Al7N9
_chemical_formula_sum   'Gd8 Al28 N36'
_cell_volume   910.50698125
_cell_formula_units_Z   4
loop_
 _symmetry_equiv_pos_site_id
 _symmetry_equiv_pos_as_xyz
  1  'x, y, z'
loop_
 _atom_site_type_symbol
 _atom_site_label
 _atom_site_symmetry_multiplicity
 _atom_site_fract_x
 _atom_site_fract_y
 _atom_site_fract_z
 _atom_site_occupancy
  Al  Al0  1  0.11976982  0.07982342  0.31730239  1
  Al  Al1  1  0.22165599  0.20987453  0.14209830  1
  Al  Al2  1  0.54005056  0.21763758  0.13721460  1
  Al  Al3  1  0.10918613  0.09777518  0.87159403  1
  Al  Al4  1  0.22768547  0.19577578  0.66348120  1
  Al  Al5  1  0.78878481  0.08843615  0.29637305  1
  Al  Al6  1  0.90051425  0.20204942  0.08997273  1
  Al  Al7  1  0.41927789  0.11531454  0.89839546  1
  Al  Al8  1  0.52781782  0.21911902  0.66090932  1
  Al  Al9  1  0.11686432  0.43366440  0.31613105  1
  Al  Al10  1  0.21070138  0.54234201  0.06984541  1
  Al  Al11  1  0.46502520  0.42103110  0.40377074  1
  Al  Al12  1  0.11387033  0.43814782  0.83005924  1
  Al  Al13  1  0.22893921  0.53538509  0.57711458  1
  Al  Al14  1  0.80216232  0.42003927  0.31039516  1
  Al  Al15  1  0.91270631  0.53262212  0.07559236  1
  Al  Al16  1  0.41811152  0.44046123  0.89158055  1
  Al  Al17  1  0.52745492  0.55169229  0.65106723  1
  Al  Al18  1  0.12337939  0.75523958  0.32054760  1
  Al  Al19  1  0.20638594  0.87434992  0.07002394  1
  Al  Al20  1  0.78748217  0.75755514  0.83909290  1
  Al  Al21  1  0.47234959  0.74441155  0.40906274  1
  Al  Al22  1  0.11821445  0.75617758  0.82422082  1
  Al  Al23  1  0.22723382  0.87445145  0.57366108  1
  Al  Al24  1  0.80098571  0.74594073  0.30766168  1
  Al  Al25  1  0.90968603  0.85522933  0.07502746  1
  Al  Al26  1  0.41914902  0.77181304  0.89048940  1
  Al  Al27  1  0.53996497  0.87869621  0.67067842  1
  Gd  Gd28  1  0.76420171  0.09808009  0.86120160  1
  Gd  Gd29  1  0.87364136  0.21161685  0.56206913  1
  Gd  Gd30  1  0.45078172  0.09036523  0.40259328  1
  Gd  Gd31  1  0.75716453  0.44693766  0.85916101  1
  Gd  Gd32  1  0.88835681  0.53709249  0.57831286  1
  Gd  Gd33  1  0.53618107  0.54120610  0.15209087  1
  Gd  Gd34  1  0.88815619  0.87131939  0.57460291  1
  Gd  Gd35  1  0.55826378  0.87183216  0.11619657  1
  N  N36  1  0.21138891  0.20962861  0.32185486  1
  N  N37  1  0.11953547  0.08423344  0.12739937  1
  N  N38  1  0.90589417  0.20332052  0.91550124  1
  N  N39  1  0.74725246  0.10541974  0.64809568  1
  N  N40  1  0.56491956  0.22430070  0.31463560  1
  N  N41  1  0.42510625  0.12597163  0.07651847  1
  N  N42  1  0.21141951  0.20943415  0.84613775  1
  N  N43  1  0.12563803  0.08744813  0.61819221  1
  N  N44  1  0.89685819  0.19711812  0.34298152  1
  N  N45  1  0.78052414  0.08648509  0.11527646  1
  N  N46  1  0.49994884  0.23706815  0.83318809  1
  N  N47  1  0.44080006  0.09078881  0.61403570  1
  N  N48  1  0.22368388  0.53889206  0.38850966  1
  N  N49  1  0.11756575  0.43201635  0.13570175  1
  N  N50  1  0.90620063  0.54931926  0.89639457  1
  N  N51  1  0.74840064  0.44147963  0.65156537  1
  N  N52  1  0.57507969  0.52867883  0.36157106  1
  N  N53  1  0.43233280  0.41569825  0.06767490  1
  N  N54  1  0.20180233  0.55354450  0.89300710  1
  N  N55  1  0.13874308  0.42179284  0.65142265  1
  N  N56  1  0.90228604  0.53315543  0.36486236  1
  N  N57  1  0.80309723  0.42336713  0.12870235  1
  N  N58  1  0.49128354  0.57011855  0.82649396  1
  N  N59  1  0.45140094  0.41936626  0.58060971  1
  N  N60  1  0.23082698  0.86413918  0.38465576  1
  N  N61  1  0.12182930  0.75453253  0.13893419  1
  N  N62  1  0.90766948  0.84480151  0.89490750  1
  N  N63  1  0.75860786  0.77002807  0.66577277  1
  N  N64  1  0.57883440  0.83934641  0.33315494  1
  N  N65  1  0.42036958  0.76604784  0.06429855  1
  N  N66  1  0.19769409  0.88377071  0.88891656  1
  N  N67  1  0.14414903  0.74596360  0.64424257  1
  N  N68  1  0.89330857  0.87339471  0.35776472  1
  N  N69  1  0.82010459  0.73972362  0.13224977  1
  N  N70  1  0.53959035  0.88078620  0.85650943  1
  N  N71  1  0.45158815  0.76327782  0.58888364  1
