# generated using pymatgen
data_Gd2Al7N9
_symmetry_space_group_name_H-M   'P 1'
_cell_length_a   9.87586386
_cell_length_b   9.83362520
_cell_length_c   10.79855235
_cell_angle_alpha   90.18636450
_cell_angle_beta   89.36822191
_cell_angle_gamma   60.13813235
_symmetry_Int_Tables_number   1
_chemical_formula_structural   Gd2Al7N9
_chemical_formula_sum   'Gd8 Al28 N36'
_cell_volume   909.36714410
_cell_formula_units_Z   4
loop_
 _symmetry_equiv_pos_site_id
 _symmetry_equiv_pos_as_xyz
  1  'x, y, z'
loop_
 _atom_site_type_symbol
 _atom_site_label
 _atom_site_symmetry_multiplicity
 _atom_site_fract_x
 _atom_site_fract_y
 _atom_site_fract_z
 _atom_site_occupancy
  Al  Al0  1  0.11603877  0.08201699  0.30172551  1
  Al  Al1  1  0.21966387  0.21040424  0.12949150  1
  Al  Al2  1  0.54013521  0.21893252  0.12318752  1
  Al  Al3  1  0.11114679  0.08746753  0.81749032  1
  Al  Al4  1  0.23421843  0.19825651  0.65277583  1
  Al  Al5  1  0.78858154  0.09231481  0.28277796  1
  Al  Al6  1  0.90883770  0.19760530  0.06690446  1
  Al  Al7  1  0.41628292  0.11688757  0.88613438  1
  Al  Al8  1  0.53006680  0.21893040  0.64636944  1
  Al  Al9  1  0.11471313  0.43653478  0.30282307  1
  Al  Al10  1  0.21105150  0.54312498  0.05697237  1
  Al  Al11  1  0.46402216  0.42364668  0.38850008  1
  Al  Al12  1  0.11374221  0.43675952  0.81765744  1
  Al  Al13  1  0.22880180  0.53537702  0.56298253  1
  Al  Al14  1  0.80155223  0.41922381  0.29725729  1
  Al  Al15  1  0.91301436  0.53215475  0.06185822  1
  Al  Al16  1  0.41851161  0.43956752  0.87734524  1
  Al  Al17  1  0.53026472  0.54897022  0.63703604  1
  Al  Al18  1  0.12116795  0.75900535  0.30758611  1
  Al  Al19  1  0.20451587  0.87814524  0.05234087  1
  Al  Al20  1  0.78619380  0.75722323  0.82585787  1
  Al  Al21  1  0.46945036  0.74751253  0.39546946  1
  Al  Al22  1  0.11754004  0.75411684  0.81196395  1
  Al  Al23  1  0.22901146  0.86979466  0.56671580  1
  Al  Al24  1  0.79829591  0.74823455  0.29340877  1
  Al  Al25  1  0.90997667  0.85512550  0.06238925  1
  Al  Al26  1  0.42029350  0.76961040  0.87599998  1
  Al  Al27  1  0.53986157  0.87891871  0.65705099  1
  Gd  Gd28  1  0.76294719  0.09639246  0.85046729  1
  Gd  Gd29  1  0.88360645  0.20513673  0.55432983  1
  Gd  Gd30  1  0.45018932  0.09335690  0.38605935  1
  Gd  Gd31  1  0.76207458  0.44086171  0.84442642  1
  Gd  Gd32  1  0.88772941  0.53833275  0.56334925  1
  Gd  Gd33  1  0.53933665  0.54040418  0.13486162  1
  Gd  Gd34  1  0.88713401  0.87143378  0.56007314  1
  Gd  Gd35  1  0.55687504  0.87256299  0.10121527  1
  N  N36  1  0.20731734  0.21309736  0.31167813  1
  N  N37  1  0.11948383  0.08170275  0.12177844  1
  N  N38  1  0.91551140  0.19423971  0.89260806  1
  N  N39  1  0.74957067  0.10587955  0.63513477  1
  N  N40  1  0.56451614  0.22705246  0.29949036  1
  N  N41  1  0.42431110  0.12697706  0.06458397  1
  N  N42  1  0.21087002  0.21018322  0.83261877  1
  N  N43  1  0.13180770  0.07672051  0.63629346  1
  N  N44  1  0.89462867  0.19987751  0.33769332  1
  N  N45  1  0.78271417  0.08795517  0.10020639  1
  N  N46  1  0.49892974  0.23652765  0.81846862  1
  N  N47  1  0.44323713  0.08973761  0.59729014  1
  N  N48  1  0.22157486  0.54224690  0.37513221  1
  N  N49  1  0.11767586  0.43255753  0.12271733  1
  N  N50  1  0.90511196  0.54934149  0.88258118  1
  N  N51  1  0.75150473  0.43807127  0.63547086  1
  N  N52  1  0.57112001  0.53304123  0.34468453  1
  N  N53  1  0.43272980  0.41593824  0.05345915  1
  N  N54  1  0.20194783  0.55232725  0.87991655  1
  N  N55  1  0.13833123  0.42178396  0.63676239  1
  N  N56  1  0.89915378  0.53611778  0.35034882  1
  N  N57  1  0.80801698  0.41758548  0.11290072  1
  N  N58  1  0.49563224  0.56615138  0.81282281  1
  N  N59  1  0.45181814  0.41912269  0.56579179  1
  N  N60  1  0.22403284  0.87184279  0.37880033  1
  N  N61  1  0.12224572  0.75621100  0.12547599  1
  N  N62  1  0.90708076  0.84350687  0.88202750  1
  N  N63  1  0.75833029  0.77037037  0.65217561  1
  N  N64  1  0.57560998  0.84199098  0.31867712  1
  N  N65  1  0.41953362  0.76624951  0.04984212  1
  N  N66  1  0.19925618  0.88073188  0.87286797  1
  N  N67  1  0.14256993  0.74447391  0.63193725  1
  N  N68  1  0.89036402  0.87649104  0.34320812  1
  N  N69  1  0.81910114  0.73995013  0.11825536  1
  N  N70  1  0.53869529  0.88162225  0.84266990  1
  N  N71  1  0.45303083  0.76124307  0.57622479  1
