# generated using pymatgen
data_Gd2Al7N9
_symmetry_space_group_name_H-M   'P 1'
_cell_length_a   10.03544502
_cell_length_b   9.86874919
_cell_length_c   10.31217283
_cell_angle_alpha   90.12554139
_cell_angle_beta   90.14617972
_cell_angle_gamma   60.29609758
_symmetry_Int_Tables_number   1
_chemical_formula_structural   Gd2Al7N9
_chemical_formula_sum   'Gd8 Al28 N36'
_cell_volume   887.08651724
_cell_formula_units_Z   4
loop_
 _symmetry_equiv_pos_site_id
 _symmetry_equiv_pos_as_xyz
  1  'x, y, z'
loop_
 _atom_site_type_symbol
 _atom_site_label
 _atom_site_symmetry_multiplicity
 _atom_site_fract_x
 _atom_site_fract_y
 _atom_site_fract_z
 _atom_site_occupancy
  Al  Al0  1  0.11067996  0.09499881  0.30143924  1
  Al  Al1  1  0.21952092  0.20970831  0.05813962  1
  Al  Al2  1  0.53366740  0.21424788  0.08313416  1
  Al  Al3  1  0.12378217  0.08749508  0.81709677  1
  Al  Al4  1  0.22058217  0.20607068  0.56992785  1
  Al  Al5  1  0.77802464  0.09643644  0.28575447  1
  Al  Al6  1  0.90738198  0.20345463  0.06875799  1
  Al  Al7  1  0.42289219  0.11156738  0.80921149  1
  Al  Al8  1  0.54679398  0.21690429  0.59102116  1
  Al  Al9  1  0.11008515  0.42724837  0.30192820  1
  Al  Al10  1  0.21647151  0.53760419  0.06032726  1
  Al  Al11  1  0.43956034  0.42756744  0.31685311  1
  Al  Al12  1  0.12592793  0.42598154  0.81573412  1
  Al  Al13  1  0.23190050  0.53632790  0.56040009  1
  Al  Al14  1  0.78445096  0.42941870  0.29154672  1
  Al  Al15  1  0.91111707  0.53147776  0.05761066  1
  Al  Al16  1  0.42094472  0.44378973  0.80332954  1
  Al  Al17  1  0.54715300  0.54413778  0.54835659  1
  Al  Al18  1  0.11539847  0.76079306  0.30276887  1
  Al  Al19  1  0.21164480  0.87712936  0.05899733  1
  Al  Al20  1  0.79735309  0.75188239  0.81839537  1
  Al  Al21  1  0.44037511  0.76077579  0.31101688  1
  Al  Al22  1  0.12229490  0.75380570  0.81382252  1
  Al  Al23  1  0.23287602  0.86821460  0.56216790  1
  Al  Al24  1  0.78975367  0.75139800  0.28593414  1
  Al  Al25  1  0.90694474  0.85576558  0.06046797  1
  Al  Al26  1  0.42337821  0.76227467  0.80341980  1
  Al  Al27  1  0.54954370  0.87231376  0.63402991  1
  Gd  Gd28  1  0.76744120  0.09776508  0.84593227  1
  Gd  Gd29  1  0.89638698  0.19811980  0.54360628  1
  Gd  Gd30  1  0.44468858  0.08929831  0.34576334  1
  Gd  Gd31  1  0.77267638  0.43529362  0.81979298  1
  Gd  Gd32  1  0.90017827  0.53572084  0.55262610  1
  Gd  Gd33  1  0.54200597  0.53574392  0.07431228  1
  Gd  Gd34  1  0.89030279  0.87239539  0.55693342  1
  Gd  Gd35  1  0.55223585  0.87140585  0.06610448  1
  N  N36  1  0.17866741  0.22617845  0.38490918  1
  N  N37  1  0.11978776  0.09201700  0.11679565  1
  N  N38  1  0.92403445  0.19180155  0.88322210  1
  N  N39  1  0.75294987  0.11034834  0.62579839  1
  N  N40  1  0.57673241  0.21484110  0.35606340  1
  N  N41  1  0.42239776  0.11741115  0.11891415  1
  N  N42  1  0.21937845  0.20692911  0.87116464  1
  N  N43  1  0.14164630  0.07773312  0.63273747  1
  N  N44  1  0.88952215  0.20362564  0.32142893  1
  N  N45  1  0.76817691  0.09699702  0.09519560  1
  N  N46  1  0.50963742  0.23315104  0.85421693  1
  N  N47  1  0.44015376  0.09711077  0.60836017  1
  N  N48  1  0.21656910  0.54078997  0.37091828  1
  N  N49  1  0.11721215  0.42323040  0.11541190  1
  N  N50  1  0.91524201  0.54232628  0.86897999  1
  N  N51  1  0.75267269  0.43968345  0.60108417  1
  N  N52  1  0.55236461  0.53905057  0.35424488  1
  N  N53  1  0.41450902  0.42084430  0.13397526  1
  N  N54  1  0.22050231  0.54295856  0.87422412  1
  N  N55  1  0.14733371  0.41372338  0.63220957  1
  N  N56  1  0.89428966  0.53799138  0.33593577  1
  N  N57  1  0.80261490  0.42303712  0.10335087  1
  N  N58  1  0.51731061  0.55628955  0.85836674  1
  N  N59  1  0.44080946  0.43614729  0.61133169  1
  N  N60  1  0.21731179  0.87753512  0.37295932  1
  N  N61  1  0.11564252  0.75893256  0.11617882  1
  N  N62  1  0.91430152  0.84268495  0.87157160  1
  N  N63  1  0.76063134  0.76864631  0.63815205  1
  N  N64  1  0.58138114  0.83467362  0.32249333  1
  N  N65  1  0.40393622  0.77796259  0.13148255  1
  N  N66  1  0.22046039  0.87248689  0.87210565  1
  N  N67  1  0.14181431  0.74752125  0.62709964  1
  N  N68  1  0.89153850  0.87408184  0.33413424  1
  N  N69  1  0.81052486  0.74343991  0.10350707  1
  N  N70  1  0.54267208  0.87865424  0.83184387  1
  N  N71  1  0.44301130  0.75891698  0.61370745  1
