# generated using pymatgen
data_Gd2Al7N9
_symmetry_space_group_name_H-M   'P 1'
_cell_length_a   9.96481988
_cell_length_b   9.85965233
_cell_length_c   10.28827591
_cell_angle_alpha   90.05062352
_cell_angle_beta   89.86270982
_cell_angle_gamma   60.51004870
_symmetry_Int_Tables_number   1
_chemical_formula_structural   Gd2Al7N9
_chemical_formula_sum   'Gd8 Al28 N36'
_cell_volume   879.85488663
_cell_formula_units_Z   4
loop_
 _symmetry_equiv_pos_site_id
 _symmetry_equiv_pos_as_xyz
  1  'x, y, z'
loop_
 _atom_site_type_symbol
 _atom_site_label
 _atom_site_symmetry_multiplicity
 _atom_site_fract_x
 _atom_site_fract_y
 _atom_site_fract_z
 _atom_site_occupancy
  Al  Al0  1  0.12265264  0.08946537  0.39679198  1
  Al  Al1  1  0.21455638  0.21298933  0.14509592  1
  Al  Al2  1  0.53407247  0.22336085  0.15448749  1
  Al  Al3  1  0.11400169  0.09074691  0.90706300  1
  Al  Al4  1  0.23094577  0.19899806  0.66127735  1
  Al  Al5  1  0.76656424  0.10670242  0.38042431  1
  Al  Al6  1  0.90170215  0.20229130  0.17302940  1
  Al  Al7  1  0.42816189  0.11352507  0.89291443  1
  Al  Al8  1  0.53862125  0.21757804  0.65816636  1
  Al  Al9  1  0.12574845  0.41992188  0.39744902  1
  Al  Al10  1  0.21607038  0.53979730  0.14943446  1
  Al  Al11  1  0.43948091  0.43392003  0.41336773  1
  Al  Al12  1  0.11213558  0.43298920  0.90786979  1
  Al  Al13  1  0.23370636  0.53349484  0.65165941  1
  Al  Al14  1  0.76933860  0.43273449  0.40567519  1
  Al  Al15  1  0.90962944  0.52685133  0.17040269  1
  Al  Al16  1  0.42220871  0.43859521  0.89691976  1
  Al  Al17  1  0.53727363  0.54701636  0.64921955  1
  Al  Al18  1  0.13029577  0.75266773  0.39929445  1
  Al  Al19  1  0.21496366  0.87671677  0.15036685  1
  Al  Al20  1  0.79060456  0.75502036  0.89180512  1
  Al  Al21  1  0.44490372  0.76099109  0.41627491  1
  Al  Al22  1  0.11134692  0.75842606  0.90341142  1
  Al  Al23  1  0.23231441  0.86804469  0.65025928  1
  Al  Al24  1  0.77520865  0.75609041  0.38589121  1
  Al  Al25  1  0.90616280  0.86266161  0.17268419  1
  Al  Al26  1  0.42274771  0.76561250  0.89358972  1
  Al  Al27  1  0.54916367  0.87198286  0.66498866  1
  Gd  Gd28  1  0.77033732  0.09118240  0.92092030  1
  Gd  Gd29  1  0.89302436  0.19571751  0.62811312  1
  Gd  Gd30  1  0.44462196  0.09390066  0.41465909  1
  Gd  Gd31  1  0.77249198  0.43520746  0.90497086  1
  Gd  Gd32  1  0.90098460  0.53652075  0.62920476  1
  Gd  Gd33  1  0.54417422  0.54110418  0.16064552  1
  Gd  Gd34  1  0.88785119  0.87474039  0.62228570  1
  Gd  Gd35  1  0.55936535  0.87307423  0.12517426  1
  N  N36  1  0.20257928  0.21521277  0.32853565  1
  N  N37  1  0.10918823  0.09375114  0.09757549  1
  N  N38  1  0.91053817  0.18994320  0.84730104  1
  N  N39  1  0.72757391  0.11810471  0.56882270  1
  N  N40  1  0.55190023  0.23398733  0.33420871  1
  N  N41  1  0.42506124  0.12726669  0.08463027  1
  N  N42  1  0.21095050  0.21182213  0.84989790  1
  N  N43  1  0.15250234  0.07607271  0.58036197  1
  N  N44  1  0.89648678  0.20415891  0.36398792  1
  N  N45  1  0.78034503  0.09315981  0.14248902  1
  N  N46  1  0.52718654  0.22784474  0.84099091  1
  N  N47  1  0.44424549  0.08955030  0.63570916  1
  N  N48  1  0.22705151  0.53787389  0.33797150  1
  N  N49  1  0.11158928  0.42869433  0.09586815  1
  N  N50  1  0.90585545  0.54750624  0.84978164  1
  N  N51  1  0.74563896  0.44362527  0.59435348  1
  N  N52  1  0.54755570  0.54431682  0.37617243  1
  N  N53  1  0.42147468  0.42426695  0.08114665  1
  N  N54  1  0.21298294  0.54405634  0.84146238  1
  N  N55  1  0.15985878  0.39959467  0.58069708  1
  N  N56  1  0.90050025  0.53046006  0.36505122  1
  N  N57  1  0.80414638  0.41582839  0.12693592  1
  N  N58  1  0.51925826  0.55456443  0.83819982  1
  N  N59  1  0.44010208  0.42829118  0.59797444  1
  N  N60  1  0.22959583  0.86977287  0.33970133  1
  N  N61  1  0.11118645  0.76297691  0.09672489  1
  N  N62  1  0.90247690  0.85116858  0.84727889  1
  N  N63  1  0.73989046  0.77833068  0.57795557  1
  N  N64  1  0.56267866  0.84538317  0.34429947  1
  N  N65  1  0.40916984  0.77464153  0.07376458  1
  N  N66  1  0.21161524  0.87838362  0.83868347  1
  N  N67  1  0.15040079  0.74132808  0.58273176  1
  N  N68  1  0.90041813  0.86768457  0.36244043  1
  N  N69  1  0.81722656  0.74008284  0.12767918  1
  N  N70  1  0.56214752  0.86661409  0.85989575  1
  N  N71  1  0.44278305  0.76570123  0.60478479  1
