# generated using pymatgen
data_Gd2Al7N9
_symmetry_space_group_name_H-M   'P 1'
_cell_length_a   10.10165177
_cell_length_b   9.86596180
_cell_length_c   10.25358274
_cell_angle_alpha   89.94500076
_cell_angle_beta   90.75486962
_cell_angle_gamma   60.74867491
_symmetry_Int_Tables_number   1
_chemical_formula_structural   Gd2Al7N9
_chemical_formula_sum   'Gd8 Al28 N36'
_cell_volume   891.48076821
_cell_formula_units_Z   4
loop_
 _symmetry_equiv_pos_site_id
 _symmetry_equiv_pos_as_xyz
  1  'x, y, z'
loop_
 _atom_site_type_symbol
 _atom_site_label
 _atom_site_symmetry_multiplicity
 _atom_site_fract_x
 _atom_site_fract_y
 _atom_site_fract_z
 _atom_site_occupancy
  Al  Al0  1  0.12704221  0.08623072  0.39904423  1
  Al  Al1  1  0.21245502  0.21476789  0.15052833  1
  Al  Al2  1  0.53007417  0.22499725  0.15139929  1
  Al  Al3  1  0.11427301  0.09072199  0.90139051  1
  Al  Al4  1  0.22843612  0.19952894  0.65791890  1
  Al  Al5  1  0.78325039  0.09545658  0.32641751  1
  Al  Al6  1  0.91209357  0.19838756  0.15314752  1
  Al  Al7  1  0.41720900  0.11627648  0.90518397  1
  Al  Al8  1  0.52520033  0.22147205  0.67105538  1
  Al  Al9  1  0.12536383  0.42081640  0.40329118  1
  Al  Al10  1  0.21688071  0.53801887  0.15542028  1
  Al  Al11  1  0.45505928  0.42839790  0.41260602  1
  Al  Al12  1  0.11886974  0.42789018  0.90152173  1
  Al  Al13  1  0.23083967  0.53501299  0.64950397  1
  Al  Al14  1  0.79362466  0.42953862  0.33547488  1
  Al  Al15  1  0.91143234  0.53520669  0.08799457  1
  Al  Al16  1  0.40840518  0.44292598  0.90356578  1
  Al  Al17  1  0.52594096  0.55233050  0.66535252  1
  Al  Al18  1  0.13626087  0.75094493  0.40024428  1
  Al  Al19  1  0.21626556  0.87778266  0.15453650  1
  Al  Al20  1  0.78148488  0.75996025  0.84758335  1
  Al  Al21  1  0.46288552  0.75024841  0.41620313  1
  Al  Al22  1  0.11236956  0.75850893  0.90167086  1
  Al  Al23  1  0.22878930  0.87034836  0.64878280  1
  Al  Al24  1  0.79906610  0.74068985  0.32958247  1
  Al  Al25  1  0.91406558  0.85968563  0.14270739  1
  Al  Al26  1  0.41172203  0.77414082  0.90078657  1
  Al  Al27  1  0.53360038  0.88091981  0.67818283  1
  Gd  Gd28  1  0.76497385  0.09526300  0.88890103  1
  Gd  Gd29  1  0.87980528  0.20765877  0.61466529  1
  Gd  Gd30  1  0.45143242  0.08835364  0.40553537  1
  Gd  Gd31  1  0.76207773  0.43224737  0.88183755  1
  Gd  Gd32  1  0.88699588  0.53636481  0.61460529  1
  Gd  Gd33  1  0.54119562  0.54312770  0.14648671  1
  Gd  Gd34  1  0.88243073  0.87360523  0.60902491  1
  Gd  Gd35  1  0.56296639  0.87104885  0.11723526  1
  N  N36  1  0.20260758  0.21617129  0.33406534  1
  N  N37  1  0.11387339  0.09329247  0.09441043  1
  N  N38  1  0.91723134  0.18795078  0.84310644  1
  N  N39  1  0.73109083  0.11260517  0.64855391  1
  N  N40  1  0.56836231  0.22419285  0.33406281  1
  N  N41  1  0.42110623  0.12533720  0.09857190  1
  N  N42  1  0.21075659  0.21010218  0.84783465  1
  N  N43  1  0.14510397  0.07859707  0.58314815  1
  N  N44  1  0.90293149  0.19869927  0.35125658  1
  N  N45  1  0.78623039  0.09142573  0.13192028  1
  N  N46  1  0.50357815  0.23574357  0.85335695  1
  N  N47  1  0.43881256  0.09191152  0.62511483  1
  N  N48  1  0.23306519  0.53371289  0.34319496  1
  N  N49  1  0.12225682  0.42409342  0.09148748  1
  N  N50  1  0.90133355  0.54868162  0.89402332  1
  N  N51  1  0.73459217  0.44995791  0.65905605  1
  N  N52  1  0.56750818  0.53395792  0.36737717  1
  N  N53  1  0.41505932  0.42611527  0.08818830  1
  N  N54  1  0.20743131  0.54711751  0.83846482  1
  N  N55  1  0.15128509  0.40536486  0.58973861  1
  N  N56  1  0.90355768  0.53163095  0.38702292  1
  N  N57  1  0.80766979  0.42069143  0.13699662  1
  N  N58  1  0.49993140  0.56316238  0.85555626  1
  N  N59  1  0.43888903  0.42925914  0.59796203  1
  N  N60  1  0.23668673  0.86717325  0.34271429  1
  N  N61  1  0.12034978  0.75780826  0.09708422  1
  N  N62  1  0.90574159  0.84725609  0.86525925  1
  N  N63  1  0.74077024  0.77549587  0.66619934  1
  N  N64  1  0.58304813  0.83561071  0.34799967  1
  N  N65  1  0.40488059  0.78239793  0.08187883  1
  N  N66  1  0.20975509  0.87920367  0.83828158  1
  N  N67  1  0.14671701  0.74411453  0.58485685  1
  N  N68  1  0.90306872  0.86957651  0.35750467  1
  N  N69  1  0.82197615  0.73778568  0.14485632  1
  N  N70  1  0.53963178  0.88113567  0.87254582  1
  N  N71  1  0.44041199  0.76595917  0.60515754  1
