# generated using pymatgen
data_Gd2Al7N9
_symmetry_space_group_name_H-M   'P 1'
_cell_length_a   9.94026059
_cell_length_b   9.83077967
_cell_length_c   10.35839242
_cell_angle_alpha   90.28792911
_cell_angle_beta   89.81628736
_cell_angle_gamma   60.26703754
_symmetry_Int_Tables_number   1
_chemical_formula_structural   Gd2Al7N9
_chemical_formula_sum   'Gd8 Al28 N36'
_cell_volume   878.93392902
_cell_formula_units_Z   4
loop_
 _symmetry_equiv_pos_site_id
 _symmetry_equiv_pos_as_xyz
  1  'x, y, z'
loop_
 _atom_site_type_symbol
 _atom_site_label
 _atom_site_symmetry_multiplicity
 _atom_site_fract_x
 _atom_site_fract_y
 _atom_site_fract_z
 _atom_site_occupancy
  Al  Al0  1  0.10592668  0.09652307  0.29911370  1
  Al  Al1  1  0.21793410  0.21026125  0.05305076  1
  Al  Al2  1  0.52674203  0.21856265  0.05549987  1
  Al  Al3  1  0.12888288  0.08446083  0.81751180  1
  Al  Al4  1  0.22569178  0.20367462  0.57114065  1
  Al  Al5  1  0.77005374  0.09980443  0.28484897  1
  Al  Al6  1  0.90264407  0.20227316  0.06933160  1
  Al  Al7  1  0.43522115  0.10184464  0.79760445  1
  Al  Al8  1  0.55534273  0.21397069  0.55815562  1
  Al  Al9  1  0.10371448  0.43111022  0.29996516  1
  Al  Al10  1  0.21625048  0.53695110  0.06046188  1
  Al  Al11  1  0.43665246  0.42964234  0.31532134  1
  Al  Al12  1  0.12670373  0.42571002  0.81650509  1
  Al  Al13  1  0.23510146  0.53332836  0.56315707  1
  Al  Al14  1  0.77858081  0.43076546  0.29012696  1
  Al  Al15  1  0.90475363  0.53626829  0.05812573  1
  Al  Al16  1  0.42778015  0.43751253  0.80177951  1
  Al  Al17  1  0.54916179  0.53979252  0.54942193  1
  Al  Al18  1  0.11085873  0.76319246  0.30164115  1
  Al  Al19  1  0.21498761  0.87789827  0.06036352  1
  Al  Al20  1  0.78686031  0.75690687  0.81003524  1
  Al  Al21  1  0.43652384  0.76271675  0.32097517  1
  Al  Al22  1  0.12716040  0.75099964  0.81711771  1
  Al  Al23  1  0.23334067  0.86668038  0.56426664  1
  Al  Al24  1  0.78202900  0.75644344  0.29561655  1
  Al  Al25  1  0.90123799  0.85915470  0.06054256  1
  Al  Al26  1  0.43586260  0.76443513  0.79451754  1
  Al  Al27  1  0.55782153  0.86517652  0.56515671  1
  Gd  Gd28  1  0.77241526  0.09418850  0.83695791  1
  Gd  Gd29  1  0.90250873  0.19492053  0.53899490  1
  Gd  Gd30  1  0.43175592  0.10115446  0.33038459  1
  Gd  Gd31  1  0.77789514  0.43055668  0.81857315  1
  Gd  Gd32  1  0.90487977  0.53070986  0.55102235  1
  Gd  Gd33  1  0.53631809  0.54207732  0.07123777  1
  Gd  Gd34  1  0.89842804  0.86776571  0.55632005  1
  Gd  Gd35  1  0.55150799  0.87399966  0.05429584  1
  N  N36  1  0.17183828  0.22990833  0.38628690  1
  N  N37  1  0.11862905  0.09342573  0.11640878  1
  N  N38  1  0.92759846  0.18721870  0.88559916  1
  N  N39  1  0.75601882  0.10855805  0.62059361  1
  N  N40  1  0.57076374  0.21949882  0.37221966  1
  N  N41  1  0.42255056  0.11845805  0.11431602  1
  N  N42  1  0.22595123  0.20398491  0.86733859  1
  N  N43  1  0.14482030  0.07576860  0.63410268  1
  N  N44  1  0.88345024  0.20598511  0.31776702  1
  N  N45  1  0.76393523  0.09779684  0.09517923  1
  N  N46  1  0.51246549  0.23023030  0.87059054  1
  N  N47  1  0.44673991  0.09526935  0.60082745  1
  N  N48  1  0.21212135  0.54291038  0.37215810  1
  N  N49  1  0.11376248  0.42455565  0.11442084  1
  N  N50  1  0.91206045  0.54705242  0.87011784  1
  N  N51  1  0.75590007  0.43541110  0.60057967  1
  N  N52  1  0.55054489  0.53909100  0.35451596  1
  N  N53  1  0.41640968  0.41727185  0.13456797  1
  N  N54  1  0.22525374  0.53950985  0.87565953  1
  N  N55  1  0.14970632  0.41186670  0.63433195  1
  N  N56  1  0.88729173  0.54040638  0.33544755  1
  N  N57  1  0.79705599  0.42475228  0.10245321  1
  N  N58  1  0.52085331  0.55701887  0.85462239  1
  N  N59  1  0.44579771  0.42891372  0.61187906  1
  N  N60  1  0.20930587  0.88097281  0.37562967  1
  N  N61  1  0.11510510  0.75984122  0.11580256  1
  N  N62  1  0.91336299  0.83999389  0.87216146  1
  N  N63  1  0.76071833  0.76785278  0.62951434  1
  N  N64  1  0.57453465  0.84135649  0.37258798  1
  N  N65  1  0.40732724  0.78501124  0.14242019  1
  N  N66  1  0.23012523  0.86917124  0.87361229  1
  N  N67  1  0.14757611  0.74339000  0.63175561  1
  N  N68  1  0.88561978  0.87815715  0.33563015  1
  N  N69  1  0.80208774  0.74829151  0.11389995  1
  N  N70  1  0.55258259  0.87518461  0.83697602  1
  N  N71  1  0.44643489  0.75729335  0.60661889  1
