# generated using pymatgen
data_Gd2Al7N9
_symmetry_space_group_name_H-M   'P 1'
_cell_length_a   10.01656084
_cell_length_b   9.86063654
_cell_length_c   10.27125589
_cell_angle_alpha   90.04331489
_cell_angle_beta   90.06685982
_cell_angle_gamma   60.74694207
_symmetry_Int_Tables_number   1
_chemical_formula_structural   Gd2Al7N9
_chemical_formula_sum   'Gd8 Al28 N36'
_cell_volume   885.11009462
_cell_formula_units_Z   4
loop_
 _symmetry_equiv_pos_site_id
 _symmetry_equiv_pos_as_xyz
  1  'x, y, z'
loop_
 _atom_site_type_symbol
 _atom_site_label
 _atom_site_symmetry_multiplicity
 _atom_site_fract_x
 _atom_site_fract_y
 _atom_site_fract_z
 _atom_site_occupancy
  Al  Al0  1  0.12466610  0.08811740  0.39868660  1
  Al  Al1  1  0.21484583  0.21180244  0.14613039  1
  Al  Al2  1  0.53366003  0.22360492  0.15452501  1
  Al  Al3  1  0.11272462  0.09098978  0.90570444  1
  Al  Al4  1  0.22849067  0.20166106  0.65986593  1
  Al  Al5  1  0.76679681  0.10643139  0.37981689  1
  Al  Al6  1  0.90374216  0.19833076  0.16962012  1
  Al  Al7  1  0.42305214  0.11644641  0.89682340  1
  Al  Al8  1  0.53569280  0.21806309  0.65702306  1
  Al  Al9  1  0.13018194  0.41822244  0.39969736  1
  Al  Al10  1  0.21676685  0.53900522  0.14975917  1
  Al  Al11  1  0.44422000  0.43305895  0.41416337  1
  Al  Al12  1  0.10955207  0.43464799  0.90477839  1
  Al  Al13  1  0.23232922  0.53400604  0.65215541  1
  Al  Al14  1  0.77605148  0.42783899  0.38296498  1
  Al  Al15  1  0.91618637  0.52151349  0.16466455  1
  Al  Al16  1  0.41908423  0.43870460  0.89737163  1
  Al  Al17  1  0.53344436  0.54946131  0.65612284  1
  Al  Al18  1  0.13535311  0.75094922  0.40048403  1
  Al  Al19  1  0.21610115  0.87777583  0.15236679  1
  Al  Al20  1  0.78052151  0.76068537  0.83460736  1
  Al  Al21  1  0.45317535  0.75715198  0.41628354  1
  Al  Al22  1  0.10954760  0.75919668  0.90225435  1
  Al  Al23  1  0.23065964  0.86874168  0.64994242  1
  Al  Al24  1  0.78937040  0.75014038  0.34012889  1
  Al  Al25  1  0.91236459  0.86379396  0.16969872  1
  Al  Al26  1  0.41678718  0.77009840  0.89773068  1
  Al  Al27  1  0.53218966  0.88197009  0.67309977  1
  Gd  Gd28  1  0.76821533  0.08991462  0.91758554  1
  Gd  Gd29  1  0.88986344  0.19641283  0.62749518  1
  Gd  Gd30  1  0.44805794  0.09044965  0.40911328  1
  Gd  Gd31  1  0.77216840  0.43553575  0.89853254  1
  Gd  Gd32  1  0.89521156  0.53619376  0.61845854  1
  Gd  Gd33  1  0.54192657  0.54194577  0.15543738  1
  Gd  Gd34  1  0.88839237  0.87448047  0.61441240  1
  Gd  Gd35  1  0.56763442  0.86972155  0.11352108  1
  N  N36  1  0.20290348  0.21504747  0.32991813  1
  N  N37  1  0.10914213  0.09381719  0.09739415  1
  N  N38  1  0.90999068  0.18798529  0.84847710  1
  N  N39  1  0.72429322  0.11784581  0.56786042  1
  N  N40  1  0.55451703  0.23385909  0.33365444  1
  N  N41  1  0.42497776  0.12551352  0.08992678  1
  N  N42  1  0.20987563  0.21234456  0.84980103  1
  N  N43  1  0.14936548  0.07755218  0.58218122  1
  N  N44  1  0.89898953  0.20072123  0.36228403  1
  N  N45  1  0.78203710  0.09071387  0.14054934  1
  N  N46  1  0.52296362  0.22818465  0.84084582  1
  N  N47  1  0.43891892  0.09324780  0.62909681  1
  N  N48  1  0.23031006  0.53666940  0.33863270  1
  N  N49  1  0.11411637  0.42669275  0.09422053  1
  N  N50  1  0.90602596  0.54657295  0.84904539  1
  N  N51  1  0.74124153  0.44306976  0.61508527  1
  N  N52  1  0.55466660  0.54084829  0.37342429  1
  N  N53  1  0.41963810  0.42308909  0.08165160  1
  N  N54  1  0.21205072  0.54473420  0.84184675  1
  N  N55  1  0.15717657  0.40252201  0.58313097  1
  N  N56  1  0.90483574  0.52726108  0.36773784  1
  N  N57  1  0.80351613  0.41595969  0.13418278  1
  N  N58  1  0.51398898  0.55870425  0.84569475  1
  N  N59  1  0.43857071  0.43024216  0.59893922  1
  N  N60  1  0.23382256  0.86879118  0.34127786  1
  N  N61  1  0.11424003  0.76192398  0.09703220  1
  N  N62  1  0.90415249  0.85255190  0.84699022  1
  N  N63  1  0.73816334  0.78075040  0.64954221  1
  N  N64  1  0.57468778  0.83959089  0.34695377  1
  N  N65  1  0.40839622  0.77884940  0.07862546  1
  N  N66  1  0.21028788  0.87910342  0.83910215  1
  N  N67  1  0.15110705  0.74075019  0.58375861  1
  N  N68  1  0.90416885  0.86841097  0.36420166  1
  N  N69  1  0.82371575  0.73707712  0.15418163  1
  N  N70  1  0.54563743  0.87778218  0.86717816  1
  N  N71  1  0.44030857  0.76662438  0.60443295  1
