# generated using pymatgen
data_Gd2Al7N9
_symmetry_space_group_name_H-M   'P 1'
_cell_length_a   10.01010465
_cell_length_b   9.85662683
_cell_length_c   10.27970592
_cell_angle_alpha   90.04251039
_cell_angle_beta   90.03898037
_cell_angle_gamma   60.73936226
_symmetry_Int_Tables_number   1
_chemical_formula_structural   Gd2Al7N9
_chemical_formula_sum   'Gd8 Al28 N36'
_cell_volume   884.84205694
_cell_formula_units_Z   4
loop_
 _symmetry_equiv_pos_site_id
 _symmetry_equiv_pos_as_xyz
  1  'x, y, z'
loop_
 _atom_site_type_symbol
 _atom_site_label
 _atom_site_symmetry_multiplicity
 _atom_site_fract_x
 _atom_site_fract_y
 _atom_site_fract_z
 _atom_site_occupancy
  Al  Al0  1  0.12384710  0.08863587  0.39845434  1
  Al  Al1  1  0.21478489  0.21184408  0.14620478  1
  Al  Al2  1  0.53388259  0.22362609  0.15454366  1
  Al  Al3  1  0.11267999  0.09116030  0.90601496  1
  Al  Al4  1  0.22862320  0.20153042  0.65992286  1
  Al  Al5  1  0.76691519  0.10667765  0.37972157  1
  Al  Al6  1  0.90302078  0.20004225  0.17071253  1
  Al  Al7  1  0.42314685  0.11640560  0.89706851  1
  Al  Al8  1  0.53579966  0.21773081  0.65708264  1
  Al  Al9  1  0.12942883  0.41846562  0.39942041  1
  Al  Al10  1  0.21696773  0.53903148  0.14968431  1
  Al  Al11  1  0.44302483  0.43331373  0.41400981  1
  Al  Al12  1  0.10966590  0.43464740  0.90532318  1
  Al  Al13  1  0.23283681  0.53397073  0.65229557  1
  Al  Al14  1  0.77236184  0.42938736  0.39722500  1
  Al  Al15  1  0.91564045  0.52064817  0.16593918  1
  Al  Al16  1  0.41989246  0.43869282  0.89712652  1
  Al  Al17  1  0.53481328  0.54893457  0.65366558  1
  Al  Al18  1  0.13512402  0.75105282  0.40036685  1
  Al  Al19  1  0.21632347  0.87750390  0.15219472  1
  Al  Al20  1  0.78018991  0.76100582  0.83480957  1
  Al  Al21  1  0.45192306  0.75812781  0.41602577  1
  Al  Al22  1  0.10950804  0.75921702  0.90247581  1
  Al  Al23  1  0.23081161  0.86845335  0.65009570  1
  Al  Al24  1  0.78930617  0.74957847  0.34032325  1
  Al  Al25  1  0.91214642  0.86378715  0.16993432  1
  Al  Al26  1  0.41753073  0.76924029  0.89741993  1
  Al  Al27  1  0.53216559  0.88202051  0.67305587  1
  Gd  Gd28  1  0.76841410  0.09014411  0.91797783  1
  Gd  Gd29  1  0.89049539  0.19571769  0.62814660  1
  Gd  Gd30  1  0.44788245  0.09061352  0.40900640  1
  Gd  Gd31  1  0.77271470  0.43562443  0.90184743  1
  Gd  Gd32  1  0.89722560  0.53571502  0.62013325  1
  Gd  Gd33  1  0.54386582  0.54084621  0.15717519  1
  Gd  Gd34  1  0.88822661  0.87430369  0.61414851  1
  Gd  Gd35  1  0.56760453  0.86949872  0.11374655  1
  N  N36  1  0.20287593  0.21500212  0.32987889  1
  N  N37  1  0.10908933  0.09377620  0.09749832  1
  N  N38  1  0.90966714  0.18912547  0.84796731  1
  N  N39  1  0.72465654  0.11771657  0.56807313  1
  N  N40  1  0.55432436  0.23403802  0.33369346  1
  N  N41  1  0.42504535  0.12556249  0.08984946  1
  N  N42  1  0.20986848  0.21242539  0.84973088  1
  N  N43  1  0.14902382  0.07749089  0.58214336  1
  N  N44  1  0.89814464  0.20187643  0.36275333  1
  N  N45  1  0.78186054  0.09095814  0.14077415  1
  N  N46  1  0.52327902  0.22790844  0.84077528  1
  N  N47  1  0.43896050  0.09313821  0.62896740  1
  N  N48  1  0.22981576  0.53674255  0.33853294  1
  N  N49  1  0.11397557  0.42684325  0.09448288  1
  N  N50  1  0.90597637  0.54638406  0.84865007  1
  N  N51  1  0.74191774  0.44299343  0.60033977  1
  N  N52  1  0.55188061  0.54226881  0.37362960  1
  N  N53  1  0.42034258  0.42336271  0.08140763  1
  N  N54  1  0.21236221  0.54469738  0.84191992  1
  N  N55  1  0.15774181  0.40243840  0.58283877  1
  N  N56  1  0.90410491  0.52690324  0.36830228  1
  N  N57  1  0.80429613  0.41557437  0.12941110  1
  N  N58  1  0.51615214  0.55763233  0.84317687  1
  N  N59  1  0.43907663  0.42976986  0.59886746  1
  N  N60  1  0.23332026  0.86924710  0.34115106  1
  N  N61  1  0.11406748  0.76199828  0.09697177  1
  N  N62  1  0.90407141  0.85271477  0.84691243  1
  N  N63  1  0.73829744  0.78023480  0.64974372  1
  N  N64  1  0.57428551  0.83975657  0.34688165  1
  N  N65  1  0.40908179  0.77739734  0.07828313  1
  N  N66  1  0.21045003  0.87897226  0.83917130  1
  N  N67  1  0.15119249  0.74064588  0.58366917  1
  N  N68  1  0.90403251  0.86840974  0.36432379  1
  N  N69  1  0.82368073  0.73670829  0.15444448  1
  N  N70  1  0.54569216  0.87778397  0.86712125  1
  N  N71  1  0.44042741  0.76677535  0.60424728  1
