# generated using pymatgen
data_Gd2Al7N9
_symmetry_space_group_name_H-M   'P 1'
_cell_length_a   9.87588070
_cell_length_b   9.83362290
_cell_length_c   10.79851937
_cell_angle_alpha   90.18634515
_cell_angle_beta   89.36826035
_cell_angle_gamma   60.13822862
_symmetry_Int_Tables_number   1
_chemical_formula_structural   Gd2Al7N9
_chemical_formula_sum   'Gd8 Al28 N36'
_cell_volume   909.36659634
_cell_formula_units_Z   4
loop_
 _symmetry_equiv_pos_site_id
 _symmetry_equiv_pos_as_xyz
  1  'x, y, z'
loop_
 _atom_site_type_symbol
 _atom_site_label
 _atom_site_symmetry_multiplicity
 _atom_site_fract_x
 _atom_site_fract_y
 _atom_site_fract_z
 _atom_site_occupancy
  Al  Al0  1  0.11610416  0.08195845  0.29777630  1
  Al  Al1  1  0.21972910  0.21034461  0.12553978  1
  Al  Al2  1  0.54019907  0.21887433  0.11923645  1
  Al  Al3  1  0.11121267  0.08740754  0.81353879  1
  Al  Al4  1  0.23428333  0.19819766  0.64882610  1
  Al  Al5  1  0.78864840  0.09225520  0.27882389  1
  Al  Al6  1  0.90890398  0.19754606  0.06294981  1
  Al  Al7  1  0.41634836  0.11682764  0.88218231  1
  Al  Al8  1  0.53013118  0.21887181  0.64242014  1
  Al  Al9  1  0.11477874  0.43647531  0.29887091  1
  Al  Al10  1  0.21111686  0.54306626  0.05302331  1
  Al  Al11  1  0.46409046  0.42358664  0.38455037  1
  Al  Al12  1  0.11380809  0.43670102  0.81370511  1
  Al  Al13  1  0.22886691  0.53531759  0.55902805  1
  Al  Al14  1  0.80161951  0.41916406  0.29330308  1
  Al  Al15  1  0.91308016  0.53209649  0.05790313  1
  Al  Al16  1  0.41857535  0.43950953  0.87339357  1
  Al  Al17  1  0.53032925  0.54891182  0.63308589  1
  Al  Al18  1  0.12123347  0.75894696  0.30363689  1
  Al  Al19  1  0.20458025  0.87808676  0.04839169  1
  Al  Al20  1  0.78625857  0.75716456  0.82190216  1
  Al  Al21  1  0.46951673  0.74745334  0.39152073  1
  Al  Al22  1  0.11760635  0.75405726  0.80801029  1
  Al  Al23  1  0.22907635  0.86973605  0.56276660  1
  Al  Al24  1  0.79836268  0.74817518  0.28945943  1
  Al  Al25  1  0.91004299  0.85506468  0.05843444  1
  Al  Al26  1  0.42035887  0.76955162  0.87205272  1
  Al  Al27  1  0.53992567  0.87885981  0.65309865  1
  Gd  Gd28  1  0.76301091  0.09633407  0.84651738  1
  Gd  Gd29  1  0.88367008  0.20507862  0.55037898  1
  Gd  Gd30  1  0.45025506  0.09329869  0.38210880  1
  Gd  Gd31  1  0.76213901  0.44080303  0.84047543  1
  Gd  Gd32  1  0.88779508  0.53827267  0.55939782  1
  Gd  Gd33  1  0.53940210  0.54034503  0.13091032  1
  Gd  Gd34  1  0.88719862  0.87137634  0.55612222  1
  Gd  Gd35  1  0.55694170  0.87250415  0.09726580  1
  N  N36  1  0.20738358  0.21303813  0.30772720  1
  N  N37  1  0.11954770  0.08164469  0.11782772  1
  N  N38  1  0.91557692  0.19418020  0.88865359  1
  N  N39  1  0.74963407  0.10582176  0.63118410  1
  N  N40  1  0.56458350  0.22699293  0.29553919  1
  N  N41  1  0.42437634  0.12691756  0.06063290  1
  N  N42  1  0.21093492  0.21012442  0.82866873  1
  N  N43  1  0.13187222  0.07666206  0.63234234  1
  N  N44  1  0.89469412  0.19981884  0.33374146  1
  N  N45  1  0.78277958  0.08789574  0.09625241  1
  N  N46  1  0.49899410  0.23646925  0.81451880  1
  N  N47  1  0.44330122  0.08967931  0.59334009  1
  N  N48  1  0.22164152  0.54218700  0.37117961  1
  N  N49  1  0.11774042  0.43249801  0.11876493  1
  N  N50  1  0.90517715  0.54928310  0.87862592  1
  N  N51  1  0.75156843  0.43801318  0.63151960  1
  N  N52  1  0.57118692  0.53298216  0.34073366  1
  N  N53  1  0.43279402  0.41588005  0.04950842  1
  N  N54  1  0.20201233  0.55226914  0.87596596  1
  N  N55  1  0.13839717  0.42172457  0.63281018  1
  N  N56  1  0.89922033  0.53605767  0.34639716  1
  N  N57  1  0.80808211  0.41752686  0.10894584  1
  N  N58  1  0.49569718  0.56609320  0.80887346  1
  N  N59  1  0.45188275  0.41906409  0.56184187  1
  N  N60  1  0.22409849  0.87178418  0.37485060  1
  N  N61  1  0.12230998  0.75615249  0.12152547  1
  N  N62  1  0.90714628  0.84344747  0.87807212  1
  N  N63  1  0.75839348  0.77031216  0.64822026  1
  N  N64  1  0.57567702  0.84193200  0.31472833  1
  N  N65  1  0.41959770  0.76619275  0.04589506  1
  N  N66  1  0.19932212  0.88067218  0.86891770  1
  N  N67  1  0.14263551  0.74441407  0.62798428  1
  N  N68  1  0.89043022  0.87643238  0.33925738  1
  N  N69  1  0.81916748  0.73989051  0.11430421  1
  N  N70  1  0.53876129  0.88156238  0.83871825  1
  N  N71  1  0.45309482  0.76118432  0.57227524  1
