# generated using pymatgen
data_Gd2Al7N9
_symmetry_space_group_name_H-M   'P 1'
_cell_length_a   9.95809771
_cell_length_b   9.85222646
_cell_length_c   10.61783372
_cell_angle_alpha   90.27630671
_cell_angle_beta   90.23338014
_cell_angle_gamma   60.44388663
_symmetry_Int_Tables_number   1
_chemical_formula_structural   Gd2Al7N9
_chemical_formula_sum   'Gd8 Al28 N36'
_cell_volume   906.14286352
_cell_formula_units_Z   4
loop_
 _symmetry_equiv_pos_site_id
 _symmetry_equiv_pos_as_xyz
  1  'x, y, z'
loop_
 _atom_site_type_symbol
 _atom_site_label
 _atom_site_symmetry_multiplicity
 _atom_site_fract_x
 _atom_site_fract_y
 _atom_site_fract_z
 _atom_site_occupancy
  Al  Al0  1  0.12730644  0.08431579  0.38569050  1
  Al  Al1  1  0.21548756  0.21335504  0.14484558  1
  Al  Al2  1  0.53961531  0.21952768  0.13805745  1
  Al  Al3  1  0.11922726  0.09209234  0.90048526  1
  Al  Al4  1  0.22561787  0.19969936  0.64763070  1
  Al  Al5  1  0.79452887  0.08907936  0.29714454  1
  Al  Al6  1  0.90385457  0.20006760  0.08393638  1
  Al  Al7  1  0.41604474  0.11762321  0.89570538  1
  Al  Al8  1  0.52754639  0.21857652  0.66074619  1
  Al  Al9  1  0.12640448  0.41849526  0.38958030  1
  Al  Al10  1  0.21304090  0.54229041  0.07817357  1
  Al  Al11  1  0.46317544  0.42391308  0.40126386  1
  Al  Al12  1  0.11193717  0.42374652  0.89430018  1
  Al  Al13  1  0.23281257  0.53345525  0.58266906  1
  Al  Al14  1  0.80445103  0.41790100  0.31327769  1
  Al  Al15  1  0.90508008  0.53420677  0.07738448  1
  Al  Al16  1  0.41445524  0.44121032  0.89051303  1
  Al  Al17  1  0.52376909  0.55444514  0.65262641  1
  Al  Al18  1  0.12328362  0.74975832  0.31846962  1
  Al  Al19  1  0.22063223  0.88116527  0.14627715  1
  Al  Al20  1  0.78576336  0.75946029  0.83925607  1
  Al  Al21  1  0.46292518  0.75069640  0.40578941  1
  Al  Al22  1  0.11530790  0.75319574  0.82152440  1
  Al  Al23  1  0.22843966  0.87737438  0.64265322  1
  Al  Al24  1  0.80280975  0.74274936  0.30831551  1
  Al  Al25  1  0.91455026  0.85276716  0.07550538  1
  Al  Al26  1  0.40875548  0.77707436  0.89041175  1
  Al  Al27  1  0.53729249  0.88172160  0.67088538  1
  Gd  Gd28  1  0.76258289  0.09499904  0.86516432  1
  Gd  Gd29  1  0.86627555  0.21647259  0.57133848  1
  Gd  Gd30  1  0.45852259  0.08727220  0.39665562  1
  Gd  Gd31  1  0.75045838  0.44532396  0.86435288  1
  Gd  Gd32  1  0.87782386  0.54349504  0.58776768  1
  Gd  Gd33  1  0.53626845  0.54607358  0.14915891  1
  Gd  Gd34  1  0.88441539  0.87377833  0.57244636  1
  Gd  Gd35  1  0.56063262  0.87252267  0.10731676  1
  N  N36  1  0.20931884  0.21211873  0.32391967  1
  N  N37  1  0.12465419  0.08950110  0.08770225  1
  N  N38  1  0.90716901  0.19932333  0.90231731  1
  N  N39  1  0.74358927  0.10644083  0.64738621  1
  N  N40  1  0.57264244  0.22272014  0.31659073  1
  N  N41  1  0.42340087  0.12719632  0.08114797  1
  N  N42  1  0.20773595  0.21097339  0.83264838  1
  N  N43  1  0.13604047  0.08223952  0.57133474  1
  N  N44  1  0.90251668  0.19615605  0.35050620  1
  N  N45  1  0.78415405  0.08672296  0.11313719  1
  N  N46  1  0.50068176  0.23651211  0.83571905  1
  N  N47  1  0.44148148  0.09008818  0.61157830  1
  N  N48  1  0.23510126  0.53649599  0.37399699  1
  N  N49  1  0.11861309  0.41724604  0.08127587  1
  N  N50  1  0.89500306  0.55240025  0.89088254  1
  N  N51  1  0.73958717  0.44632986  0.65400022  1
  N  N52  1  0.57391081  0.53124085  0.36165203  1
  N  N53  1  0.42945150  0.41870305  0.07106433  1
  N  N54  1  0.20299293  0.54867471  0.87885705  1
  N  N55  1  0.14420854  0.40323834  0.57713487  1
  N  N56  1  0.90431388  0.53201130  0.36870949  1
  N  N57  1  0.80228642  0.42031299  0.12757987  1
  N  N58  1  0.48811333  0.57183362  0.83161398  1
  N  N59  1  0.45014480  0.42069478  0.58326758  1
  N  N60  1  0.24143055  0.86530034  0.33170327  1
  N  N61  1  0.12116828  0.75461884  0.13595924  1
  N  N62  1  0.91182538  0.84184146  0.89365374  1
  N  N63  1  0.75157259  0.77869251  0.66462914  1
  N  N64  1  0.58201823  0.83621092  0.33192734  1
  N  N65  1  0.40713471  0.77691852  0.06459757  1
  N  N66  1  0.20742354  0.89209284  0.82564609  1
  N  N67  1  0.13650720  0.74283425  0.63877258  1
  N  N68  1  0.89701106  0.87177377  0.35526102  1
  N  N69  1  0.82215989  0.73839145  0.13131740  1
  N  N70  1  0.53891292  0.88318778  0.86007967  1
  N  N71  1  0.44242892  0.76710844  0.59097631  1
