# generated using pymatgen
data_Gd2Al7N9
_symmetry_space_group_name_H-M   'P 1'
_cell_length_a   9.88618491
_cell_length_b   9.82690543
_cell_length_c   10.80233088
_cell_angle_alpha   90.00770796
_cell_angle_beta   89.44290804
_cell_angle_gamma   60.13662522
_symmetry_Int_Tables_number   1
_chemical_formula_structural   Gd2Al7N9
_chemical_formula_sum   'Gd8 Al28 N36'
_cell_volume   910.04358847
_cell_formula_units_Z   4
loop_
 _symmetry_equiv_pos_site_id
 _symmetry_equiv_pos_as_xyz
  1  'x, y, z'
loop_
 _atom_site_type_symbol
 _atom_site_label
 _atom_site_symmetry_multiplicity
 _atom_site_fract_x
 _atom_site_fract_y
 _atom_site_fract_z
 _atom_site_occupancy
  Al  Al0  1  0.11905118  0.07977446  0.31468483  1
  Al  Al1  1  0.22132223  0.20966813  0.14205751  1
  Al  Al2  1  0.54012323  0.21769517  0.13717749  1
  Al  Al3  1  0.10793109  0.09573507  0.85377846  1
  Al  Al4  1  0.22919447  0.19716029  0.66429994  1
  Al  Al5  1  0.78876082  0.08891462  0.29641889  1
  Al  Al6  1  0.90287426  0.20086538  0.08844340  1
  Al  Al7  1  0.41870522  0.11558661  0.89873051  1
  Al  Al8  1  0.52810123  0.21922201  0.66085507  1
  Al  Al9  1  0.11677626  0.43378030  0.31624269  1
  Al  Al10  1  0.21071430  0.54251517  0.06998898  1
  Al  Al11  1  0.46492956  0.42122031  0.40364461  1
  Al  Al12  1  0.11381566  0.43806994  0.83042974  1
  Al  Al13  1  0.22889327  0.53560572  0.57695604  1
  Al  Al14  1  0.80211648  0.41980157  0.31046691  1
  Al  Al15  1  0.91276973  0.53250529  0.07558730  1
  Al  Al16  1  0.41816038  0.44040972  0.89154406  1
  Al  Al17  1  0.52766596  0.55150383  0.65115557  1
  Al  Al18  1  0.12311166  0.75576890  0.32065952  1
  Al  Al19  1  0.20544137  0.87620448  0.06896692  1
  Al  Al20  1  0.78717726  0.75773227  0.83915997  1
  Al  Al21  1  0.47195237  0.74481860  0.40913609  1
  Al  Al22  1  0.11824694  0.75592936  0.82447735  1
  Al  Al23  1  0.22728356  0.87396225  0.57507714  1
  Al  Al24  1  0.80086843  0.74600398  0.30759714  1
  Al  Al25  1  0.90979776  0.85523588  0.07516758  1
  Al  Al26  1  0.41906325  0.77179752  0.89054434  1
  Al  Al27  1  0.53985746  0.87876368  0.67076986  1
  Gd  Gd28  1  0.76416165  0.09814096  0.86180954  1
  Gd  Gd29  1  0.87492492  0.21084842  0.56298651  1
  Gd  Gd30  1  0.45094897  0.09050686  0.40200119  1
  Gd  Gd31  1  0.75774500  0.44614286  0.85953768  1
  Gd  Gd32  1  0.88797025  0.53748291  0.57822672  1
  Gd  Gd33  1  0.53634098  0.54120913  0.15173748  1
  Gd  Gd34  1  0.88801290  0.87135116  0.57450028  1
  Gd  Gd35  1  0.55813168  0.87177333  0.11612324  1
  N  N36  1  0.21088849  0.21000068  0.32288976  1
  N  N37  1  0.11943251  0.08300861  0.13181129  1
  N  N38  1  0.90868651  0.20153960  0.91412504  1
  N  N39  1  0.74753123  0.10578257  0.64797938  1
  N  N40  1  0.56484126  0.22454260  0.31451470  1
  N  N41  1  0.42506633  0.12595425  0.07685846  1
  N  N42  1  0.21148300  0.21009553  0.84624049  1
  N  N43  1  0.12525535  0.08515841  0.63137112  1
  N  N44  1  0.89636376  0.19753234  0.34461727  1
  N  N45  1  0.78079601  0.08668826  0.11506367  1
  N  N46  1  0.50000010  0.23696444  0.83309891  1
  N  N47  1  0.44093616  0.09076284  0.61344166  1
  N  N48  1  0.22354290  0.53931826  0.38853343  1
  N  N49  1  0.11763867  0.43191086  0.13580196  1
  N  N50  1  0.90591224  0.54952230  0.89630607  1
  N  N51  1  0.74874750  0.44086073  0.65142499  1
  N  N52  1  0.57451420  0.52921020  0.36134316  1
  N  N53  1  0.43238519  0.41566981  0.06762708  1
  N  N54  1  0.20181138  0.55348086  0.89308122  1
  N  N55  1  0.13846416  0.42227232  0.65114507  1
  N  N56  1  0.90203741  0.53332133  0.36487066  1
  N  N57  1  0.80366783  0.42254692  0.12836475  1
  N  N58  1  0.49169793  0.56981528  0.82652175  1
  N  N59  1  0.45139567  0.41943891  0.58057043  1
  N  N60  1  0.22941986  0.86609116  0.38647491  1
  N  N61  1  0.12204523  0.75483013  0.13892368  1
  N  N62  1  0.90753153  0.84481334  0.89488306  1
  N  N63  1  0.75843913  0.77025459  0.66570869  1
  N  N64  1  0.57864228  0.83935450  0.33308125  1
  N  N65  1  0.41996408  0.76630232  0.06429562  1
  N  N66  1  0.19764872  0.88375744  0.88853158  1
  N  N67  1  0.14393577  0.74587863  0.64438957  1
  N  N68  1  0.89303439  0.87362313  0.35774006  1
  N  N69  1  0.82010679  0.73967858  0.13221762  1
  N  N70  1  0.53947535  0.88094381  0.85642483  1
  N  N71  1  0.45161035  0.76333211  0.58900069  1
