# generated using pymatgen
data_Gd2Al7N9
_symmetry_space_group_name_H-M   'P 1'
_cell_length_a   9.92021099
_cell_length_b   9.83913228
_cell_length_c   10.68301057
_cell_angle_alpha   90.40420581
_cell_angle_beta   90.17863092
_cell_angle_gamma   60.40531950
_symmetry_Int_Tables_number   1
_chemical_formula_structural   Gd2Al7N9
_chemical_formula_sum   'Gd8 Al28 N36'
_cell_volume   906.67257056
_cell_formula_units_Z   4
loop_
 _symmetry_equiv_pos_site_id
 _symmetry_equiv_pos_as_xyz
  1  'x, y, z'
loop_
 _atom_site_type_symbol
 _atom_site_label
 _atom_site_symmetry_multiplicity
 _atom_site_fract_x
 _atom_site_fract_y
 _atom_site_fract_z
 _atom_site_occupancy
  Al  Al0  1  0.12767407  0.08423793  0.38769884  1
  Al  Al1  1  0.21880234  0.20787044  0.14343188  1
  Al  Al2  1  0.54067228  0.21946008  0.13844529  1
  Al  Al3  1  0.11843321  0.09046178  0.90189506  1
  Al  Al4  1  0.22487029  0.19859790  0.65212035  1
  Al  Al5  1  0.79515044  0.08866751  0.29761773  1
  Al  Al6  1  0.90180783  0.20097136  0.08254409  1
  Al  Al7  1  0.41650224  0.11676580  0.89617120  1
  Al  Al8  1  0.52482777  0.21989066  0.66100242  1
  Al  Al9  1  0.11928473  0.42953837  0.32520053  1
  Al  Al10  1  0.21149942  0.54415722  0.07370645  1
  Al  Al11  1  0.46838593  0.42108194  0.40122318  1
  Al  Al12  1  0.11124677  0.43021186  0.85383582  1
  Al  Al13  1  0.22912257  0.53123702  0.56984374  1
  Al  Al14  1  0.80361696  0.41671786  0.31125629  1
  Al  Al15  1  0.90974895  0.53330973  0.08013483  1
  Al  Al16  1  0.41660274  0.44090143  0.89291515  1
  Al  Al17  1  0.52443856  0.55231612  0.65157862  1
  Al  Al18  1  0.12138747  0.75231092  0.31958046  1
  Al  Al19  1  0.21943630  0.88115463  0.14686287  1
  Al  Al20  1  0.78824474  0.75686644  0.83999481  1
  Al  Al21  1  0.46271409  0.75089186  0.40625281  1
  Al  Al22  1  0.11703053  0.75164541  0.82143410  1
  Al  Al23  1  0.22907455  0.87517025  0.64318206  1
  Al  Al24  1  0.79969221  0.74701889  0.30675515  1
  Al  Al25  1  0.91409944  0.85381711  0.07480132  1
  Al  Al26  1  0.40955165  0.77654750  0.88979231  1
  Al  Al27  1  0.53955415  0.87890108  0.67114855  1
  Gd  Gd28  1  0.76008900  0.09550591  0.86492721  1
  Gd  Gd29  1  0.86544423  0.21454544  0.57187511  1
  Gd  Gd30  1  0.45736251  0.08884417  0.39987660  1
  Gd  Gd31  1  0.75372862  0.44591065  0.86151213  1
  Gd  Gd32  1  0.88207187  0.54004466  0.57731658  1
  Gd  Gd33  1  0.53633662  0.54782648  0.14867778  1
  Gd  Gd34  1  0.88600130  0.87136550  0.57531958  1
  Gd  Gd35  1  0.55852449  0.87365063  0.10838548  1
  N  N36  1  0.21197406  0.20733527  0.32346800  1
  N  N37  1  0.12342824  0.08925013  0.08716796  1
  N  N38  1  0.90518724  0.19955122  0.90249660  1
  N  N39  1  0.74270217  0.10466169  0.64969549  1
  N  N40  1  0.57217648  0.22217447  0.31585363  1
  N  N41  1  0.42405977  0.12798609  0.07858660  1
  N  N42  1  0.20850005  0.20723497  0.83816468  1
  N  N43  1  0.13608742  0.08130034  0.57244657  1
  N  N44  1  0.90221384  0.19644921  0.35230776  1
  N  N45  1  0.78473530  0.08652523  0.11423607  1
  N  N46  1  0.49679262  0.23892487  0.83446557  1
  N  N47  1  0.44086202  0.08873214  0.61320539  1
  N  N48  1  0.22955838  0.53816882  0.38198773  1
  N  N49  1  0.11846537  0.42739962  0.12661686  1
  N  N50  1  0.90169661  0.54996672  0.89840203  1
  N  N51  1  0.74240444  0.44558623  0.65284149  1
  N  N52  1  0.57475628  0.53143257  0.36032087  1
  N  N53  1  0.43211953  0.41826193  0.07166507  1
  N  N54  1  0.20187063  0.55155901  0.89327311  1
  N  N55  1  0.13721994  0.41360928  0.62245196  1
  N  N56  1  0.90299728  0.53362858  0.36118764  1
  N  N57  1  0.80277386  0.41981131  0.12703980  1
  N  N58  1  0.48922311  0.57052858  0.83019602  1
  N  N59  1  0.45135421  0.41846543  0.57958087  1
  N  N60  1  0.24148478  0.86502321  0.33202890  1
  N  N61  1  0.12026299  0.75508654  0.13869166  1
  N  N62  1  0.91233840  0.84228190  0.89340804  1
  N  N63  1  0.75544439  0.77221061  0.66597833  1
  N  N64  1  0.57973270  0.83842721  0.33221529  1
  N  N65  1  0.40535115  0.77755088  0.06283973  1
  N  N66  1  0.20774895  0.89124848  0.82530161  1
  N  N67  1  0.14003325  0.73791528  0.64017925  1
  N  N68  1  0.89559908  0.87287958  0.35801869  1
  N  N69  1  0.81923351  0.74187055  0.13051839  1
  N  N70  1  0.54081143  0.88132705  0.85990225  1
  N  N71  1  0.44357361  0.76526517  0.59055250  1
