# generated using pymatgen
data_Gd2Al7N9
_symmetry_space_group_name_H-M   'P 1'
_cell_length_a   10.04549872
_cell_length_b   9.86809047
_cell_length_c   10.24254915
_cell_angle_alpha   90.07574396
_cell_angle_beta   90.40812901
_cell_angle_gamma   60.86921639
_symmetry_Int_Tables_number   1
_chemical_formula_structural   Gd2Al7N9
_chemical_formula_sum   'Gd8 Al28 N36'
_cell_volume   886.88770083
_cell_formula_units_Z   4
loop_
 _symmetry_equiv_pos_site_id
 _symmetry_equiv_pos_as_xyz
  1  'x, y, z'
loop_
 _atom_site_type_symbol
 _atom_site_label
 _atom_site_symmetry_multiplicity
 _atom_site_fract_x
 _atom_site_fract_y
 _atom_site_fract_z
 _atom_site_occupancy
  Al  Al0  1  0.12662352  0.08662994  0.40097132  1
  Al  Al1  1  0.21502048  0.21166586  0.14834349  1
  Al  Al2  1  0.53257601  0.22379514  0.15584462  1
  Al  Al3  1  0.11297594  0.09052829  0.90551192  1
  Al  Al4  1  0.22685725  0.20268994  0.66103007  1
  Al  Al5  1  0.76901661  0.10469151  0.37850572  1
  Al  Al6  1  0.90750495  0.19261228  0.16671399  1
  Al  Al7  1  0.42160649  0.11708519  0.89883494  1
  Al  Al8  1  0.53481076  0.21910439  0.65920423  1
  Al  Al9  1  0.13067111  0.41789500  0.40253010  1
  Al  Al10  1  0.21636430  0.53868946  0.15280226  1
  Al  Al11  1  0.44938763  0.43170922  0.41492744  1
  Al  Al12  1  0.10931720  0.43436326  0.90420797  1
  Al  Al13  1  0.23023247  0.53438228  0.65308801  1
  Al  Al14  1  0.78417918  0.42455606  0.34624896  1
  Al  Al15  1  0.91867773  0.52363460  0.16037380  1
  Al  Al16  1  0.41517488  0.43907041  0.90077722  1
  Al  Al17  1  0.52842810  0.55147950  0.66671457  1
  Al  Al18  1  0.13681687  0.74992583  0.40243705  1
  Al  Al19  1  0.21593203  0.87831326  0.15515825  1
  Al  Al20  1  0.78236364  0.75939179  0.83658558  1
  Al  Al21  1  0.45841362  0.75254184  0.41727192  1
  Al  Al22  1  0.11008071  0.75897706  0.90312946  1
  Al  Al23  1  0.23019013  0.86931772  0.65081510  1
  Al  Al24  1  0.79132054  0.74989010  0.33907053  1
  Al  Al25  1  0.91373154  0.86307952  0.16836761  1
  Al  Al26  1  0.41372474  0.77361338  0.90098057  1
  Al  Al27  1  0.53153174  0.88271442  0.67547173  1
  Gd  Gd28  1  0.76790356  0.09020790  0.91591158  1
  Gd  Gd29  1  0.88609463  0.20285657  0.62498625  1
  Gd  Gd30  1  0.45059564  0.08848154  0.40993143  1
  Gd  Gd31  1  0.77069306  0.43526654  0.88977664  1
  Gd  Gd32  1  0.88532962  0.53857733  0.61442338  1
  Gd  Gd33  1  0.53849907  0.54440344  0.14834991  1
  Gd  Gd34  1  0.88889057  0.87495175  0.61643541  1
  Gd  Gd35  1  0.56757690  0.87092868  0.11449137  1
  N  N36  1  0.20422269  0.21446536  0.33286919  1
  N  N37  1  0.11022623  0.09345961  0.09821907  1
  N  N38  1  0.91191539  0.18471878  0.84907568  1
  N  N39  1  0.72408137  0.11875929  0.57075206  1
  N  N40  1  0.55715676  0.23170818  0.33501483  1
  N  N41  1  0.42393956  0.12560674  0.09282233  1
  N  N42  1  0.20981964  0.21211224  0.85127407  1
  N  N43  1  0.14796694  0.07786093  0.58481997  1
  N  N44  1  0.90169604  0.19827019  0.36141024  1
  N  N45  1  0.78346019  0.08964182  0.14004296  1
  N  N46  1  0.52038234  0.22960654  0.84375968  1
  N  N47  1  0.43725982  0.09461062  0.63009961  1
  N  N48  1  0.23204052  0.53539646  0.34164514  1
  N  N49  1  0.11533858  0.42574195  0.09479492  1
  N  N50  1  0.90675835  0.54687986  0.85121004  1
  N  N51  1  0.73719820  0.44536562  0.65708223  1
  N  N52  1  0.56266352  0.53645383  0.37053373  1
  N  N53  1  0.41663833  0.42293554  0.08527014  1
  N  N54  1  0.21069079  0.54506586  0.84293216  1
  N  N55  1  0.15064237  0.40568514  0.58710541  1
  N  N56  1  0.90690066  0.52741629  0.36619923  1
  N  N57  1  0.80464791  0.41509016  0.14536544  1
  N  N58  1  0.50646094  0.56230000  0.85713944  1
  N  N59  1  0.43735602  0.43161752  0.60063064  1
  N  N60  1  0.23577177  0.86734733  0.34390361  1
  N  N61  1  0.11562431  0.76101445  0.09887624  1
  N  N62  1  0.90465599  0.85227318  0.84945297  1
  N  N63  1  0.73700653  0.78281372  0.65149561  1
  N  N64  1  0.57794343  0.83762510  0.34852747  1
  N  N65  1  0.40612641  0.78389491  0.08216148  1
  N  N66  1  0.20982419  0.87944209  0.84024615  1
  N  N67  1  0.15035667  0.74118451  0.58586458  1
  N  N68  1  0.90518015  0.86789345  0.36407347  1
  N  N69  1  0.82389974  0.73780667  0.15235378  1
  N  N70  1  0.54450577  0.87861594  0.86930307  1
  N  N71  1  0.44057406  0.76531851  0.60646054  1
