# generated using pymatgen
data_Gd2Al7N9
_symmetry_space_group_name_H-M   'P 1'
_cell_length_a   10.05830268
_cell_length_b   9.84548071
_cell_length_c   10.38437810
_cell_angle_alpha   90.02796621
_cell_angle_beta   90.10263702
_cell_angle_gamma   60.44297620
_symmetry_Int_Tables_number   1
_chemical_formula_structural   Gd2Al7N9
_chemical_formula_sum   'Gd8 Al28 N36'
_cell_volume   894.52673121
_cell_formula_units_Z   4
loop_
 _symmetry_equiv_pos_site_id
 _symmetry_equiv_pos_as_xyz
  1  'x, y, z'
loop_
 _atom_site_type_symbol
 _atom_site_label
 _atom_site_symmetry_multiplicity
 _atom_site_fract_x
 _atom_site_fract_y
 _atom_site_fract_z
 _atom_site_occupancy
  Al  Al0  1  0.11247767  0.09464462  0.30212923  1
  Al  Al1  1  0.22089309  0.20996465  0.05976727  1
  Al  Al2  1  0.53801213  0.21634584  0.13051330  1
  Al  Al3  1  0.12264333  0.08656126  0.81597470  1
  Al  Al4  1  0.22026495  0.20427185  0.56777149  1
  Al  Al5  1  0.79099115  0.09095259  0.28142237  1
  Al  Al6  1  0.91047883  0.20033891  0.06245525  1
  Al  Al7  1  0.41649325  0.11015128  0.80396236  1
  Al  Al8  1  0.53400725  0.22906714  0.62973339  1
  Al  Al9  1  0.11057593  0.42668130  0.30144729  1
  Al  Al10  1  0.20508016  0.54367709  0.06358095  1
  Al  Al11  1  0.44943890  0.42572706  0.36371692  1
  Al  Al12  1  0.12339346  0.42619033  0.81421951  1
  Al  Al13  1  0.23254157  0.53523380  0.55730792  1
  Al  Al14  1  0.79291753  0.42443766  0.29113565  1
  Al  Al15  1  0.91087264  0.53083743  0.05641202  1
  Al  Al16  1  0.41625341  0.43714155  0.88194661  1
  Al  Al17  1  0.55208948  0.54652815  0.54380354  1
  Al  Al18  1  0.11556300  0.76058571  0.30271918  1
  Al  Al19  1  0.21144117  0.87800256  0.05863691  1
  Al  Al20  1  0.79656142  0.75142566  0.81711203  1
  Al  Al21  1  0.43974555  0.76651252  0.30967885  1
  Al  Al22  1  0.12073542  0.75360738  0.81193247  1
  Al  Al23  1  0.23429810  0.86581434  0.56231924  1
  Al  Al24  1  0.79166053  0.75102126  0.28560351  1
  Al  Al25  1  0.90755865  0.85654043  0.05758698  1
  Al  Al26  1  0.42257675  0.75824848  0.80598600  1
  Al  Al27  1  0.54943818  0.87033269  0.63519356  1
  Gd  Gd28  1  0.75932310  0.10068983  0.85076675  1
  Gd  Gd29  1  0.89375792  0.19762798  0.54968227  1
  Gd  Gd30  1  0.45078118  0.08884374  0.35533698  1
  Gd  Gd31  1  0.76641607  0.43776168  0.82138651  1
  Gd  Gd32  1  0.90156191  0.53457814  0.55324403  1
  Gd  Gd33  1  0.54655119  0.53818260  0.09188392  1
  Gd  Gd34  1  0.88874508  0.87385742  0.55979353  1
  Gd  Gd35  1  0.55154513  0.87722541  0.06648196  1
  N  N36  1  0.18317015  0.22424270  0.38344798  1
  N  N37  1  0.11844487  0.09279181  0.11688474  1
  N  N38  1  0.92145189  0.19071659  0.87757747  1
  N  N39  1  0.74663788  0.11162103  0.62553612  1
  N  N40  1  0.57844996  0.21911100  0.30877874  1
  N  N41  1  0.42099181  0.12013322  0.12333283  1
  N  N42  1  0.21790806  0.20688006  0.87256089  1
  N  N43  1  0.14177716  0.07588337  0.63257272  1
  N  N44  1  0.89330217  0.20182587  0.32891577  1
  N  N45  1  0.77969425  0.09084113  0.09238761  1
  N  N46  1  0.49983296  0.24097239  0.81083332  1
  N  N47  1  0.43822963  0.09317847  0.60408251  1
  N  N48  1  0.21488515  0.54146959  0.36371664  1
  N  N49  1  0.11472518  0.42310841  0.11726173  1
  N  N50  1  0.91246540  0.54195271  0.86844925  1
  N  N51  1  0.75204721  0.44123017  0.60357055  1
  N  N52  1  0.55965453  0.54211438  0.34708436  1
  N  N53  1  0.41691922  0.41761928  0.07666040  1
  N  N54  1  0.20510930  0.54943839  0.87810887  1
  N  N55  1  0.14956229  0.41218985  0.63145415  1
  N  N56  1  0.89559685  0.53767480  0.33761744  1
  N  N57  1  0.80855834  0.41718149  0.10368318  1
  N  N58  1  0.51541704  0.55573744  0.86941653  1
  N  N59  1  0.44854982  0.42655824  0.55042420  1
  N  N60  1  0.22034839  0.87576999  0.37374017  1
  N  N61  1  0.11378235  0.76176436  0.11740407  1
  N  N62  1  0.91113766  0.84563771  0.86828113  1
  N  N63  1  0.76006125  0.76721736  0.63793121  1
  N  N64  1  0.58288511  0.83742938  0.32199031  1
  N  N65  1  0.40176787  0.78560206  0.13180155  1
  N  N66  1  0.21924822  0.87167830  0.87200917  1
  N  N67  1  0.14382898  0.74397080  0.62649099  1
  N  N68  1  0.89265911  0.87367633  0.33731532  1
  N  N69  1  0.81176983  0.74328759  0.10375163  1
  N  N70  1  0.54132688  0.87922223  0.83141006  1
  N  N71  1  0.44387159  0.75530947  0.61599147  1
