# generated using pymatgen
data_Gd2Al7N9
_symmetry_space_group_name_H-M   'P 1'
_cell_length_a   10.06309901
_cell_length_b   9.87285432
_cell_length_c   10.22337151
_cell_angle_alpha   90.08544360
_cell_angle_beta   90.50461614
_cell_angle_gamma   60.86938751
_symmetry_Int_Tables_number   1
_chemical_formula_structural   Gd2Al7N9
_chemical_formula_sum   'Gd8 Al28 N36'
_cell_volume   887.19390787
_cell_formula_units_Z   4
loop_
 _symmetry_equiv_pos_site_id
 _symmetry_equiv_pos_as_xyz
  1  'x, y, z'
loop_
 _atom_site_type_symbol
 _atom_site_label
 _atom_site_symmetry_multiplicity
 _atom_site_fract_x
 _atom_site_fract_y
 _atom_site_fract_z
 _atom_site_occupancy
  Al  Al0  1  0.12707086  0.08632181  0.40102180  1
  Al  Al1  1  0.21494841  0.21171308  0.14872150  1
  Al  Al2  1  0.53114312  0.22446566  0.15579380  1
  Al  Al3  1  0.11309724  0.09070115  0.90515343  1
  Al  Al4  1  0.22647617  0.20271637  0.66090503  1
  Al  Al5  1  0.77152061  0.10288549  0.37197100  1
  Al  Al6  1  0.90864642  0.19304058  0.16505913  1
  Al  Al7  1  0.42075448  0.11722033  0.89951924  1
  Al  Al8  1  0.53395027  0.21932825  0.66083916  1
  Al  Al9  1  0.13066339  0.41779973  0.40283508  1
  Al  Al10  1  0.21631210  0.53866526  0.15325608  1
  Al  Al11  1  0.45042163  0.43090065  0.41516581  1
  Al  Al12  1  0.10934621  0.43436631  0.90400670  1
  Al  Al13  1  0.22990321  0.53464463  0.65294744  1
  Al  Al14  1  0.78447169  0.42446976  0.34555044  1
  Al  Al15  1  0.91890299  0.52355716  0.15970315  1
  Al  Al16  1  0.41424298  0.43960986  0.90137485  1
  Al  Al17  1  0.52803450  0.55149532  0.66707718  1
  Al  Al18  1  0.13744741  0.74950632  0.40245165  1
  Al  Al19  1  0.21611090  0.87811376  0.15518481  1
  Al  Al20  1  0.78269193  0.75945996  0.83701539  1
  Al  Al21  1  0.45886822  0.75206830  0.41727246  1
  Al  Al22  1  0.11015388  0.75903922  0.90284522  1
  Al  Al23  1  0.23004774  0.86939853  0.65061280  1
  Al  Al24  1  0.79140687  0.74969101  0.33839379  1
  Al  Al25  1  0.91442523  0.86175777  0.16643374  1
  Al  Al26  1  0.41334050  0.77374356  0.90096024  1
  Al  Al27  1  0.53129941  0.88282896  0.67579860  1
  Gd  Gd28  1  0.76770866  0.09101978  0.91453513  1
  Gd  Gd29  1  0.88553229  0.20382729  0.62420129  1
  Gd  Gd30  1  0.45121863  0.08813476  0.40998684  1
  Gd  Gd31  1  0.77057096  0.43598566  0.88940882  1
  Gd  Gd32  1  0.88478103  0.53910378  0.61435011  1
  Gd  Gd33  1  0.53885794  0.54427219  0.14742898  1
  Gd  Gd34  1  0.88835515  0.87493871  0.61575345  1
  Gd  Gd35  1  0.56724198  0.87087981  0.11436531  1
  N  N36  1  0.20452185  0.21429783  0.33346064  1
  N  N37  1  0.11100707  0.09323331  0.09808843  1
  N  N38  1  0.91202949  0.18566749  0.84955949  1
  N  N39  1  0.72447847  0.11873907  0.57589117  1
  N  N40  1  0.55863648  0.23058379  0.33534161  1
  N  N41  1  0.42337893  0.12550512  0.09389021  1
  N  N42  1  0.20963637  0.21218901  0.85142555  1
  N  N43  1  0.14776129  0.07773075  0.58501878  1
  N  N44  1  0.90235938  0.19813949  0.36047835  1
  N  N45  1  0.78451614  0.08927288  0.14073029  1
  N  N46  1  0.51875489  0.23014394  0.84565569  1
  N  N47  1  0.43659187  0.09488312  0.63034451  1
  N  N48  1  0.23240538  0.53483299  0.34217952  1
  N  N49  1  0.11548735  0.42570802  0.09499128  1
  N  N50  1  0.90696158  0.54699843  0.85134215  1
  N  N51  1  0.73643413  0.44643992  0.65704157  1
  N  N52  1  0.56307886  0.53596682  0.37013524  1
  N  N53  1  0.41590947  0.42358612  0.08619031  1
  N  N54  1  0.21035231  0.54533525  0.84302185  1
  N  N55  1  0.14996832  0.40608837  0.58760938  1
  N  N56  1  0.90706053  0.52737110  0.36574205  1
  N  N57  1  0.80491495  0.41527462  0.14462109  1
  N  N58  1  0.50612068  0.56217111  0.85795759  1
  N  N59  1  0.43695020  0.43163311  0.60108052  1
  N  N60  1  0.23601819  0.86708338  0.34403455  1
  N  N61  1  0.11618588  0.76051344  0.09881534  1
  N  N62  1  0.90464643  0.85237028  0.85033112  1
  N  N63  1  0.73642320  0.78315341  0.65186213  1
  N  N64  1  0.57842061  0.83715022  0.34867536  1
  N  N65  1  0.40593044  0.78400098  0.08249149  1
  N  N66  1  0.20967283  0.87952588  0.84029918  1
  N  N67  1  0.15018940  0.74146543  0.58601898  1
  N  N68  1  0.90537082  0.86752244  0.36306087  1
  N  N69  1  0.82356714  0.73766388  0.15129003  1
  N  N70  1  0.54399563  0.87877864  0.86973351  1
  N  N71  1  0.44034382  0.76532898  0.60670228  1
