# generated using pymatgen
data_Gd2Al7N9
_symmetry_space_group_name_H-M   'P 1'
_cell_length_a   10.11456738
_cell_length_b   9.88443384
_cell_length_c   10.20232971
_cell_angle_alpha   90.04653287
_cell_angle_beta   90.73511266
_cell_angle_gamma   60.84659946
_symmetry_Int_Tables_number   1
_chemical_formula_structural   Gd2Al7N9
_chemical_formula_sum   'Gd8 Al28 N36'
_cell_volume   890.69085673
_cell_formula_units_Z   4
loop_
 _symmetry_equiv_pos_site_id
 _symmetry_equiv_pos_as_xyz
  1  'x, y, z'
loop_
 _atom_site_type_symbol
 _atom_site_label
 _atom_site_symmetry_multiplicity
 _atom_site_fract_x
 _atom_site_fract_y
 _atom_site_fract_z
 _atom_site_occupancy
  Al  Al0  1  0.12704976  0.08571693  0.39963204  1
  Al  Al1  1  0.21403752  0.21226287  0.14866533  1
  Al  Al2  1  0.52916770  0.22544020  0.15185796  1
  Al  Al3  1  0.11461602  0.09071721  0.90203826  1
  Al  Al4  1  0.22682215  0.20166020  0.65850377  1
  Al  Al5  1  0.78067020  0.09746307  0.33116115  1
  Al  Al6  1  0.91184971  0.19532500  0.15419323  1
  Al  Al7  1  0.41701497  0.11769554  0.90289125  1
  Al  Al8  1  0.52615922  0.22204458  0.67044851  1
  Al  Al9  1  0.12924718  0.41852629  0.40211636  1
  Al  Al10  1  0.21646372  0.53887418  0.15342556  1
  Al  Al11  1  0.45314614  0.42896611  0.41342352  1
  Al  Al12  1  0.11055827  0.43333032  0.90156926  1
  Al  Al13  1  0.22989233  0.53497565  0.65082559  1
  Al  Al14  1  0.78641214  0.42484655  0.34108549  1
  Al  Al15  1  0.91906089  0.52445130  0.15048724  1
  Al  Al16  1  0.41027330  0.44229123  0.90298875  1
  Al  Al17  1  0.52736881  0.55129732  0.66632254  1
  Al  Al18  1  0.13854288  0.74936703  0.40106095  1
  Al  Al19  1  0.21663434  0.87768741  0.15375292  1
  Al  Al20  1  0.78456633  0.75835695  0.83771581  1
  Al  Al21  1  0.46063109  0.75075921  0.41600757  1
  Al  Al22  1  0.11123678  0.75856352  0.90031647  1
  Al  Al23  1  0.22956949  0.86966840  0.64882158  1
  Al  Al24  1  0.79219761  0.74882520  0.33404712  1
  Al  Al25  1  0.91575903  0.85868705  0.15396383  1
  Al  Al26  1  0.41258220  0.77387620  0.89922330  1
  Al  Al27  1  0.53166587  0.88301633  0.67512733  1
  Gd  Gd28  1  0.76576872  0.09382569  0.89153945  1
  Gd  Gd29  1  0.88257674  0.20702500  0.61952762  1
  Gd  Gd30  1  0.45022733  0.08818200  0.40545872  1
  Gd  Gd31  1  0.76939839  0.43632092  0.88628011  1
  Gd  Gd32  1  0.88513997  0.53883876  0.61434915  1
  Gd  Gd33  1  0.54006712  0.54437377  0.14394713  1
  Gd  Gd34  1  0.88512200  0.87548327  0.61149339  1
  Gd  Gd35  1  0.56619400  0.87034953  0.11243507  1
  N  N36  1  0.20279906  0.21506082  0.33318080  1
  N  N37  1  0.11370732  0.09249308  0.09567547  1
  N  N38  1  0.91585551  0.18950873  0.84826826  1
  N  N39  1  0.73053641  0.11509651  0.64462102  1
  N  N40  1  0.56649619  0.22502320  0.33528505  1
  N  N41  1  0.42172115  0.12474884  0.09788478  1
  N  N42  1  0.21015103  0.21133107  0.84954149  1
  N  N43  1  0.14687223  0.07754322  0.58381614  1
  N  N44  1  0.90230851  0.19737373  0.35478704  1
  N  N45  1  0.78675596  0.08938160  0.13475595  1
  N  N46  1  0.50628819  0.23499414  0.85383032  1
  N  N47  1  0.43638308  0.09488283  0.62581319  1
  N  N48  1  0.23296504  0.53378671  0.34212931  1
  N  N49  1  0.11719554  0.42544772  0.09340747  1
  N  N50  1  0.90680977  0.54601386  0.85469603  1
  N  N51  1  0.73457506  0.44957179  0.65489834  1
  N  N52  1  0.56462956  0.53456181  0.36723258  1
  N  N53  1  0.41445752  0.42606448  0.08872461  1
  N  N54  1  0.20935340  0.54612588  0.84110501  1
  N  N55  1  0.14968222  0.40639083  0.58714001  1
  N  N56  1  0.90715297  0.52806411  0.36430763  1
  N  N57  1  0.80592784  0.41642415  0.14049935  1
  N  N58  1  0.50424223  0.56189441  0.85761645  1
  N  N59  1  0.43750574  0.43008449  0.59939419  1
  N  N60  1  0.23637838  0.86682522  0.34269481  1
  N  N61  1  0.11829196  0.75912615  0.09713248  1
  N  N62  1  0.90748748  0.84793321  0.85258391  1
  N  N63  1  0.73627156  0.78166364  0.65286342  1
  N  N64  1  0.57991827  0.83609300  0.34707808  1
  N  N65  1  0.40530189  0.78409571  0.08149535  1
  N  N66  1  0.20997057  0.87922380  0.83872803  1
  N  N67  1  0.14901730  0.74245846  0.58493701  1
  N  N68  1  0.90305602  0.87021113  0.35783623  1
  N  N69  1  0.82258803  0.73796657  0.14671234  1
  N  N70  1  0.54178828  0.88020635  0.86945108  1
  N  N71  1  0.43994027  0.76546762  0.60542677  1
