# generated using pymatgen
data_Gd2Al7N9
_symmetry_space_group_name_H-M   'P 1'
_cell_length_a   10.04920026
_cell_length_b   9.87058159
_cell_length_c   10.34648251
_cell_angle_alpha   90.14293033
_cell_angle_beta   90.74523966
_cell_angle_gamma   60.74533867
_symmetry_Int_Tables_number   1
_chemical_formula_structural   Gd2Al7N9
_chemical_formula_sum   'Gd8 Al28 N36'
_cell_volume   895.30217251
_cell_formula_units_Z   4
loop_
 _symmetry_equiv_pos_site_id
 _symmetry_equiv_pos_as_xyz
  1  'x, y, z'
loop_
 _atom_site_type_symbol
 _atom_site_label
 _atom_site_symmetry_multiplicity
 _atom_site_fract_x
 _atom_site_fract_y
 _atom_site_fract_z
 _atom_site_occupancy
  Al  Al0  1  0.12677913  0.08730207  0.39966683  1
  Al  Al1  1  0.21236765  0.21498610  0.15128621  1
  Al  Al2  1  0.53307319  0.22384837  0.14983734  1
  Al  Al3  1  0.11404381  0.09205409  0.90245372  1
  Al  Al4  1  0.22891315  0.19899088  0.65934889  1
  Al  Al5  1  0.78539565  0.08867363  0.31797407  1
  Al  Al6  1  0.91034623  0.19743712  0.15138435  1
  Al  Al7  1  0.41739472  0.11686321  0.90716563  1
  Al  Al8  1  0.52589009  0.22121062  0.67262904  1
  Al  Al9  1  0.12554569  0.41882422  0.40423177  1
  Al  Al10  1  0.21844780  0.53381164  0.16078620  1
  Al  Al11  1  0.45666525  0.42637028  0.41267425  1
  Al  Al12  1  0.11889894  0.42665660  0.90335924  1
  Al  Al13  1  0.23248324  0.52916412  0.64624905  1
  Al  Al14  1  0.79438154  0.42819464  0.33376460  1
  Al  Al15  1  0.91024541  0.53403314  0.08879705  1
  Al  Al16  1  0.40706543  0.44448001  0.90503179  1
  Al  Al17  1  0.52497117  0.55354653  0.66605701  1
  Al  Al18  1  0.12256918  0.75701324  0.35279401  1
  Al  Al19  1  0.21667758  0.88074454  0.15932667  1
  Al  Al20  1  0.78516941  0.75873060  0.85455499  1
  Al  Al21  1  0.46342424  0.75090674  0.41720569  1
  Al  Al22  1  0.11329273  0.75928616  0.83845248  1
  Al  Al23  1  0.23104498  0.87405511  0.64551866  1
  Al  Al24  1  0.80071333  0.74292492  0.32436305  1
  Al  Al25  1  0.91706583  0.85102692  0.09387735  1
  Al  Al26  1  0.41137095  0.77519934  0.90213185  1
  Al  Al27  1  0.53775426  0.88073857  0.68192245  1
  Gd  Gd28  1  0.76376991  0.09734059  0.88370125  1
  Gd  Gd29  1  0.87853895  0.20936811  0.61399280  1
  Gd  Gd30  1  0.45222245  0.08853208  0.40657918  1
  Gd  Gd31  1  0.76082629  0.43364901  0.88131164  1
  Gd  Gd32  1  0.88474133  0.54009246  0.61211449  1
  Gd  Gd33  1  0.53898599  0.54520318  0.14889424  1
  Gd  Gd34  1  0.87840099  0.87695297  0.58957071  1
  Gd  Gd35  1  0.56023782  0.87284057  0.11944845  1
  N  N36  1  0.20309086  0.21557246  0.33337968  1
  N  N37  1  0.11366612  0.09328689  0.09385850  1
  N  N38  1  0.91697114  0.18921827  0.84233416  1
  N  N39  1  0.73442780  0.11022862  0.65567318  1
  N  N40  1  0.56971740  0.22264334  0.33199478  1
  N  N41  1  0.42075106  0.12668790  0.09748394  1
  N  N42  1  0.21110927  0.21006336  0.84793224  1
  N  N43  1  0.14382248  0.08116624  0.58247982  1
  N  N44  1  0.90331832  0.19602742  0.34838831  1
  N  N45  1  0.78414710  0.09078144  0.12663175  1
  N  N46  1  0.50257566  0.23744234  0.85369080  1
  N  N47  1  0.44125789  0.09058745  0.62573684  1
  N  N48  1  0.23629356  0.52701941  0.34898313  1
  N  N49  1  0.12221277  0.42374112  0.09208815  1
  N  N50  1  0.90172161  0.54744180  0.89619994  1
  N  N51  1  0.73480026  0.45150753  0.66085126  1
  N  N52  1  0.56781232  0.53386539  0.36779002  1
  N  N53  1  0.41497172  0.42632997  0.08805115  1
  N  N54  1  0.20860326  0.54095271  0.83514475  1
  N  N55  1  0.14968640  0.40285807  0.58909859  1
  N  N56  1  0.90286986  0.53320050  0.38545951  1
  N  N57  1  0.80636786  0.41993962  0.13690109  1
  N  N58  1  0.49700994  0.56541073  0.85417712  1
  N  N59  1  0.44118789  0.42745100  0.59690768  1
  N  N60  1  0.24073083  0.86942098  0.34830390  1
  N  N61  1  0.11872986  0.75798108  0.15220115  1
  N  N62  1  0.91392575  0.84125563  0.90493561  1
  N  N63  1  0.74826179  0.77781207  0.67646128  1
  N  N64  1  0.58340844  0.83615247  0.34758255  1
  N  N65  1  0.40239966  0.78315537  0.08096409  1
  N  N66  1  0.21212879  0.88404382  0.83530180  1
  N  N67  1  0.13698641  0.74855647  0.61872259  1
  N  N68  1  0.89311606  0.87288824  0.36918482  1
  N  N69  1  0.82058150  0.73820460  0.14191682  1
  N  N70  1  0.54030907  0.88193820  0.87482460  1
  N  N71  1  0.44383379  0.76594278  0.60500174  1
