# generated using pymatgen
data_Gd2Al7N9
_symmetry_space_group_name_H-M   'P 1'
_cell_length_a   9.92475760
_cell_length_b   9.84018304
_cell_length_c   10.68344163
_cell_angle_alpha   90.40452168
_cell_angle_beta   90.18427313
_cell_angle_gamma   60.40000640
_symmetry_Int_Tables_number   1
_chemical_formula_structural   Gd2Al7N9
_chemical_formula_sum   'Gd8 Al28 N36'
_cell_volume   907.17380774
_cell_formula_units_Z   4
loop_
 _symmetry_equiv_pos_site_id
 _symmetry_equiv_pos_as_xyz
  1  'x, y, z'
loop_
 _atom_site_type_symbol
 _atom_site_label
 _atom_site_symmetry_multiplicity
 _atom_site_fract_x
 _atom_site_fract_y
 _atom_site_fract_z
 _atom_site_occupancy
  Al  Al0  1  0.12760129  0.08414653  0.38768688  1
  Al  Al1  1  0.21830021  0.20878172  0.14320179  1
  Al  Al2  1  0.54066046  0.21938889  0.13844546  1
  Al  Al3  1  0.11847452  0.09050327  0.90174747  1
  Al  Al4  1  0.22436444  0.19999536  0.65135966  1
  Al  Al5  1  0.79518436  0.08865391  0.29759927  1
  Al  Al6  1  0.90196675  0.20088207  0.08253682  1
  Al  Al7  1  0.41672672  0.11659626  0.89596423  1
  Al  Al8  1  0.52491065  0.21982689  0.66095847  1
  Al  Al9  1  0.12031125  0.42762539  0.33649480  1
  Al  Al10  1  0.21203880  0.54471043  0.07381486  1
  Al  Al11  1  0.46878718  0.42099327  0.40126126  1
  Al  Al12  1  0.11136741  0.42823433  0.86950677  1
  Al  Al13  1  0.22963977  0.53135368  0.56955265  1
  Al  Al14  1  0.80357213  0.41658497  0.31121214  1
  Al  Al15  1  0.90793965  0.53403483  0.08057120  1
  Al  Al16  1  0.41667229  0.44096146  0.89270822  1
  Al  Al17  1  0.52447367  0.55234618  0.65158891  1
  Al  Al18  1  0.12137937  0.75246072  0.31934993  1
  Al  Al19  1  0.21945992  0.88125558  0.14675386  1
  Al  Al20  1  0.78801069  0.75721358  0.83976182  1
  Al  Al21  1  0.46279512  0.75088352  0.40630604  1
  Al  Al22  1  0.11691805  0.75164190  0.82114323  1
  Al  Al23  1  0.22912255  0.87525746  0.64309634  1
  Al  Al24  1  0.79977495  0.74718143  0.30676796  1
  Al  Al25  1  0.91405397  0.85385000  0.07475047  1
  Al  Al26  1  0.40947408  0.77659678  0.88976804  1
  Al  Al27  1  0.53944602  0.87904497  0.67117478  1
  Gd  Gd28  1  0.76018421  0.09554693  0.86489703  1
  Gd  Gd29  1  0.86565137  0.21448069  0.57192348  1
  Gd  Gd30  1  0.45747218  0.08873114  0.40007912  1
  Gd  Gd31  1  0.75338747  0.44582594  0.86136963  1
  Gd  Gd32  1  0.88155120  0.54034803  0.57780829  1
  Gd  Gd33  1  0.53624253  0.54788564  0.14874682  1
  Gd  Gd34  1  0.88604121  0.87139543  0.57534324  1
  Gd  Gd35  1  0.55846195  0.87366076  0.10828304  1
  N  N36  1  0.21177533  0.20775333  0.32284459  1
  N  N37  1  0.12354592  0.08920351  0.08712945  1
  N  N38  1  0.90535081  0.19952646  0.90254401  1
  N  N39  1  0.74276919  0.10473082  0.64967864  1
  N  N40  1  0.57225618  0.22204628  0.31594806  1
  N  N41  1  0.42426624  0.12777483  0.07867081  1
  N  N42  1  0.20810106  0.20832490  0.83766784  1
  N  N43  1  0.13624305  0.08114802  0.57230484  1
  N  N44  1  0.90228715  0.19642590  0.35227029  1
  N  N45  1  0.78480088  0.08652414  0.11426004  1
  N  N46  1  0.49694551  0.23888134  0.83450201  1
  N  N47  1  0.44100610  0.08859009  0.61336798  1
  N  N48  1  0.23051452  0.53871841  0.38119073  1
  N  N49  1  0.11863773  0.42518498  0.11588461  1
  N  N50  1  0.89957965  0.55114740  0.89836477  1
  N  N51  1  0.74225708  0.44536059  0.65292121  1
  N  N52  1  0.57494902  0.53141427  0.36035580  1
  N  N53  1  0.43225320  0.41823814  0.07164890  1
  N  N54  1  0.20225461  0.55205980  0.89268881  1
  N  N55  1  0.13819921  0.41108449  0.61038445  1
  N  N56  1  0.90291409  0.53369197  0.36081187  1
  N  N57  1  0.80243022  0.41975073  0.12725923  1
  N  N58  1  0.48919990  0.57062969  0.83017941  1
  N  N59  1  0.45159478  0.41856021  0.57962759  1
  N  N60  1  0.24153851  0.86513087  0.33190336  1
  N  N61  1  0.12015025  0.75522841  0.13864691  1
  N  N62  1  0.91231469  0.84227890  0.89341175  1
  N  N63  1  0.75519983  0.77279993  0.66599545  1
  N  N64  1  0.57983780  0.83842430  0.33230177  1
  N  N65  1  0.40531381  0.77752702  0.06281746  1
  N  N66  1  0.20775304  0.89135597  0.82519795  1
  N  N67  1  0.14006435  0.73795435  0.64001405  1
  N  N68  1  0.89573290  0.87282362  0.35802767  1
  N  N69  1  0.81918264  0.74208653  0.13079981  1
  N  N70  1  0.54054612  0.88153526  0.85991877  1
  N  N71  1  0.44362018  0.76524734  0.59053389  1
