# generated using pymatgen
data_Gd2Al7N9
_symmetry_space_group_name_H-M   'P 1'
_cell_length_a   10.03962230
_cell_length_b   9.82930241
_cell_length_c   10.49794202
_cell_angle_alpha   90.06267095
_cell_angle_beta   90.07458287
_cell_angle_gamma   60.22593947
_symmetry_Int_Tables_number   1
_chemical_formula_structural   Gd2Al7N9
_chemical_formula_sum   'Gd8 Al28 N36'
_cell_volume   899.20500793
_cell_formula_units_Z   4
loop_
 _symmetry_equiv_pos_site_id
 _symmetry_equiv_pos_as_xyz
  1  'x, y, z'
loop_
 _atom_site_type_symbol
 _atom_site_label
 _atom_site_symmetry_multiplicity
 _atom_site_fract_x
 _atom_site_fract_y
 _atom_site_fract_z
 _atom_site_occupancy
  Al  Al0  1  0.11214796  0.09417745  0.30288425  1
  Al  Al1  1  0.21151302  0.21233380  0.05849994  1
  Al  Al2  1  0.54059184  0.21266918  0.11956459  1
  Al  Al3  1  0.12261398  0.08872892  0.81337124  1
  Al  Al4  1  0.22372475  0.20350773  0.56637815  1
  Al  Al5  1  0.78852879  0.09318959  0.27808369  1
  Al  Al6  1  0.91074979  0.19870339  0.06179888  1
  Al  Al7  1  0.42345028  0.11278874  0.87652391  1
  Al  Al8  1  0.52742594  0.22141822  0.63356177  1
  Al  Al9  1  0.11222472  0.42724020  0.30385427  1
  Al  Al10  1  0.20574831  0.54244164  0.05769613  1
  Al  Al11  1  0.45577185  0.42522754  0.37129528  1
  Al  Al12  1  0.12327777  0.42660844  0.80998871  1
  Al  Al13  1  0.22913644  0.53742939  0.55667093  1
  Al  Al14  1  0.79108092  0.42665528  0.28954260  1
  Al  Al15  1  0.91592151  0.52930162  0.05655052  1
  Al  Al16  1  0.41661285  0.43616184  0.87816386  1
  Al  Al17  1  0.54436748  0.54809799  0.57679023  1
  Al  Al18  1  0.11755590  0.75946512  0.30193653  1
  Al  Al19  1  0.21116107  0.87686289  0.05755979  1
  Al  Al20  1  0.79661369  0.75364473  0.81847255  1
  Al  Al21  1  0.44157261  0.76070601  0.30738875  1
  Al  Al22  1  0.11983106  0.75577206  0.80942346  1
  Al  Al23  1  0.23280754  0.86906141  0.56266649  1
  Al  Al24  1  0.79618008  0.74988176  0.28445936  1
  Al  Al25  1  0.90984829  0.85706077  0.05552601  1
  Al  Al26  1  0.42186958  0.76225707  0.81186430  1
  Al  Al27  1  0.54136978  0.88596200  0.64784657  1
  Gd  Gd28  1  0.76103249  0.10138570  0.84631225  1
  Gd  Gd29  1  0.88868209  0.20193252  0.54876829  1
  Gd  Gd30  1  0.45418161  0.08537336  0.36004083  1
  Gd  Gd31  1  0.77123025  0.43712293  0.82929470  1
  Gd  Gd32  1  0.89298138  0.53979006  0.55511831  1
  Gd  Gd33  1  0.54582141  0.53001613  0.09373896  1
  Gd  Gd34  1  0.88466122  0.87585506  0.55759150  1
  Gd  Gd35  1  0.56290453  0.85716782  0.07309589  1
  N  N36  1  0.18739758  0.22158368  0.37897136  1
  N  N37  1  0.11870627  0.09135487  0.11926222  1
  N  N38  1  0.92330426  0.18828540  0.88002856  1
  N  N39  1  0.74421328  0.11350631  0.62526320  1
  N  N40  1  0.57033111  0.22213416  0.29716237  1
  N  N41  1  0.43119618  0.11390996  0.06868765  1
  N  N42  1  0.20830891  0.21336468  0.87403736  1
  N  N43  1  0.13829781  0.08062762  0.63087511  1
  N  N44  1  0.89096095  0.20332001  0.32901999  1
  N  N45  1  0.78097550  0.09132199  0.09077828  1
  N  N46  1  0.49831123  0.23649346  0.81122424  1
  N  N47  1  0.44397174  0.09117980  0.57949836  1
  N  N48  1  0.21789613  0.54129941  0.36587625  1
  N  N49  1  0.11917104  0.42126400  0.12088976  1
  N  N50  1  0.91419066  0.54480275  0.87104272  1
  N  N51  1  0.74989393  0.44242941  0.61451637  1
  N  N52  1  0.56327493  0.53730248  0.33915026  1
  N  N53  1  0.41834369  0.41118490  0.06018111  1
  N  N54  1  0.20384529  0.55091244  0.87318684  1
  N  N55  1  0.14486022  0.41457087  0.62815059  1
  N  N56  1  0.89591969  0.53752533  0.34035169  1
  N  N57  1  0.81029917  0.41801753  0.10195626  1
  N  N58  1  0.51661046  0.55454806  0.86451374  1
  N  N59  1  0.44807338  0.42531213  0.55641143  1
  N  N60  1  0.22275457  0.87448117  0.37430444  1
  N  N61  1  0.11560054  0.75963157  0.11718699  1
  N  N62  1  0.91139394  0.84722834  0.86935833  1
  N  N63  1  0.75508119  0.77265490  0.64245087  1
  N  N64  1  0.58288598  0.83692009  0.30778205  1
  N  N65  1  0.40077005  0.77848656  0.13061261  1
  N  N66  1  0.21734715  0.87415888  0.87269461  1
  N  N67  1  0.14078413  0.74759681  0.62533424  1
  N  N68  1  0.89157578  0.87602265  0.33677446  1
  N  N69  1  0.82117879  0.73957214  0.10570453  1
  N  N70  1  0.54096331  0.88234611  0.83926399  1
  N  N71  1  0.43962898  0.76351851  0.62501588  1
