# generated using pymatgen
data_Gd2Al7N9
_symmetry_space_group_name_H-M   'P 1'
_cell_length_a   10.06167530
_cell_length_b   9.85041522
_cell_length_c   10.35745366
_cell_angle_alpha   90.07582887
_cell_angle_beta   90.14811123
_cell_angle_gamma   60.46469136
_symmetry_Int_Tables_number   1
_chemical_formula_structural   Gd2Al7N9
_chemical_formula_sum   'Gd8 Al28 N36'
_cell_volume   893.14429641
_cell_formula_units_Z   4
loop_
 _symmetry_equiv_pos_site_id
 _symmetry_equiv_pos_as_xyz
  1  'x, y, z'
loop_
 _atom_site_type_symbol
 _atom_site_label
 _atom_site_symmetry_multiplicity
 _atom_site_fract_x
 _atom_site_fract_y
 _atom_site_fract_z
 _atom_site_occupancy
  Al  Al0  1  0.11232871  0.09503402  0.30245480  1
  Al  Al1  1  0.22089264  0.21013952  0.05986053  1
  Al  Al2  1  0.53874909  0.21640324  0.13550695  1
  Al  Al3  1  0.12245517  0.08659821  0.81600816  1
  Al  Al4  1  0.21983914  0.20468053  0.56801937  1
  Al  Al5  1  0.79178741  0.08955434  0.28316199  1
  Al  Al6  1  0.91007735  0.20081134  0.06369850  1
  Al  Al7  1  0.41630194  0.10936063  0.80355611  1
  Al  Al8  1  0.53619101  0.22585473  0.62514122  1
  Al  Al9  1  0.10976836  0.42742283  0.30123569  1
  Al  Al10  1  0.21077383  0.54164446  0.06726026  1
  Al  Al11  1  0.44407171  0.42875412  0.34387594  1
  Al  Al12  1  0.12333302  0.42522862  0.81535036  1
  Al  Al13  1  0.23256031  0.53495779  0.55521077  1
  Al  Al14  1  0.79053691  0.42556659  0.29089013  1
  Al  Al15  1  0.91098508  0.53092930  0.05715396  1
  Al  Al16  1  0.41317073  0.44518224  0.84624529  1
  Al  Al17  1  0.55174017  0.54405507  0.54103480  1
  Al  Al18  1  0.11501091  0.76072024  0.30281008  1
  Al  Al19  1  0.21137990  0.87833330  0.05933984  1
  Al  Al20  1  0.79701749  0.75118021  0.81715514  1
  Al  Al21  1  0.44091124  0.76490157  0.30932876  1
  Al  Al22  1  0.12014945  0.75481539  0.81322262  1
  Al  Al23  1  0.23460430  0.86540412  0.56220545  1
  Al  Al24  1  0.79176612  0.75093775  0.28576084  1
  Al  Al25  1  0.90789494  0.85633509  0.05849439  1
  Al  Al26  1  0.42175827  0.76058333  0.80472149  1
  Al  Al27  1  0.55007101  0.86926470  0.63401512  1
  Gd  Gd28  1  0.75947523  0.10047500  0.85152652  1
  Gd  Gd29  1  0.89374290  0.19758154  0.54939651  1
  Gd  Gd30  1  0.45017638  0.08786568  0.35590148  1
  Gd  Gd31  1  0.76793141  0.43723859  0.82129549  1
  Gd  Gd32  1  0.90201572  0.53405643  0.55276303  1
  Gd  Gd33  1  0.54461068  0.53866251  0.08702483  1
  Gd  Gd34  1  0.89000174  0.87275949  0.55985515  1
  Gd  Gd35  1  0.55207888  0.87728771  0.06703345  1
  N  N36  1  0.18219995  0.22534074  0.38375799  1
  N  N37  1  0.11877932  0.09300218  0.11688029  1
  N  N38  1  0.92139013  0.19076098  0.87764542  1
  N  N39  1  0.74824283  0.11017757  0.62620941  1
  N  N40  1  0.58246281  0.21146933  0.31591944  1
  N  N41  1  0.42166030  0.12117633  0.12096818  1
  N  N42  1  0.21803828  0.20649836  0.87235106  1
  N  N43  1  0.14195295  0.07562624  0.63249925  1
  N  N44  1  0.89352633  0.20196306  0.32829880  1
  N  N45  1  0.77909315  0.09200153  0.09296268  1
  N  N46  1  0.50061434  0.23954071  0.81013811  1
  N  N47  1  0.43836526  0.09228333  0.60403937  1
  N  N48  1  0.20994015  0.54417798  0.36604384  1
  N  N49  1  0.11495414  0.42333098  0.11614425  1
  N  N50  1  0.91322926  0.54189720  0.86844152  1
  N  N51  1  0.75211729  0.44105926  0.60364028  1
  N  N52  1  0.56069642  0.54153475  0.34715898  1
  N  N53  1  0.41101047  0.42789280  0.12549913  1
  N  N54  1  0.20938863  0.54692566  0.88055573  1
  N  N55  1  0.14970019  0.41216684  0.63268346  1
  N  N56  1  0.89484219  0.53759273  0.33678143  1
  N  N57  1  0.80724489  0.41801304  0.10290404  1
  N  N58  1  0.51386152  0.55542225  0.86562660  1
  N  N59  1  0.44718629  0.42723031  0.55340152  1
  N  N60  1  0.22058413  0.87558643  0.37346367  1
  N  N61  1  0.11362438  0.76241525  0.11696112  1
  N  N62  1  0.91171021  0.84520175  0.86868618  1
  N  N63  1  0.76041027  0.76689199  0.63780661  1
  N  N64  1  0.58307775  0.83707402  0.32154463  1
  N  N65  1  0.40261468  0.78486615  0.13093348  1
  N  N66  1  0.21943704  0.87187301  0.87231719  1
  N  N67  1  0.14454774  0.74338206  0.62803654  1
  N  N68  1  0.89363639  0.87276508  0.33717344  1
  N  N69  1  0.81175615  0.74347228  0.10344250  1
  N  N70  1  0.54138484  0.87877610  0.83140178  1
  N  N71  1  0.44431363  0.75467976  0.61528663  1
