# generated using pymatgen
data_Gd2Al7N9
_symmetry_space_group_name_H-M   'P 1'
_cell_length_a   10.04771331
_cell_length_b   9.87124352
_cell_length_c   10.35254144
_cell_angle_alpha   90.14497365
_cell_angle_beta   90.73757936
_cell_angle_gamma   60.74455919
_symmetry_Int_Tables_number   1
_chemical_formula_structural   Gd2Al7N9
_chemical_formula_sum   'Gd8 Al28 N36'
_cell_volume   895.74915260
_cell_formula_units_Z   4
loop_
 _symmetry_equiv_pos_site_id
 _symmetry_equiv_pos_as_xyz
  1  'x, y, z'
loop_
 _atom_site_type_symbol
 _atom_site_label
 _atom_site_symmetry_multiplicity
 _atom_site_fract_x
 _atom_site_fract_y
 _atom_site_fract_z
 _atom_site_occupancy
  Al  Al0  1  0.12671491  0.08729670  0.39968920  1
  Al  Al1  1  0.21237741  0.21496722  0.15136200  1
  Al  Al2  1  0.53318662  0.22374009  0.14982960  1
  Al  Al3  1  0.11412903  0.09207772  0.90248221  1
  Al  Al4  1  0.22890975  0.19899402  0.65945336  1
  Al  Al5  1  0.78539139  0.08869909  0.31787482  1
  Al  Al6  1  0.91029353  0.19748831  0.15139225  1
  Al  Al7  1  0.41743801  0.11686749  0.90716371  1
  Al  Al8  1  0.52593935  0.22117379  0.67273148  1
  Al  Al9  1  0.12549251  0.41886927  0.40425950  1
  Al  Al10  1  0.21866221  0.53331046  0.16059503  1
  Al  Al11  1  0.45656017  0.42648684  0.41268458  1
  Al  Al12  1  0.11893490  0.42659603  0.90349392  1
  Al  Al13  1  0.23259946  0.52849942  0.64698198  1
  Al  Al14  1  0.79439155  0.42817924  0.33377656  1
  Al  Al15  1  0.91017284  0.53405646  0.08873257  1
  Al  Al16  1  0.40702554  0.44443097  0.90512203  1
  Al  Al17  1  0.52486172  0.55361750  0.66618851  1
  Al  Al18  1  0.12172076  0.75743313  0.34900900  1
  Al  Al19  1  0.21681541  0.88106573  0.15908602  1
  Al  Al20  1  0.78548062  0.75872776  0.85453140  1
  Al  Al21  1  0.46334102  0.75089228  0.41717986  1
  Al  Al22  1  0.11328755  0.75927523  0.83427691  1
  Al  Al23  1  0.23117165  0.87456512  0.64620046  1
  Al  Al24  1  0.80069691  0.74287956  0.32427094  1
  Al  Al25  1  0.91738710  0.85071356  0.09311426  1
  Al  Al26  1  0.41128576  0.77525984  0.90227926  1
  Al  Al27  1  0.53776192  0.88073320  0.68206379  1
  Gd  Gd28  1  0.76405833  0.09706051  0.88365887  1
  Gd  Gd29  1  0.87855151  0.20939795  0.61412244  1
  Gd  Gd30  1  0.45220678  0.08852337  0.40665942  1
  Gd  Gd31  1  0.76075370  0.43366786  0.88128560  1
  Gd  Gd32  1  0.88467975  0.54010905  0.61211600  1
  Gd  Gd33  1  0.53905422  0.54515812  0.14896366  1
  Gd  Gd34  1  0.87826739  0.87699384  0.58932096  1
  Gd  Gd35  1  0.56035239  0.87285818  0.11933893  1
  N  N36  1  0.20309806  0.21556688  0.33339117  1
  N  N37  1  0.11362162  0.09339522  0.09388823  1
  N  N38  1  0.91699296  0.18927637  0.84228476  1
  N  N39  1  0.73447452  0.11014471  0.65558828  1
  N  N40  1  0.56965853  0.22266145  0.33197079  1
  N  N41  1  0.42075233  0.12669127  0.09746333  1
  N  N42  1  0.21111618  0.21012882  0.84794774  1
  N  N43  1  0.14381087  0.08122466  0.58239460  1
  N  N44  1  0.90328833  0.19603903  0.34835161  1
  N  N45  1  0.78418969  0.09072844  0.12659549  1
  N  N46  1  0.50281990  0.23730087  0.85372376  1
  N  N47  1  0.44128416  0.09055923  0.62576618  1
  N  N48  1  0.23604384  0.52730916  0.34897942  1
  N  N49  1  0.12214273  0.42365655  0.09218007  1
  N  N50  1  0.90166608  0.54743649  0.89630703  1
  N  N51  1  0.73471957  0.45155294  0.66089511  1
  N  N52  1  0.56777802  0.53387528  0.36775844  1
  N  N53  1  0.41510040  0.42623012  0.08810729  1
  N  N54  1  0.20883835  0.54023610  0.83553169  1
  N  N55  1  0.14965808  0.40276851  0.58900158  1
  N  N56  1  0.90280308  0.53324874  0.38552215  1
  N  N57  1  0.80637667  0.41994746  0.13696253  1
  N  N58  1  0.49692231  0.56546643  0.85418230  1
  N  N59  1  0.44100924  0.42761015  0.59686359  1
  N  N60  1  0.24047821  0.86940988  0.34827759  1
  N  N61  1  0.11857619  0.75808403  0.15301915  1
  N  N62  1  0.91460298  0.84095292  0.90467083  1
  N  N63  1  0.74830868  0.77782863  0.67648116  1
  N  N64  1  0.58335875  0.83618537  0.34751370  1
  N  N65  1  0.40254270  0.78306148  0.08106608  1
  N  N66  1  0.21246986  0.88461342  0.83560074  1
  N  N67  1  0.13587772  0.74909725  0.62464440  1
  N  N68  1  0.89328481  0.87281626  0.36917326  1
  N  N69  1  0.82076019  0.73820298  0.14193084  1
  N  N70  1  0.54043804  0.88192798  0.87488359  1
  N  N71  1  0.44370144  0.76592766  0.60488472  1
