# generated using pymatgen
data_Gd2Al7N9
_symmetry_space_group_name_H-M   'P 1'
_cell_length_a   10.04053350
_cell_length_b   9.87286139
_cell_length_c   10.32571477
_cell_angle_alpha   90.15386376
_cell_angle_beta   90.15528576
_cell_angle_gamma   60.31227433
_symmetry_Int_Tables_number   1
_chemical_formula_structural   Gd2Al7N9
_chemical_formula_sum   'Gd8 Al28 N36'
_cell_volume   889.21437712
_cell_formula_units_Z   4
loop_
 _symmetry_equiv_pos_site_id
 _symmetry_equiv_pos_as_xyz
  1  'x, y, z'
loop_
 _atom_site_type_symbol
 _atom_site_label
 _atom_site_symmetry_multiplicity
 _atom_site_fract_x
 _atom_site_fract_y
 _atom_site_fract_z
 _atom_site_occupancy
  Al  Al0  1  0.11106180  0.09506074  0.30149023  1
  Al  Al1  1  0.21981570  0.20989376  0.05834310  1
  Al  Al2  1  0.53942425  0.21180641  0.11558485  1
  Al  Al3  1  0.12350235  0.08744503  0.81700293  1
  Al  Al4  1  0.22018226  0.20594027  0.56963636  1
  Al  Al5  1  0.78320891  0.09364171  0.28479133  1
  Al  Al6  1  0.90799825  0.20332048  0.06818167  1
  Al  Al7  1  0.42112867  0.10978291  0.80930672  1
  Al  Al8  1  0.54193812  0.21790302  0.62053579  1
  Al  Al9  1  0.11009748  0.42708483  0.30168494  1
  Al  Al10  1  0.21595703  0.53797216  0.05981386  1
  Al  Al11  1  0.43830377  0.43028079  0.31637655  1
  Al  Al12  1  0.12610414  0.42586142  0.81541896  1
  Al  Al13  1  0.23189291  0.53645759  0.55980603  1
  Al  Al14  1  0.78458269  0.42915529  0.29145326  1
  Al  Al15  1  0.91109907  0.53141506  0.05756594  1
  Al  Al16  1  0.41867713  0.44758273  0.80212859  1
  Al  Al17  1  0.54716525  0.54416035  0.54804613  1
  Al  Al18  1  0.11558252  0.76059980  0.30260026  1
  Al  Al19  1  0.21164719  0.87713016  0.05906084  1
  Al  Al20  1  0.79750497  0.75170397  0.81818469  1
  Al  Al21  1  0.44039245  0.76073664  0.31077577  1
  Al  Al22  1  0.12192890  0.75416008  0.81358329  1
  Al  Al23  1  0.23289778  0.86813225  0.56220153  1
  Al  Al24  1  0.78991074  0.75118110  0.28573154  1
  Al  Al25  1  0.90740292  0.85532257  0.06008025  1
  Al  Al26  1  0.42323975  0.76245716  0.80332008  1
  Al  Al27  1  0.54953211  0.87172835  0.63377446  1
  Gd  Gd28  1  0.76636551  0.09811338  0.84860707  1
  Gd  Gd29  1  0.89611478  0.19822742  0.54425139  1
  Gd  Gd30  1  0.44609461  0.08815362  0.35001935  1
  Gd  Gd31  1  0.77262777  0.43541805  0.81949302  1
  Gd  Gd32  1  0.90020968  0.53578196  0.55248961  1
  Gd  Gd33  1  0.54207578  0.53593022  0.07385633  1
  Gd  Gd34  1  0.88992799  0.87272330  0.55716067  1
  Gd  Gd35  1  0.55201338  0.87199609  0.06645947  1
  N  N36  1  0.17902853  0.22617977  0.38459558  1
  N  N37  1  0.11979685  0.09207449  0.11683790  1
  N  N38  1  0.92376540  0.19188443  0.88271000  1
  N  N39  1  0.75264993  0.11041636  0.62427299  1
  N  N40  1  0.57675349  0.21379140  0.33062923  1
  N  N41  1  0.42211894  0.11756306  0.11825969  1
  N  N42  1  0.21897150  0.20714175  0.87159880  1
  N  N43  1  0.14150789  0.07765105  0.63287770  1
  N  N44  1  0.89023373  0.20349249  0.32227236  1
  N  N45  1  0.77151577  0.09507626  0.09397203  1
  N  N46  1  0.50931583  0.23323912  0.82765900  1
  N  N47  1  0.43922066  0.09478489  0.60599588  1
  N  N48  1  0.21646705  0.54078984  0.37060252  1
  N  N49  1  0.11699699  0.42339516  0.11533262  1
  N  N50  1  0.91529155  0.54228954  0.86900452  1
  N  N51  1  0.75260999  0.44005907  0.60119338  1
  N  N52  1  0.55271833  0.53898843  0.35428511  1
  N  N53  1  0.41226280  0.42429227  0.13235860  1
  N  N54  1  0.22004025  0.54321817  0.87417138  1
  N  N55  1  0.14748059  0.41354940  0.63204381  1
  N  N56  1  0.89424642  0.53798174  0.33591704  1
  N  N57  1  0.80286445  0.42260160  0.10343494  1
  N  N58  1  0.51727414  0.55650515  0.85819862  1
  N  N59  1  0.44025323  0.43807136  0.60862252  1
  N  N60  1  0.21754297  0.87739500  0.37295600  1
  N  N61  1  0.11544949  0.75914175  0.11611041  1
  N  N62  1  0.91411363  0.84283768  0.87119158  1
  N  N63  1  0.76048119  0.76857125  0.63828463  1
  N  N64  1  0.58147299  0.83454994  0.32222069  1
  N  N65  1  0.40389031  0.77800405  0.13142340  1
  N  N66  1  0.22040665  0.87251668  0.87216796  1
  N  N67  1  0.14164927  0.74764720  0.62712884  1
  N  N68  1  0.89218760  0.87344138  0.33430414  1
  N  N69  1  0.81058548  0.74349406  0.10346278  1
  N  N70  1  0.54244008  0.87862890  0.83197653  1
  N  N71  1  0.44294358  0.75876006  0.61384633  1
