# generated using pymatgen
data_Gd2Al7N9
_symmetry_space_group_name_H-M   'P 1'
_cell_length_a   9.87588324
_cell_length_b   9.83362516
_cell_length_c   10.79852022
_cell_angle_alpha   90.18633495
_cell_angle_beta   89.36820930
_cell_angle_gamma   60.13814459
_symmetry_Int_Tables_number   1
_chemical_formula_structural   Gd2Al7N9
_chemical_formula_sum   'Gd8 Al28 N36'
_cell_volume   909.36633233
_cell_formula_units_Z   4
loop_
 _symmetry_equiv_pos_site_id
 _symmetry_equiv_pos_as_xyz
  1  'x, y, z'
loop_
 _atom_site_type_symbol
 _atom_site_label
 _atom_site_symmetry_multiplicity
 _atom_site_fract_x
 _atom_site_fract_y
 _atom_site_fract_z
 _atom_site_occupancy
  Al  Al0  1  0.11597441  0.08207495  0.30561132  1
  Al  Al1  1  0.21959941  0.21046133  0.13337628  1
  Al  Al2  1  0.54006944  0.21899110  0.12707297  1
  Al  Al3  1  0.11108304  0.08752443  0.82137315  1
  Al  Al4  1  0.23415394  0.19831458  0.65666158  1
  Al  Al5  1  0.78851895  0.09237215  0.28665928  1
  Al  Al6  1  0.90877443  0.19766301  0.07078453  1
  Al  Al7  1  0.41621823  0.11694477  0.89001903  1
  Al  Al8  1  0.53000154  0.21898847  0.65025615  1
  Al  Al9  1  0.11464900  0.43659230  0.30670622  1
  Al  Al10  1  0.21098722  0.54318304  0.06085912  1
  Al  Al11  1  0.46396111  0.42370335  0.39238676  1
  Al  Al12  1  0.11367845  0.43681802  0.82154028  1
  Al  Al13  1  0.22873714  0.53543463  0.56686398  1
  Al  Al14  1  0.80148982  0.41928088  0.30113815  1
  Al  Al15  1  0.91295058  0.53221331  0.06573890  1
  Al  Al16  1  0.41844570  0.43962608  0.88122913  1
  Al  Al17  1  0.53019971  0.54902856  0.64092231  1
  Al  Al18  1  0.12110402  0.75906364  0.31147277  1
  Al  Al19  1  0.20445052  0.87820354  0.05622626  1
  Al  Al20  1  0.78612927  0.75728140  0.82973871  1
  Al  Al21  1  0.46938745  0.74756980  0.39935673  1
  Al  Al22  1  0.11747640  0.75417424  0.81584603  1
  Al  Al23  1  0.22894666  0.86985294  0.57060195  1
  Al  Al24  1  0.79823287  0.74829209  0.29729459  1
  Al  Al25  1  0.90991317  0.85518193  0.06627080  1
  Al  Al26  1  0.42022933  0.76966832  0.87988775  1
  Al  Al27  1  0.53979618  0.87897673  0.66093526  1
  Gd  Gd28  1  0.76288131  0.09645091  0.85435292  1
  Gd  Gd29  1  0.88354035  0.20519551  0.55821431  1
  Gd  Gd30  1  0.45012524  0.09341540  0.38994451  1
  Gd  Gd31  1  0.76200982  0.44092006  0.84831117  1
  Gd  Gd32  1  0.88766523  0.53838967  0.56723314  1
  Gd  Gd33  1  0.53927197  0.54046181  0.13874604  1
  Gd  Gd34  1  0.88706861  0.87149314  0.56395766  1
  Gd  Gd35  1  0.55681176  0.87262046  0.10510141  1
  N  N36  1  0.20725344  0.21315492  0.31556305  1
  N  N37  1  0.11941819  0.08176144  0.12566290  1
  N  N38  1  0.91544733  0.19429694  0.89648845  1
  N  N39  1  0.74950459  0.10593861  0.63901976  1
  N  N40  1  0.56445394  0.22710962  0.30337550  1
  N  N41  1  0.42424676  0.12703429  0.06846950  1
  N  N42  1  0.21080531  0.21024115  0.83650408  1
  N  N43  1  0.13174268  0.07677932  0.64017721  1
  N  N44  1  0.89456449  0.19993563  0.34157685  1
  N  N45  1  0.78264993  0.08801303  0.10408808  1
  N  N46  1  0.49886428  0.23658567  0.82235478  1
  N  N47  1  0.44317202  0.08979597  0.60117575  1
  N  N48  1  0.22151184  0.54230369  0.37901552  1
  N  N49  1  0.11761091  0.43261478  0.12660068  1
  N  N50  1  0.90504780  0.54939988  0.88646195  1
  N  N51  1  0.75143901  0.43813010  0.63935526  1
  N  N52  1  0.57105738  0.53309874  0.34856937  1
  N  N53  1  0.43266437  0.41599656  0.05734407  1
  N  N54  1  0.20188265  0.55238595  0.88380172  1
  N  N55  1  0.13826735  0.42184163  0.64064564  1
  N  N56  1  0.89909048  0.53617457  0.35423235  1
  N  N57  1  0.80795233  0.41764384  0.11678107  1
  N  N58  1  0.49556786  0.56620948  0.81670956  1
  N  N59  1  0.45175308  0.41918113  0.56967820  1
  N  N60  1  0.22396892  0.87190078  0.38268620  1
  N  N61  1  0.12218052  0.75626939  0.12936119  1
  N  N62  1  0.90701663  0.84356449  0.88590844  1
  N  N63  1  0.75826418  0.77042880  0.65605670  1
  N  N64  1  0.57554725  0.84204861  0.32256400  1
  N  N65  1  0.41946783  0.76630930  0.05372998  1
  N  N66  1  0.19919252  0.88078905  0.87675252  1
  N  N67  1  0.14250541  0.74453135  0.63581990  1
  N  N68  1  0.89030049  0.87654916  0.34709268  1
  N  N69  1  0.81903758  0.74000761  0.12213967  1
  N  N70  1  0.53863161  0.88167925  0.84655462  1
  N  N71  1  0.45296526  0.76130117  0.58011140  1
