# generated using pymatgen
data_Gd2Al7N9
_symmetry_space_group_name_H-M   'P 1'
_cell_length_a   9.95295123
_cell_length_b   9.84792365
_cell_length_c   10.29666537
_cell_angle_alpha   90.05625955
_cell_angle_beta   89.87384940
_cell_angle_gamma   60.51753548
_symmetry_Int_Tables_number   1
_chemical_formula_structural   Gd2Al7N9
_chemical_formula_sum   'Gd8 Al28 N36'
_cell_volume   878.54259387
_cell_formula_units_Z   4
loop_
 _symmetry_equiv_pos_site_id
 _symmetry_equiv_pos_as_xyz
  1  'x, y, z'
loop_
 _atom_site_type_symbol
 _atom_site_label
 _atom_site_symmetry_multiplicity
 _atom_site_fract_x
 _atom_site_fract_y
 _atom_site_fract_z
 _atom_site_occupancy
  Al  Al0  1  0.12252656  0.08949349  0.39672035  1
  Al  Al1  1  0.21374364  0.21387912  0.14533240  1
  Al  Al2  1  0.53426699  0.22317029  0.15451781  1
  Al  Al3  1  0.11437779  0.09050316  0.90683034  1
  Al  Al4  1  0.23135410  0.19876006  0.66143555  1
  Al  Al5  1  0.76667638  0.10542920  0.37993647  1
  Al  Al6  1  0.90152300  0.20250907  0.17307761  1
  Al  Al7  1  0.42963833  0.11140584  0.89236424  1
  Al  Al8  1  0.53940425  0.21723526  0.65814180  1
  Al  Al9  1  0.12394792  0.42136582  0.39683224  1
  Al  Al10  1  0.21689795  0.53942942  0.14962331  1
  Al  Al11  1  0.43950137  0.43382146  0.41320692  1
  Al  Al12  1  0.11330274  0.43176161  0.90815496  1
  Al  Al13  1  0.23359409  0.53354798  0.65149567  1
  Al  Al14  1  0.76982754  0.43376420  0.40509687  1
  Al  Al15  1  0.90727365  0.53026737  0.16697545  1
  Al  Al16  1  0.42266109  0.43838562  0.89666113  1
  Al  Al17  1  0.53787589  0.54694063  0.64909686  1
  Al  Al18  1  0.12843904  0.75277459  0.39860292  1
  Al  Al19  1  0.21401155  0.87680291  0.15048865  1
  Al  Al20  1  0.79899627  0.75037479  0.91112977  1
  Al  Al21  1  0.44469774  0.76071473  0.41636267  1
  Al  Al22  1  0.11230201  0.75834233  0.90356493  1
  Al  Al23  1  0.23279174  0.86799469  0.65020186  1
  Al  Al24  1  0.77241506  0.75730391  0.39529711  1
  Al  Al25  1  0.90384656  0.86186357  0.16929751  1
  Al  Al26  1  0.42413150  0.76627541  0.89314418  1
  Al  Al27  1  0.55091443  0.87128313  0.66782061  1
  Gd  Gd28  1  0.77051953  0.09112383  0.92079614  1
  Gd  Gd29  1  0.89355934  0.19605166  0.62753607  1
  Gd  Gd30  1  0.44402949  0.09394080  0.41520349  1
  Gd  Gd31  1  0.77245442  0.43477132  0.90497099  1
  Gd  Gd32  1  0.90107487  0.53791821  0.63394198  1
  Gd  Gd33  1  0.54398762  0.54146757  0.16059333  1
  Gd  Gd34  1  0.88792969  0.87435284  0.62746794  1
  Gd  Gd35  1  0.55561262  0.87499901  0.12600649  1
  N  N36  1  0.20195482  0.21579811  0.32862869  1
  N  N37  1  0.10889032  0.09393595  0.09747390  1
  N  N38  1  0.91093325  0.18955385  0.84653410  1
  N  N39  1  0.72901869  0.11667077  0.56869943  1
  N  N40  1  0.55164059  0.23354209  0.33435709  1
  N  N41  1  0.42405143  0.12820818  0.08445220  1
  N  N42  1  0.21170972  0.21120722  0.84981595  1
  N  N43  1  0.15316394  0.07582036  0.58001890  1
  N  N44  1  0.89643841  0.20406167  0.36381928  1
  N  N45  1  0.77972537  0.09333659  0.14231326  1
  N  N46  1  0.52752805  0.22762367  0.84073633  1
  N  N47  1  0.44505100  0.08912920  0.63587899  1
  N  N48  1  0.22718958  0.53775002  0.33800672  1
  N  N49  1  0.11130304  0.42961362  0.09640172  1
  N  N50  1  0.90694216  0.54621219  0.85187122  1
  N  N51  1  0.74678025  0.44453317  0.59376797  1
  N  N52  1  0.54775816  0.54414079  0.37603476  1
  N  N53  1  0.42190093  0.42413008  0.08096582  1
  N  N54  1  0.21340240  0.54375484  0.84118771  1
  N  N55  1  0.15831371  0.40016239  0.58036869  1
  N  N56  1  0.89833583  0.53478798  0.36122222  1
  N  N57  1  0.80383010  0.41624706  0.12667990  1
  N  N58  1  0.51937517  0.55467091  0.83773517  1
  N  N59  1  0.44023283  0.42820323  0.59766672  1
  N  N60  1  0.22896050  0.86977129  0.33968713  1
  N  N61  1  0.11096628  0.76240007  0.09729953  1
  N  N62  1  0.90341718  0.85030566  0.84932228  1
  N  N63  1  0.73962756  0.77890998  0.57763692  1
  N  N64  1  0.56354584  0.84457072  0.34331966  1
  N  N65  1  0.40802584  0.77496276  0.07345753  1
  N  N66  1  0.21225622  0.87815980  0.83843998  1
  N  N67  1  0.14887494  0.74228244  0.58221923  1
  N  N68  1  0.89733641  0.86524119  0.35871186  1
  N  N69  1  0.81618496  0.74116815  0.10308595  1
  N  N70  1  0.56325126  0.86604791  0.86142793  1
  N  N71  1  0.44357138  0.76572207  0.60468142  1
