# generated using pymatgen
data_Gd2Al7N9
_symmetry_space_group_name_H-M   'P 1'
_cell_length_a   9.96298680
_cell_length_b   9.85816779
_cell_length_c   10.28830871
_cell_angle_alpha   90.05086578
_cell_angle_beta   89.86299696
_cell_angle_gamma   60.51046564
_symmetry_Int_Tables_number   1
_chemical_formula_structural   Gd2Al7N9
_chemical_formula_sum   'Gd8 Al28 N36'
_cell_volume   879.56701130
_cell_formula_units_Z   4
loop_
 _symmetry_equiv_pos_site_id
 _symmetry_equiv_pos_as_xyz
  1  'x, y, z'
loop_
 _atom_site_type_symbol
 _atom_site_label
 _atom_site_symmetry_multiplicity
 _atom_site_fract_x
 _atom_site_fract_y
 _atom_site_fract_z
 _atom_site_occupancy
  Al  Al0  1  0.12264719  0.08946466  0.39678131  1
  Al  Al1  1  0.21446785  0.21310502  0.14510558  1
  Al  Al2  1  0.53410718  0.22334767  0.15447706  1
  Al  Al3  1  0.11405657  0.09071107  0.90704116  1
  Al  Al4  1  0.23102751  0.19892610  0.66131289  1
  Al  Al5  1  0.76657990  0.10654528  0.38032546  1
  Al  Al6  1  0.90169165  0.20231556  0.17302708  1
  Al  Al7  1  0.42839279  0.11321952  0.89282325  1
  Al  Al8  1  0.53872814  0.21753925  0.65817185  1
  Al  Al9  1  0.12552326  0.42011690  0.39735721  1
  Al  Al10  1  0.21618103  0.53974917  0.14943106  1
  Al  Al11  1  0.43947597  0.43391406  0.41333488  1
  Al  Al12  1  0.11222851  0.43285920  0.90789779  1
  Al  Al13  1  0.23367187  0.53351149  0.65166565  1
  Al  Al14  1  0.76940566  0.43285333  0.40558367  1
  Al  Al15  1  0.90923574  0.52744851  0.16991215  1
  Al  Al16  1  0.42226112  0.43857363  0.89689481  1
  Al  Al17  1  0.53735127  0.54699030  0.64921096  1
  Al  Al18  1  0.13006730  0.75266049  0.39919304  1
  Al  Al19  1  0.21485873  0.87671025  0.15035662  1
  Al  Al20  1  0.79197938  0.75425407  0.89633907  1
  Al  Al21  1  0.44483967  0.76094508  0.41626536  1
  Al  Al22  1  0.11140863  0.75844721  0.90341599  1
  Al  Al23  1  0.23240120  0.86804800  0.65026882  1
  Al  Al24  1  0.77450702  0.75637180  0.38825810  1
  Al  Al25  1  0.90579001  0.86247848  0.17220352  1
  Al  Al26  1  0.42298257  0.76569453  0.89348760  1
  Al  Al27  1  0.54963754  0.87176457  0.66529310  1
  Gd  Gd28  1  0.77037797  0.09113697  0.92090588  1
  Gd  Gd29  1  0.89311887  0.19575423  0.62806610  1
  Gd  Gd30  1  0.44453505  0.09393447  0.41471148  1
  Gd  Gd31  1  0.77250492  0.43516789  0.90496411  1
  Gd  Gd32  1  0.90094373  0.53684087  0.62993458  1
  Gd  Gd33  1  0.54416108  0.54114876  0.16061762  1
  Gd  Gd34  1  0.88781676  0.87463987  0.62307561  1
  Gd  Gd35  1  0.55865791  0.87343561  0.12541806  1
  N  N36  1  0.20250635  0.21528812  0.32855737  1
  N  N37  1  0.10918019  0.09376094  0.09757859  1
  N  N38  1  0.91058294  0.18989353  0.84723177  1
  N  N39  1  0.72780918  0.11788702  0.56881311  1
  N  N40  1  0.55186020  0.23394001  0.33423949  1
  N  N41  1  0.42494079  0.12742306  0.08458486  1
  N  N42  1  0.21104914  0.21174155  0.84988894  1
  N  N43  1  0.15260539  0.07602639  0.58032002  1
  N  N44  1  0.89650185  0.20414163  0.36399031  1
  N  N45  1  0.78028110  0.09318584  0.14251996  1
  N  N46  1  0.52722927  0.22783829  0.84095871  1
  N  N47  1  0.44441844  0.08944194  0.63571385  1
  N  N48  1  0.22707341  0.53785462  0.33798283  1
  N  N49  1  0.11156935  0.42878303  0.09597539  1
  N  N50  1  0.90596508  0.54740532  0.85000727  1
  N  N51  1  0.74583153  0.44375095  0.59429095  1
  N  N52  1  0.54758546  0.54429122  0.37616738  1
  N  N53  1  0.42152824  0.42426005  0.08113946  1
  N  N54  1  0.21303027  0.54402273  0.84143772  1
  N  N55  1  0.15959658  0.39966956  0.58067271  1
  N  N56  1  0.90015580  0.53122753  0.36444356  1
  N  N57  1  0.80412398  0.41587599  0.12694168  1
  N  N58  1  0.51927231  0.55455449  0.83813272  1
  N  N59  1  0.44009646  0.42828315  0.59792664  1
  N  N60  1  0.22951770  0.86976852  0.33970470  1
  N  N61  1  0.11118200  0.76291173  0.09683470  1
  N  N62  1  0.90254137  0.85101028  0.84749817  1
  N  N63  1  0.73979637  0.77845239  0.57711349  1
  N  N64  1  0.56276609  0.84527409  0.34404371  1
  N  N65  1  0.40903311  0.77465271  0.07369342  1
  N  N66  1  0.21169640  0.87835735  0.83865322  1
  N  N67  1  0.15015720  0.74150268  0.58267439  1
  N  N68  1  0.89995650  0.86721723  0.36187274  1
  N  N69  1  0.81704148  0.74027190  0.12234437  1
  N  N70  1  0.56255050  0.86638121  0.86001837  1
  N  N71  1  0.44294128  0.76568994  0.60475775  1
