# generated using pymatgen
data_Gd2Al7N9
_symmetry_space_group_name_H-M   'P 1'
_cell_length_a   10.03747407
_cell_length_b   9.81685721
_cell_length_c   10.50581621
_cell_angle_alpha   90.13208901
_cell_angle_beta   90.08314360
_cell_angle_gamma   60.18255704
_symmetry_Int_Tables_number   1
_chemical_formula_structural   Gd2Al7N9
_chemical_formula_sum   'Gd8 Al28 N36'
_cell_volume   898.15674906
_cell_formula_units_Z   4
loop_
 _symmetry_equiv_pos_site_id
 _symmetry_equiv_pos_as_xyz
  1  'x, y, z'
loop_
 _atom_site_type_symbol
 _atom_site_label
 _atom_site_symmetry_multiplicity
 _atom_site_fract_x
 _atom_site_fract_y
 _atom_site_fract_z
 _atom_site_occupancy
  Al  Al0  1  0.11209585  0.09439034  0.30285779  1
  Al  Al1  1  0.21200362  0.21170766  0.05840890  1
  Al  Al2  1  0.54092373  0.21114750  0.11878111  1
  Al  Al3  1  0.12273255  0.08919406  0.81400780  1
  Al  Al4  1  0.22521331  0.20286948  0.56728316  1
  Al  Al5  1  0.78850079  0.09390793  0.27779736  1
  Al  Al6  1  0.91022319  0.20010449  0.06135184  1
  Al  Al7  1  0.42433094  0.11215310  0.87642350  1
  Al  Al8  1  0.52745483  0.22318302  0.63399732  1
  Al  Al9  1  0.11218515  0.42727746  0.30358578  1
  Al  Al10  1  0.20468807  0.54263610  0.05820697  1
  Al  Al11  1  0.45114527  0.42436127  0.37116937  1
  Al  Al12  1  0.12331684  0.42628728  0.81081349  1
  Al  Al13  1  0.23052346  0.53727870  0.55820010  1
  Al  Al14  1  0.79368367  0.42619698  0.29210976  1
  Al  Al15  1  0.91468661  0.52881040  0.05627140  1
  Al  Al16  1  0.41680504  0.43690028  0.88042384  1
  Al  Al17  1  0.54970891  0.54921653  0.55191696  1
  Al  Al18  1  0.11642315  0.76036176  0.30197942  1
  Al  Al19  1  0.21143948  0.87573269  0.05776152  1
  Al  Al20  1  0.79594086  0.75360666  0.81864421  1
  Al  Al21  1  0.43873117  0.76384122  0.30929426  1
  Al  Al22  1  0.11935508  0.75595068  0.80983339  1
  Al  Al23  1  0.23360525  0.86834380  0.56372473  1
  Al  Al24  1  0.79556696  0.75062262  0.28428931  1
  Al  Al25  1  0.90893133  0.85728903  0.05554749  1
  Al  Al26  1  0.42276000  0.75940564  0.80972532  1
  Al  Al27  1  0.54177561  0.88495131  0.64748641  1
  Gd  Gd28  1  0.76142633  0.10167842  0.84635728  1
  Gd  Gd29  1  0.89122933  0.19975125  0.54906834  1
  Gd  Gd30  1  0.45511222  0.08553477  0.36078709  1
  Gd  Gd31  1  0.76705298  0.43964206  0.82385086  1
  Gd  Gd32  1  0.89642163  0.53907858  0.55534434  1
  Gd  Gd33  1  0.54602770  0.52801730  0.09623572  1
  Gd  Gd34  1  0.88407358  0.87621124  0.55765828  1
  Gd  Gd35  1  0.56192018  0.85449030  0.07231051  1
  N  N36  1  0.18791992  0.22148621  0.37930221  1
  N  N37  1  0.11856542  0.09113858  0.11911928  1
  N  N38  1  0.92195886  0.19169925  0.87962778  1
  N  N39  1  0.74458989  0.11393717  0.62612264  1
  N  N40  1  0.57009614  0.22328609  0.29590410  1
  N  N41  1  0.43214831  0.11178997  0.06802355  1
  N  N42  1  0.20903197  0.21308463  0.87447030  1
  N  N43  1  0.14011573  0.08003381  0.63198240  1
  N  N44  1  0.89102627  0.20343572  0.32996513  1
  N  N45  1  0.78099495  0.09182339  0.09061558  1
  N  N46  1  0.49876190  0.23725280  0.81210272  1
  N  N47  1  0.44532918  0.09087062  0.57980923  1
  N  N48  1  0.21670402  0.54187166  0.36583526  1
  N  N49  1  0.11829344  0.42108340  0.12084176  1
  N  N50  1  0.91290161  0.54375010  0.87098073  1
  N  N51  1  0.75096685  0.44254207  0.60897927  1
  N  N52  1  0.56058225  0.54106951  0.35219982  1
  N  N53  1  0.41697803  0.41061955  0.06208265  1
  N  N54  1  0.20380672  0.55106324  0.87391001  1
  N  N55  1  0.14699395  0.41370832  0.62940428  1
  N  N56  1  0.89641144  0.53863853  0.34118870  1
  N  N57  1  0.80971027  0.41835853  0.10584402  1
  N  N58  1  0.51656976  0.55662972  0.87417879  1
  N  N59  1  0.44871380  0.42500601  0.55490729  1
  N  N60  1  0.22083687  0.87582759  0.37542486  1
  N  N61  1  0.11450634  0.75997217  0.11745997  1
  N  N62  1  0.91102957  0.84696370  0.86982211  1
  N  N63  1  0.75571677  0.77206331  0.64262601  1
  N  N64  1  0.58226214  0.83704296  0.30784118  1
  N  N65  1  0.39966386  0.77665670  0.13398687  1
  N  N66  1  0.21797118  0.87372770  0.87263456  1
  N  N67  1  0.14011029  0.74813079  0.62599958  1
  N  N68  1  0.89051205  0.87698465  0.33668094  1
  N  N69  1  0.81999892  0.73982430  0.10563429  1
  N  N70  1  0.54130717  0.88138086  0.83860365  1
  N  N71  1  0.44224942  0.76012693  0.62259914  1
