# generated using pymatgen
data_Gd2Al7N9
_symmetry_space_group_name_H-M   'P 1'
_cell_length_a   9.94011898
_cell_length_b   9.83069587
_cell_length_c   10.35870349
_cell_angle_alpha   90.29188512
_cell_angle_beta   89.81376228
_cell_angle_gamma   60.26524309
_symmetry_Int_Tables_number   1
_chemical_formula_structural   Gd2Al7N9
_chemical_formula_sum   'Gd8 Al28 N36'
_cell_volume   878.92375566
_cell_formula_units_Z   4
loop_
 _symmetry_equiv_pos_site_id
 _symmetry_equiv_pos_as_xyz
  1  'x, y, z'
loop_
 _atom_site_type_symbol
 _atom_site_label
 _atom_site_symmetry_multiplicity
 _atom_site_fract_x
 _atom_site_fract_y
 _atom_site_fract_z
 _atom_site_occupancy
  Al  Al0  1  0.10603981  0.09643581  0.29110608  1
  Al  Al1  1  0.21806329  0.21015971  0.04505061  1
  Al  Al2  1  0.52688279  0.21844899  0.04750104  1
  Al  Al3  1  0.12902779  0.08433403  0.80953511  1
  Al  Al4  1  0.22583060  0.20354291  0.56317501  1
  Al  Al5  1  0.77015952  0.09969132  0.27684499  1
  Al  Al6  1  0.90275662  0.20217011  0.06137331  1
  Al  Al7  1  0.43538335  0.10170313  0.78961113  1
  Al  Al8  1  0.55549015  0.21382265  0.55015422  1
  Al  Al9  1  0.10381317  0.43102747  0.29196579  1
  Al  Al10  1  0.21637973  0.53684685  0.05247522  1
  Al  Al11  1  0.43677180  0.42954800  0.30732196  1
  Al  Al12  1  0.12685517  0.42559053  0.80852326  1
  Al  Al13  1  0.23525202  0.53319583  0.55517188  1
  Al  Al14  1  0.77866313  0.43068745  0.28213201  1
  Al  Al15  1  0.90486776  0.53616342  0.05012991  1
  Al  Al16  1  0.42794070  0.43737479  0.79377382  1
  Al  Al17  1  0.54931154  0.53964861  0.54142595  1
  Al  Al18  1  0.11096080  0.76310924  0.29364574  1
  Al  Al19  1  0.21511585  0.87779717  0.05236909  1
  Al  Al20  1  0.78699069  0.75676420  0.80202468  1
  Al  Al21  1  0.43662725  0.76262049  0.31298020  1
  Al  Al22  1  0.12731882  0.75086889  0.80912988  1
  Al  Al23  1  0.23348151  0.86655615  0.55628827  1
  Al  Al24  1  0.78214119  0.75635290  0.28762742  1
  Al  Al25  1  0.90135948  0.85904372  0.05252898  1
  Al  Al26  1  0.43603433  0.76430538  0.78651191  1
  Al  Al27  1  0.55796746  0.86503829  0.55711375  1
  Gd  Gd28  1  0.77257673  0.09404904  0.82895052  1
  Gd  Gd29  1  0.90266916  0.19471614  0.53094357  1
  Gd  Gd30  1  0.43183969  0.10108421  0.32238350  1
  Gd  Gd31  1  0.77808076  0.43038358  0.81054685  1
  Gd  Gd32  1  0.90506001  0.53050125  0.54301129  1
  Gd  Gd33  1  0.53643488  0.54197944  0.06320154  1
  Gd  Gd34  1  0.89859173  0.86756808  0.54833589  1
  Gd  Gd35  1  0.55163964  0.87389129  0.04631740  1
  N  N36  1  0.17190913  0.22983721  0.37832544  1
  N  N37  1  0.11876511  0.09332957  0.10841527  1
  N  N38  1  0.92774533  0.18707715  0.87764767  1
  N  N39  1  0.75616928  0.10837892  0.61258753  1
  N  N40  1  0.57087116  0.21940031  0.36422350  1
  N  N41  1  0.42267115  0.11836836  0.10632386  1
  N  N42  1  0.22609986  0.20386229  0.85934660  1
  N  N43  1  0.14494148  0.07565525  0.62612940  1
  N  N44  1  0.88355051  0.20589098  0.30971850  1
  N  N45  1  0.76405279  0.09767236  0.08718214  1
  N  N46  1  0.51262143  0.23010005  0.86259383  1
  N  N47  1  0.44688702  0.09512374  0.59283240  1
  N  N48  1  0.21222501  0.54281825  0.36417216  1
  N  N49  1  0.11388013  0.42446021  0.10642907  1
  N  N50  1  0.91219706  0.54692064  0.86213029  1
  N  N51  1  0.75606669  0.43520746  0.59255103  1
  N  N52  1  0.55065159  0.53899905  0.34653161  1
  N  N53  1  0.41654174  0.41717388  0.12657436  1
  N  N54  1  0.22541210  0.53938629  0.86768006  1
  N  N55  1  0.14986688  0.41174031  0.62635991  1
  N  N56  1  0.88738557  0.54032219  0.32745549  1
  N  N57  1  0.79715643  0.42466832  0.09446578  1
  N  N58  1  0.52103204  0.55687800  0.84658815  1
  N  N59  1  0.44594915  0.42877180  0.60388370  1
  N  N60  1  0.20939775  0.88089420  0.36765180  1
  N  N61  1  0.11522083  0.75975129  0.10780972  1
  N  N62  1  0.91350257  0.83985121  0.86415243  1
  N  N63  1  0.76085837  0.76766119  0.62150096  1
  N  N64  1  0.57462500  0.84128299  0.36456652  1
  N  N65  1  0.40744596  0.78490749  0.13443380  1
  N  N66  1  0.23028721  0.86903993  0.86562442  1
  N  N67  1  0.14773857  0.74325789  0.62377875  1
  N  N68  1  0.88572721  0.87806641  0.32765777  1
  N  N69  1  0.80221800  0.74818990  0.10591738  1
  N  N70  1  0.55273889  0.87505462  0.82900237  1
  N  N71  1  0.44658570  0.75716522  0.59861599  1
