# generated using pymatgen
data_Gd2Al7N9
_symmetry_space_group_name_H-M   'P 1'
_cell_length_a   9.92994612
_cell_length_b   9.84050162
_cell_length_c   10.68423117
_cell_angle_alpha   90.39591379
_cell_angle_beta   90.18808397
_cell_angle_gamma   60.39189718
_symmetry_Int_Tables_number   1
_chemical_formula_structural   Gd2Al7N9
_chemical_formula_sum   'Gd8 Al28 N36'
_cell_volume   907.67252503
_cell_formula_units_Z   4
loop_
 _symmetry_equiv_pos_site_id
 _symmetry_equiv_pos_as_xyz
  1  'x, y, z'
loop_
 _atom_site_type_symbol
 _atom_site_label
 _atom_site_symmetry_multiplicity
 _atom_site_fract_x
 _atom_site_fract_y
 _atom_site_fract_z
 _atom_site_occupancy
  Al  Al0  1  0.12751102  0.08404332  0.38741811  1
  Al  Al1  1  0.21733534  0.21056325  0.14309953  1
  Al  Al2  1  0.54061399  0.21930942  0.13844376  1
  Al  Al3  1  0.11861088  0.09083036  0.90138391  1
  Al  Al4  1  0.22397516  0.20095833  0.65054844  1
  Al  Al5  1  0.79522422  0.08862537  0.29755703  1
  Al  Al6  1  0.90224980  0.20071385  0.08248455  1
  Al  Al7  1  0.41655282  0.11672788  0.89560699  1
  Al  Al8  1  0.52526375  0.21959583  0.66097491  1
  Al  Al9  1  0.12200764  0.42400353  0.35883419  1
  Al  Al10  1  0.21257179  0.54534887  0.07348148  1
  Al  Al11  1  0.46909941  0.42096098  0.40126172  1
  Al  Al12  1  0.11200226  0.42576645  0.88797577  1
  Al  Al13  1  0.23068253  0.53223469  0.56934882  1
  Al  Al14  1  0.80373747  0.41645396  0.31116505  1
  Al  Al15  1  0.90595747  0.53479166  0.08053968  1
  Al  Al16  1  0.41644346  0.44120126  0.89235162  1
  Al  Al17  1  0.52444419  0.55243783  0.65177043  1
  Al  Al18  1  0.12140902  0.75238221  0.31909699  1
  Al  Al19  1  0.21949525  0.88138629  0.14660824  1
  Al  Al20  1  0.78778118  0.75746306  0.83960924  1
  Al  Al21  1  0.46283754  0.75087824  0.40629420  1
  Al  Al22  1  0.11687659  0.75152942  0.82106830  1
  Al  Al23  1  0.22918748  0.87538456  0.64309922  1
  Al  Al24  1  0.80013052  0.74705064  0.30682278  1
  Al  Al25  1  0.91403238  0.85384047  0.07465447  1
  Al  Al26  1  0.40936577  0.77666860  0.88973590  1
  Al  Al27  1  0.53913991  0.87939682  0.67132416  1
  Gd  Gd28  1  0.76027890  0.09566216  0.86495742  1
  Gd  Gd29  1  0.86587604  0.21439279  0.57188104  1
  Gd  Gd30  1  0.45770285  0.08847329  0.40004118  1
  Gd  Gd31  1  0.75316210  0.44573831  0.86142280  1
  Gd  Gd32  1  0.87961175  0.54142384  0.57876070  1
  Gd  Gd33  1  0.53617156  0.54789602  0.14881822  1
  Gd  Gd34  1  0.88604822  0.87152863  0.57527370  1
  Gd  Gd35  1  0.55845883  0.87365276  0.10805152  1
  N  N36  1  0.21119081  0.20900360  0.32209670  1
  N  N37  1  0.12375110  0.08922912  0.08713664  1
  N  N38  1  0.90560246  0.19940795  0.90263118  1
  N  N39  1  0.74291938  0.10478939  0.64960962  1
  N  N40  1  0.57237661  0.22190933  0.31608617  1
  N  N41  1  0.42437997  0.12759820  0.07887961  1
  N  N42  1  0.20741909  0.20995318  0.83630204  1
  N  N43  1  0.13640646  0.08105605  0.57199208  1
  N  N44  1  0.90236339  0.19637105  0.35223351  1
  N  N45  1  0.78485382  0.08651748  0.11430144  1
  N  N46  1  0.49717398  0.23881924  0.83449819  1
  N  N47  1  0.44106170  0.08868556  0.61337128  1
  N  N48  1  0.23164805  0.53945558  0.38066093  1
  N  N49  1  0.11902804  0.42162838  0.09805442  1
  N  N50  1  0.89730389  0.55240341  0.89741014  1
  N  N51  1  0.74197416  0.44514640  0.65293198  1
  N  N52  1  0.57516030  0.53136657  0.36043544  1
  N  N53  1  0.43228970  0.41824591  0.07169475  1
  N  N54  1  0.20254798  0.55260112  0.89149887  1
  N  N55  1  0.13949295  0.40796465  0.59426164  1
  N  N56  1  0.90303099  0.53359774  0.36081496  1
  N  N57  1  0.80218812  0.41969365  0.12752707  1
  N  N58  1  0.48924863  0.57078456  0.83014931  1
  N  N59  1  0.45182338  0.41860808  0.57986842  1
  N  N60  1  0.24160309  0.86523963  0.33174670  1
  N  N61  1  0.12005161  0.75523686  0.13863475  1
  N  N62  1  0.91216893  0.84241319  0.89342260  1
  N  N63  1  0.75473621  0.77368107  0.66589728  1
  N  N64  1  0.58003673  0.83832479  0.33235119  1
  N  N65  1  0.40530770  0.77748533  0.06281253  1
  N  N66  1  0.20772624  0.89152810  0.82504053  1
  N  N67  1  0.13998108  0.73805897  0.63989462  1
  N  N68  1  0.89587858  0.87276089  0.35804530  1
  N  N69  1  0.81940414  0.74201701  0.13117636  1
  N  N70  1  0.54015632  0.88188672  0.85988454  1
  N  N71  1  0.44366922  0.76525904  0.59048987  1
