# generated using pymatgen
data_Gd2Al7N9
_symmetry_space_group_name_H-M   'P 1'
_cell_length_a   10.03292426
_cell_length_b   9.85374121
_cell_length_c   10.49839555
_cell_angle_alpha   90.01984443
_cell_angle_beta   90.01750514
_cell_angle_gamma   60.24054794
_symmetry_Int_Tables_number   1
_chemical_formula_structural   Gd2Al7N9
_chemical_formula_sum   'Gd8 Al28 N36'
_cell_volume   901.01042968
_cell_formula_units_Z   4
loop_
 _symmetry_equiv_pos_site_id
 _symmetry_equiv_pos_as_xyz
  1  'x, y, z'
loop_
 _atom_site_type_symbol
 _atom_site_label
 _atom_site_symmetry_multiplicity
 _atom_site_fract_x
 _atom_site_fract_y
 _atom_site_fract_z
 _atom_site_occupancy
  Al  Al0  1  0.11551473  0.09242327  0.30321086  1
  Al  Al1  1  0.21147085  0.21249606  0.05845101  1
  Al  Al2  1  0.53906277  0.21702916  0.12011387  1
  Al  Al3  1  0.11836692  0.09083143  0.80915402  1
  Al  Al4  1  0.22081145  0.20460641  0.56484823  1
  Al  Al5  1  0.78969978  0.09290965  0.27804039  1
  Al  Al6  1  0.91291453  0.19543831  0.06207186  1
  Al  Al7  1  0.42230289  0.11296958  0.87738314  1
  Al  Al8  1  0.52502113  0.22013547  0.63416533  1
  Al  Al9  1  0.11443391  0.42695306  0.30446038  1
  Al  Al10  1  0.20778245  0.54236811  0.05614769  1
  Al  Al11  1  0.46125986  0.42696742  0.37792856  1
  Al  Al12  1  0.12211781  0.42662689  0.80854905  1
  Al  Al13  1  0.22761922  0.53690022  0.55591930  1
  Al  Al14  1  0.79653854  0.42340589  0.28659779  1
  Al  Al15  1  0.91939290  0.52939871  0.05549631  1
  Al  Al16  1  0.41418836  0.43496275  0.87416371  1
  Al  Al17  1  0.52940559  0.54733039  0.64006567  1
  Al  Al18  1  0.12111438  0.75733923  0.30206279  1
  Al  Al19  1  0.20749262  0.87972287  0.04917511  1
  Al  Al20  1  0.79366454  0.75573911  0.81782741  1
  Al  Al21  1  0.45563784  0.75246557  0.34138934  1
  Al  Al22  1  0.11740280  0.75576248  0.80606757  1
  Al  Al23  1  0.23301841  0.86894747  0.56648528  1
  Al  Al24  1  0.80073270  0.74661169  0.28547180  1
  Al  Al25  1  0.91301029  0.85599029  0.05527370  1
  Al  Al26  1  0.41955086  0.76978199  0.84716452  1
  Al  Al27  1  0.53732849  0.88488565  0.65096282  1
  Gd  Gd28  1  0.75928899  0.10102608  0.84595524  1
  Gd  Gd29  1  0.87940834  0.20843558  0.55007589  1
  Gd  Gd30  1  0.45562320  0.08704386  0.36221805  1
  Gd  Gd31  1  0.77343588  0.43559943  0.83923423  1
  Gd  Gd32  1  0.88502763  0.54063484  0.55896279  1
  Gd  Gd33  1  0.54797248  0.52983862  0.10218676  1
  Gd  Gd34  1  0.88384809  0.87556912  0.55746758  1
  Gd  Gd35  1  0.56827972  0.86357315  0.07764680  1
  N  N36  1  0.19091100  0.22046083  0.37644748  1
  N  N37  1  0.12191710  0.08820643  0.11982588  1
  N  N38  1  0.92205560  0.18707667  0.88085611  1
  N  N39  1  0.74176530  0.11229009  0.62535528  1
  N  N40  1  0.57088365  0.22467588  0.29830839  1
  N  N41  1  0.42922453  0.11930800  0.06967872  1
  N  N42  1  0.20649588  0.21280544  0.87332468  1
  N  N43  1  0.13176682  0.08441271  0.62652984  1
  N  N44  1  0.89349755  0.20218062  0.32839880  1
  N  N45  1  0.78230318  0.09006946  0.09161323  1
  N  N46  1  0.49654897  0.23501711  0.81100557  1
  N  N47  1  0.44128730  0.09092080  0.58004398  1
  N  N48  1  0.22074265  0.54042237  0.36601986  1
  N  N49  1  0.12145110  0.42106944  0.12095675  1
  N  N50  1  0.91371990  0.54682429  0.87010009  1
  N  N51  1  0.74506009  0.44333085  0.62503034  1
  N  N52  1  0.56491299  0.53508671  0.32265062  1
  N  N53  1  0.42151048  0.41339368  0.05455075  1
  N  N54  1  0.20149902  0.55146449  0.87209482  1
  N  N55  1  0.14115302  0.41537167  0.62648569  1
  N  N56  1  0.89713708  0.53571784  0.34178436  1
  N  N57  1  0.81371884  0.41637790  0.09842135  1
  N  N58  1  0.50989347  0.54999023  0.82819392  1
  N  N59  1  0.44745241  0.42643291  0.56136350  1
  N  N60  1  0.23124733  0.86972322  0.37087183  1
  N  N61  1  0.12036519  0.75900490  0.11765803  1
  N  N62  1  0.90964317  0.84741099  0.86958518  1
  N  N63  1  0.75243254  0.77474301  0.64192189  1
  N  N64  1  0.58216222  0.83582669  0.30650110  1
  N  N65  1  0.41480389  0.77174506  0.05964135  1
  N  N66  1  0.20402075  0.88029172  0.86523483  1
  N  N67  1  0.13932111  0.74671705  0.62264684  1
  N  N68  1  0.89312769  0.87550946  0.33671431  1
  N  N69  1  0.82759829  0.73661130  0.10766164  1
  N  N70  1  0.54407890  0.88419935  0.84146313  1
  N  N71  1  0.43785036  0.76764786  0.62126248  1
