# generated using pymatgen
data_Gd2Al7N9
_symmetry_space_group_name_H-M   'P 1'
_cell_length_a   9.93764610
_cell_length_b   9.83474940
_cell_length_c   10.32373469
_cell_angle_alpha   90.08927293
_cell_angle_beta   89.89629871
_cell_angle_gamma   60.54614099
_symmetry_Int_Tables_number   1
_chemical_formula_structural   Gd2Al7N9
_chemical_formula_sum   'Gd8 Al28 N36'
_cell_volume   878.56863897
_cell_formula_units_Z   4
loop_
 _symmetry_equiv_pos_site_id
 _symmetry_equiv_pos_as_xyz
  1  'x, y, z'
loop_
 _atom_site_type_symbol
 _atom_site_label
 _atom_site_symmetry_multiplicity
 _atom_site_fract_x
 _atom_site_fract_y
 _atom_site_fract_z
 _atom_site_occupancy
  Al  Al0  1  0.12198731  0.08955425  0.39634577  1
  Al  Al1  1  0.21286729  0.21444318  0.14544288  1
  Al  Al2  1  0.53458883  0.22273617  0.15463627  1
  Al  Al3  1  0.11472240  0.09016034  0.90641737  1
  Al  Al4  1  0.23174716  0.19863230  0.66151914  1
  Al  Al5  1  0.76660042  0.10432633  0.38043349  1
  Al  Al6  1  0.90071594  0.20278257  0.17331289  1
  Al  Al7  1  0.43059358  0.11032040  0.89237654  1
  Al  Al8  1  0.54033089  0.21682659  0.65812022  1
  Al  Al9  1  0.12209197  0.42250161  0.39631778  1
  Al  Al10  1  0.21731045  0.53915397  0.14997250  1
  Al  Al11  1  0.43957611  0.43358521  0.41305831  1
  Al  Al12  1  0.11485990  0.43051433  0.90875672  1
  Al  Al13  1  0.23399957  0.53330246  0.65096059  1
  Al  Al14  1  0.77006640  0.43493434  0.40474206  1
  Al  Al15  1  0.90605184  0.53175048  0.16557886  1
  Al  Al16  1  0.42347369  0.43800393  0.89641505  1
  Al  Al17  1  0.53863689  0.54693287  0.64885121  1
  Al  Al18  1  0.12649322  0.75324991  0.39809825  1
  Al  Al19  1  0.21308643  0.87711405  0.15055501  1
  Al  Al20  1  0.80104905  0.74894836  0.91323770  1
  Al  Al21  1  0.44429240  0.76077812  0.41664610  1
  Al  Al22  1  0.11392866  0.75753513  0.90417905  1
  Al  Al23  1  0.23314978  0.86781736  0.64993506  1
  Al  Al24  1  0.77166927  0.75808296  0.39805574  1
  Al  Al25  1  0.90248763  0.86191172  0.16791634  1
  Al  Al26  1  0.42495123  0.76650888  0.89315436  1
  Al  Al27  1  0.55137612  0.87129252  0.66913315  1
  Gd  Gd28  1  0.77104384  0.09116628  0.92078605  1
  Gd  Gd29  1  0.89390916  0.19678849  0.62644344  1
  Gd  Gd30  1  0.44236880  0.09467242  0.41601571  1
  Gd  Gd31  1  0.77257298  0.43370191  0.90547972  1
  Gd  Gd32  1  0.90195101  0.53796053  0.63702036  1
  Gd  Gd33  1  0.54342148  0.54220210  0.16096403  1
  Gd  Gd34  1  0.88878520  0.87456533  0.63109841  1
  Gd  Gd35  1  0.55439069  0.87582459  0.12703242  1
  N  N36  1  0.20067421  0.21651746  0.32815459  1
  N  N37  1  0.10796213  0.09426468  0.09691747  1
  N  N38  1  0.91159241  0.18898407  0.84484970  1
  N  N39  1  0.73010428  0.11574949  0.56864970  1
  N  N40  1  0.55137759  0.23281724  0.33437514  1
  N  N41  1  0.42325836  0.12870413  0.08404970  1
  N  N42  1  0.21249043  0.21059103  0.84950229  1
  N  N43  1  0.15395753  0.07552011  0.57922737  1
  N  N44  1  0.89587269  0.20416659  0.36346516  1
  N  N45  1  0.77885291  0.09363922  0.14140124  1
  N  N46  1  0.52833087  0.22713290  0.84037128  1
  N  N47  1  0.44563274  0.08897394  0.63616128  1
  N  N48  1  0.22695194  0.53776014  0.33789093  1
  N  N49  1  0.11105904  0.43014813  0.09641314  1
  N  N50  1  0.90790903  0.54467807  0.85382991  1
  N  N51  1  0.74750648  0.44556887  0.59280080  1
  N  N52  1  0.54771528  0.54418385  0.37585717  1
  N  N53  1  0.42238869  0.42389620  0.08058469  1
  N  N54  1  0.21414339  0.54314925  0.84060069  1
  N  N55  1  0.15785439  0.40016069  0.57965066  1
  N  N56  1  0.89697210  0.53671401  0.35945887  1
  N  N57  1  0.80317581  0.41649923  0.12628298  1
  N  N58  1  0.51989659  0.55475747  0.83709343  1
  N  N59  1  0.44084744  0.42788867  0.59724232  1
  N  N60  1  0.22809996  0.86986094  0.33937425  1
  N  N61  1  0.11076628  0.76193569  0.09739713  1
  N  N62  1  0.90470969  0.84952372  0.85123850  1
  N  N63  1  0.74079702  0.77878217  0.57981303  1
  N  N64  1  0.56336079  0.84497238  0.34413549  1
  N  N65  1  0.40715801  0.77552760  0.07307395  1
  N  N66  1  0.21298040  0.87775447  0.83794737  1
  N  N67  1  0.14817792  0.74248951  0.58151555  1
  N  N68  1  0.89552856  0.86509425  0.35697522  1
  N  N69  1  0.81498073  0.74176834  0.09995181  1
  N  N70  1  0.56332858  0.86621104  0.86203680  1
  N  N71  1  0.44403289  0.76569335  0.60455934  1
