# generated using pymatgen
data_Gd2Al7N9
_symmetry_space_group_name_H-M   'P 1'
_cell_length_a   9.88756052
_cell_length_b   9.82709268
_cell_length_c   10.80403321
_cell_angle_alpha   90.00070169
_cell_angle_beta   89.44425669
_cell_angle_gamma   60.14208587
_symmetry_Int_Tables_number   1
_chemical_formula_structural   Gd2Al7N9
_chemical_formula_sum   'Gd8 Al28 N36'
_cell_volume   910.38181603
_cell_formula_units_Z   4
loop_
 _symmetry_equiv_pos_site_id
 _symmetry_equiv_pos_as_xyz
  1  'x, y, z'
loop_
 _atom_site_type_symbol
 _atom_site_label
 _atom_site_symmetry_multiplicity
 _atom_site_fract_x
 _atom_site_fract_y
 _atom_site_fract_z
 _atom_site_occupancy
  Al  Al0  1  0.11952775  0.07975763  0.31602804  1
  Al  Al1  1  0.22156649  0.20981875  0.14209331  1
  Al  Al2  1  0.54007688  0.21765216  0.13720835  1
  Al  Al3  1  0.10868902  0.09714279  0.86543979  1
  Al  Al4  1  0.22817757  0.19622101  0.66373624  1
  Al  Al5  1  0.78875540  0.08859507  0.29639934  1
  Al  Al6  1  0.90132335  0.20162770  0.08958379  1
  Al  Al7  1  0.41914648  0.11538066  0.89851604  1
  Al  Al8  1  0.52792153  0.21914966  0.66088611  1
  Al  Al9  1  0.11684080  0.43369086  0.31617192  1
  Al  Al10  1  0.21070361  0.54240346  0.06989366  1
  Al  Al11  1  0.46499165  0.42108789  0.40373300  1
  Al  Al12  1  0.11384181  0.43816662  0.83017286  1
  Al  Al13  1  0.22892505  0.53545901  0.57706654  1
  Al  Al14  1  0.80213970  0.41996372  0.31042563  1
  Al  Al15  1  0.91271669  0.53258672  0.07559470  1
  Al  Al16  1  0.41813298  0.44044614  0.89157371  1
  Al  Al17  1  0.52752842  0.55163418  0.65108108  1
  Al  Al18  1  0.12330401  0.75540729  0.32058972  1
  Al  Al19  1  0.20606379  0.87499109  0.06973396  1
  Al  Al20  1  0.78737909  0.75761884  0.83910673  1
  Al  Al21  1  0.47219945  0.74454902  0.40906699  1
  Al  Al22  1  0.11821507  0.75609273  0.82428627  1
  Al  Al23  1  0.22724422  0.87432155  0.57405510  1
  Al  Al24  1  0.80094903  0.74596008  0.30764429  1
  Al  Al25  1  0.90971397  0.85523836  0.07508111  1
  Al  Al26  1  0.41915500  0.77179648  0.89052927  1
  Al  Al27  1  0.53992325  0.87871493  0.67069269  1
  Gd  Gd28  1  0.76420118  0.09810788  0.86137999  1
  Gd  Gd29  1  0.87409270  0.21135017  0.56231547  1
  Gd  Gd30  1  0.45080347  0.09041464  0.40240940  1
  Gd  Gd31  1  0.75734307  0.44668821  0.85927731  1
  Gd  Gd32  1  0.88823610  0.53721310  0.57828485  1
  Gd  Gd33  1  0.53623038  0.54120542  0.15198572  1
  Gd  Gd34  1  0.88811065  0.87133127  0.57456659  1
  Gd  Gd35  1  0.55821885  0.87181458  0.11619903  1
  N  N36  1  0.21123248  0.20976726  0.32219712  1
  N  N37  1  0.11949711  0.08371264  0.12928410  1
  N  N38  1  0.90681524  0.20275365  0.91519957  1
  N  N39  1  0.74735938  0.10553783  0.64806313  1
  N  N40  1  0.56487179  0.22437638  0.31459941  1
  N  N41  1  0.42510057  0.12596114  0.07661560  1
  N  N42  1  0.21148494  0.20969594  0.84621596  1
  N  N43  1  0.12549340  0.08669896  0.62254198  1
  N  N44  1  0.89666928  0.19726453  0.34348712  1
  N  N45  1  0.78059485  0.08654467  0.11521429  1
  N  N46  1  0.49998888  0.23703071  0.83316046  1
  N  N47  1  0.44084749  0.09078954  0.61386022  1
  N  N48  1  0.22363451  0.53902897  0.38852607  1
  N  N49  1  0.11758190  0.43198832  0.13572175  1
  N  N50  1  0.90609723  0.54938887  0.89636095  1
  N  N51  1  0.74852936  0.44126002  0.65153152  1
  N  N52  1  0.57489272  0.52884757  0.36149745  1
  N  N53  1  0.43235102  0.41568662  0.06765562  1
  N  N54  1  0.20180900  0.55353781  0.89303056  1
  N  N55  1  0.13865819  0.42194586  0.65135261  1
  N  N56  1  0.90220406  0.53321050  0.36486909  1
  N  N57  1  0.80327526  0.42311201  0.12860026  1
  N  N58  1  0.49141605  0.57003385  0.82649985  1
  N  N59  1  0.45139933  0.41939067  0.58060135  1
  N  N60  1  0.23037252  0.86478535  0.38520649  1
  N  N61  1  0.12189829  0.75461602  0.13892619  1
  N  N62  1  0.90761809  0.84481869  0.89489543  1
  N  N63  1  0.75855464  0.77009749  0.66575297  1
  N  N64  1  0.57877043  0.83934846  0.33312581  1
  N  N65  1  0.42023718  0.76613338  0.06429854  1
  N  N66  1  0.19769086  0.88375317  0.88884976  1
  N  N67  1  0.14408523  0.74594407  0.64429134  1
  N  N68  1  0.89321956  0.87346456  0.35775860  1
  N  N69  1  0.82010048  0.73971039  0.13223721  1
  N  N70  1  0.53954841  0.88083996  0.85647541  1
  N  N71  1  0.45160282  0.76328826  0.58890209  1
