# generated using pymatgen
data_Gd2Al7N9
_symmetry_space_group_name_H-M   'P 1'
_cell_length_a   10.11255777
_cell_length_b   9.88535725
_cell_length_c   10.20477758
_cell_angle_alpha   90.09731467
_cell_angle_beta   90.73105120
_cell_angle_gamma   60.82754866
_symmetry_Int_Tables_number   1
_chemical_formula_structural   Gd2Al7N9
_chemical_formula_sum   'Gd8 Al28 N36'
_cell_volume   890.65163268
_cell_formula_units_Z   4
loop_
 _symmetry_equiv_pos_site_id
 _symmetry_equiv_pos_as_xyz
  1  'x, y, z'
loop_
 _atom_site_type_symbol
 _atom_site_label
 _atom_site_symmetry_multiplicity
 _atom_site_fract_x
 _atom_site_fract_y
 _atom_site_fract_z
 _atom_site_occupancy
  Al  Al0  1  0.12686418  0.08558667  0.40119078  1
  Al  Al1  1  0.21403094  0.21197405  0.14972597  1
  Al  Al2  1  0.52909192  0.22517536  0.15369169  1
  Al  Al3  1  0.11454348  0.09084678  0.90393538  1
  Al  Al4  1  0.22666208  0.20187510  0.66022492  1
  Al  Al5  1  0.78033650  0.09742128  0.33357681  1
  Al  Al6  1  0.91154225  0.19516873  0.15613496  1
  Al  Al7  1  0.41717487  0.11763708  0.90410862  1
  Al  Al8  1  0.52629321  0.22207546  0.67170563  1
  Al  Al9  1  0.13012897  0.41788969  0.40376545  1
  Al  Al10  1  0.21610740  0.53865782  0.15453448  1
  Al  Al11  1  0.45261847  0.42893036  0.41514726  1
  Al  Al12  1  0.10989778  0.43401055  0.90295087  1
  Al  Al13  1  0.22974258  0.53498984  0.65266027  1
  Al  Al14  1  0.78510262  0.42414406  0.34366832  1
  Al  Al15  1  0.91994693  0.52312645  0.15866629  1
  Al  Al16  1  0.41067367  0.44207870  0.90450422  1
  Al  Al17  1  0.52758412  0.55101119  0.66794588  1
  Al  Al18  1  0.13856725  0.74912276  0.40259553  1
  Al  Al19  1  0.21676987  0.87750311  0.15518839  1
  Al  Al20  1  0.78463745  0.75893035  0.83704808  1
  Al  Al21  1  0.45996261  0.75080287  0.41751307  1
  Al  Al22  1  0.11101115  0.75874305  0.90197302  1
  Al  Al23  1  0.22974469  0.86952772  0.65038310  1
  Al  Al24  1  0.79125099  0.74999382  0.33657117  1
  Al  Al25  1  0.91566830  0.85826136  0.15597483  1
  Al  Al26  1  0.41283904  0.77367286  0.90051343  1
  Al  Al27  1  0.53145477  0.88322274  0.67593522  1
  Gd  Gd28  1  0.76547729  0.09472170  0.89378412  1
  Gd  Gd29  1  0.88319045  0.20740305  0.62219775  1
  Gd  Gd30  1  0.44983825  0.08798563  0.40703848  1
  Gd  Gd31  1  0.77059976  0.43812643  0.88825295  1
  Gd  Gd32  1  0.88477513  0.53965128  0.61441533  1
  Gd  Gd33  1  0.53989125  0.54435234  0.14542039  1
  Gd  Gd34  1  0.88567513  0.87636337  0.61304043  1
  Gd  Gd35  1  0.56718169  0.86973689  0.11333580  1
  N  N36  1  0.20258742  0.21488327  0.33432224  1
  N  N37  1  0.11353510  0.09221520  0.09739692  1
  N  N38  1  0.91537045  0.19081574  0.85088807  1
  N  N39  1  0.73057735  0.11608329  0.64530513  1
  N  N40  1  0.56600414  0.22491016  0.33709817  1
  N  N41  1  0.42193774  0.12433637  0.09904802  1
  N  N42  1  0.21008606  0.21140971  0.85127443  1
  N  N43  1  0.14732396  0.07728017  0.58527348  1
  N  N44  1  0.90209564  0.19705194  0.35697432  1
  N  N45  1  0.78650665  0.08904623  0.13683411  1
  N  N46  1  0.50645670  0.23482249  0.85503052  1
  N  N47  1  0.43614145  0.09515706  0.62736040  1
  N  N48  1  0.23271701  0.53362408  0.34336355  1
  N  N49  1  0.11591739  0.42562777  0.09497402  1
  N  N50  1  0.90807896  0.54647696  0.85070879  1
  N  N51  1  0.73463723  0.45007890  0.65594726  1
  N  N52  1  0.56378934  0.53456596  0.36886534  1
  N  N53  1  0.41444809  0.42569734  0.09021194  1
  N  N54  1  0.20960061  0.54622185  0.84298673  1
  N  N55  1  0.14979563  0.40627745  0.58838357  1
  N  N56  1  0.90724761  0.52756724  0.36478850  1
  N  N57  1  0.80570865  0.41615470  0.14308348  1
  N  N58  1  0.50513924  0.56138408  0.85935456  1
  N  N59  1  0.43728503  0.43017212  0.60109429  1
  N  N60  1  0.23623455  0.86659941  0.34413610  1
  N  N61  1  0.11820391  0.75905579  0.09868555  1
  N  N62  1  0.90709965  0.84880662  0.85398065  1
  N  N63  1  0.73588009  0.78324792  0.65200833  1
  N  N64  1  0.57915410  0.83602078  0.34835765  1
  N  N65  1  0.40556159  0.78420436  0.08275499  1
  N  N66  1  0.20989995  0.87930217  0.84027878  1
  N  N67  1  0.14949152  0.74212977  0.58637632  1
  N  N68  1  0.90289077  0.87032683  0.36001713  1
  N  N69  1  0.82319818  0.73697018  0.14950315  1
  N  N70  1  0.54257816  0.87952168  0.87021508  1
  N  N71  1  0.43998520  0.76525632  0.60697119  1
