# generated using pymatgen
data_Gd2Al7N9
_symmetry_space_group_name_H-M   'P 1'
_cell_length_a   9.88102848
_cell_length_b   9.82846560
_cell_length_c   10.79696564
_cell_angle_alpha   90.06194066
_cell_angle_beta   89.42940877
_cell_angle_gamma   60.12323300
_symmetry_Int_Tables_number   1
_chemical_formula_structural   Gd2Al7N9
_chemical_formula_sum   'Gd8 Al28 N36'
_cell_volume   909.13023798
_cell_formula_units_Z   4
loop_
 _symmetry_equiv_pos_site_id
 _symmetry_equiv_pos_as_xyz
  1  'x, y, z'
loop_
 _atom_site_type_symbol
 _atom_site_label
 _atom_site_symmetry_multiplicity
 _atom_site_fract_x
 _atom_site_fract_y
 _atom_site_fract_z
 _atom_site_occupancy
  Al  Al0  1  0.11703377  0.08095186  0.31482960  1
  Al  Al1  1  0.22036539  0.20961208  0.14262005  1
  Al  Al2  1  0.54026353  0.21819500  0.13703513  1
  Al  Al3  1  0.10870416  0.09030879  0.83219170  1
  Al  Al4  1  0.23224646  0.19926726  0.66599548  1
  Al  Al5  1  0.78906296  0.09068665  0.29640745  1
  Al  Al6  1  0.90721065  0.19881354  0.08253943  1
  Al  Al7  1  0.41660571  0.11664018  0.89950082  1
  Al  Al8  1  0.52880477  0.21942494  0.66055616  1
  Al  Al9  1  0.11607180  0.43473377  0.31659254  1
  Al  Al10  1  0.21081942  0.54292035  0.07050457  1
  Al  Al11  1  0.46465376  0.42222223  0.40307678  1
  Al  Al12  1  0.11350667  0.43739535  0.83123058  1
  Al  Al13  1  0.22861522  0.53593551  0.57655002  1
  Al  Al14  1  0.80200419  0.41906827  0.31065901  1
  Al  Al15  1  0.91305871  0.53224367  0.07558267  1
  Al  Al16  1  0.41811761  0.44008711  0.89138283  1
  Al  Al17  1  0.52856396  0.55052833  0.65146146  1
  Al  Al18  1  0.12211019  0.75767384  0.32108319  1
  Al  Al19  1  0.20401516  0.87872431  0.06625820  1
  Al  Al20  1  0.78640635  0.75792320  0.83942303  1
  Al  Al21  1  0.47057510  0.74627604  0.40967605  1
  Al  Al22  1  0.11792444  0.75498212  0.82529022  1
  Al  Al23  1  0.22783589  0.87188930  0.57929182  1
  Al  Al24  1  0.80003528  0.74663476  0.30732206  1
  Al  Al25  1  0.91012364  0.85517620  0.07559897  1
  Al  Al26  1  0.41903296  0.77120543  0.89008780  1
  Al  Al27  1  0.53953100  0.87927531  0.67111507  1
  Gd  Gd28  1  0.76335006  0.09764767  0.86340890  1
  Gd  Gd29  1  0.87932776  0.20825633  0.56654407  1
  Gd  Gd30  1  0.45129518  0.09133339  0.40042194  1
  Gd  Gd31  1  0.75970507  0.44366457  0.85974803  1
  Gd  Gd32  1  0.88681692  0.53868753  0.57773704  1
  Gd  Gd33  1  0.53731277  0.54118673  0.15029581  1
  Gd  Gd34  1  0.88738599  0.87170764  0.57413805  1
  Gd  Gd35  1  0.55772648  0.87175921  0.11532622  1
  N  N36  1  0.20920408  0.21117174  0.32486644  1
  N  N37  1  0.11907226  0.08221905  0.13507804  1
  N  N38  1  0.91385231  0.19703050  0.90819538  1
  N  N39  1  0.74816081  0.10643455  0.64811253  1
  N  N40  1  0.56501792  0.22561557  0.31386338  1
  N  N41  1  0.42470532  0.12622751  0.07795199  1
  N  N42  1  0.21075493  0.21054132  0.84602180  1
  N  N43  1  0.12775550  0.07974566  0.64884886  1
  N  N44  1  0.89535974  0.19875616  0.34942706  1
  N  N45  1  0.78210341  0.08754870  0.11415267  1
  N  N46  1  0.49924433  0.23680351  0.83272400  1
  N  N47  1  0.44157851  0.09061385  0.61177576  1
  N  N48  1  0.22283408  0.54078523  0.38850931  1
  N  N49  1  0.11783502  0.43189341  0.13626463  1
  N  N50  1  0.90524642  0.54983506  0.89628398  1
  N  N51  1  0.74968279  0.43966119  0.65075900  1
  N  N52  1  0.57269513  0.53122929  0.36017520  1
  N  N53  1  0.43250931  0.41578696  0.06752619  1
  N  N54  1  0.20168092  0.55288982  0.89348236  1
  N  N55  1  0.13759877  0.42302161  0.65045665  1
  N  N56  1  0.90091048  0.53417635  0.36451638  1
  N  N57  1  0.80577210  0.41973199  0.12699255  1
  N  N58  1  0.49330424  0.56821725  0.82679802  1
  N  N59  1  0.45131264  0.41965353  0.58024271  1
  N  N60  1  0.22564237  0.87036680  0.39125175  1
  N  N61  1  0.12241384  0.75587345  0.13898375  1
  N  N62  1  0.90722154  0.84440164  0.89517519  1
  N  N63  1  0.75791066  0.77103605  0.66573898  1
  N  N64  1  0.57759480  0.83989791  0.33278910  1
  N  N65  1  0.41902650  0.76686555  0.06395180  1
  N  N66  1  0.19799753  0.88275021  0.88674683  1
  N  N67  1  0.14300725  0.74524607  0.64514200  1
  N  N68  1  0.89185313  0.87481902  0.35733888  1
  N  N69  1  0.81996628  0.73966140  0.13209622  1
  N  N70  1  0.53894762  0.88151003  0.85649507  1
  N  N71  1  0.45189948  0.76290744  0.58999721  1
