# generated using pymatgen
data_Gd2Al7N9
_symmetry_space_group_name_H-M   'P 1'
_cell_length_a   9.87588042
_cell_length_b   9.83362504
_cell_length_c   10.79851507
_cell_angle_alpha   90.18632760
_cell_angle_beta   89.36831272
_cell_angle_gamma   60.13822384
_symmetry_Int_Tables_number   1
_chemical_formula_structural   Gd2Al7N9
_chemical_formula_sum   'Gd8 Al28 N36'
_cell_volume   909.36637936
_cell_formula_units_Z   4
loop_
 _symmetry_equiv_pos_site_id
 _symmetry_equiv_pos_as_xyz
  1  'x, y, z'
loop_
 _atom_site_type_symbol
 _atom_site_label
 _atom_site_symmetry_multiplicity
 _atom_site_fract_x
 _atom_site_fract_y
 _atom_site_fract_z
 _atom_site_occupancy
  Al  Al0  1  0.11583836  0.08219642  0.31385387  1
  Al  Al1  1  0.21946329  0.21058345  0.14162092  1
  Al  Al2  1  0.53993358  0.21911340  0.13531744  1
  Al  Al3  1  0.11094639  0.08764712  0.82961520  1
  Al  Al4  1  0.23401741  0.19843732  0.66490366  1
  Al  Al5  1  0.78838289  0.09249397  0.29490351  1
  Al  Al6  1  0.90863808  0.19778502  0.07902827  1
  Al  Al7  1  0.41608117  0.11706828  0.89826387  1
  Al  Al8  1  0.52986517  0.21911104  0.65849945  1
  Al  Al9  1  0.11451318  0.43671417  0.31494996  1
  Al  Al10  1  0.21085104  0.54330518  0.06910216  1
  Al  Al11  1  0.46382444  0.42382551  0.40063050  1
  Al  Al12  1  0.11354196  0.43694016  0.82978330  1
  Al  Al13  1  0.22860067  0.53555744  0.57510855  1
  Al  Al14  1  0.80135346  0.41940262  0.30938180  1
  Al  Al15  1  0.91281477  0.53233480  0.07398373  1
  Al  Al16  1  0.41830990  0.43974799  0.88947299  1
  Al  Al17  1  0.53006341  0.54915126  0.64916670  1
  Al  Al18  1  0.12096868  0.75918498  0.31971576  1
  Al  Al19  1  0.20431452  0.87832600  0.06446812  1
  Al  Al20  1  0.78599417  0.75740327  0.83798447  1
  Al  Al21  1  0.46925182  0.74769129  0.40759968  1
  Al  Al22  1  0.11733975  0.75429675  0.82409030  1
  Al  Al23  1  0.22881047  0.86997536  0.57884415  1
  Al  Al24  1  0.79809689  0.74841352  0.30553681  1
  Al  Al25  1  0.90977714  0.85530465  0.07451623  1
  Al  Al26  1  0.42009303  0.76979099  0.88812944  1
  Al  Al27  1  0.53966034  0.87909986  0.66918035  1
  Gd  Gd28  1  0.76274563  0.09657239  0.86259563  1
  Gd  Gd29  1  0.88340346  0.20531889  0.56645735  1
  Gd  Gd30  1  0.44998956  0.09353605  0.39818736  1
  Gd  Gd31  1  0.76187427  0.44104193  0.85655475  1
  Gd  Gd32  1  0.88752764  0.53851371  0.57547622  1
  Gd  Gd33  1  0.53913555  0.54058487  0.14698880  1
  Gd  Gd34  1  0.88693218  0.87161568  0.57220059  1
  Gd  Gd35  1  0.55667578  0.87274251  0.11334316  1
  N  N36  1  0.20711705  0.21327681  0.32380709  1
  N  N37  1  0.11928220  0.08188338  0.13390590  1
  N  N38  1  0.91531137  0.19441874  0.90473193  1
  N  N39  1  0.74936826  0.10606110  0.64726258  1
  N  N40  1  0.56431806  0.22723115  0.31162012  1
  N  N41  1  0.42411024  0.12715689  0.07671429  1
  N  N42  1  0.21066917  0.21036342  0.84474659  1
  N  N43  1  0.13160602  0.07690196  0.64841930  1
  N  N44  1  0.89442883  0.20005721  0.34982022  1
  N  N45  1  0.78251352  0.08813540  0.11233234  1
  N  N46  1  0.49872851  0.23670774  0.83059860  1
  N  N47  1  0.44303570  0.08991854  0.60941892  1
  N  N48  1  0.22137578  0.54242568  0.38725945  1
  N  N49  1  0.11747532  0.43273669  0.13484456  1
  N  N50  1  0.90491231  0.54952151  0.89470671  1
  N  N51  1  0.75130270  0.43825308  0.64759894  1
  N  N52  1  0.57092133  0.53322033  0.35681267  1
  N  N53  1  0.43252812  0.41611865  0.06558811  1
  N  N54  1  0.20174688  0.55250779  0.89204481  1
  N  N55  1  0.13813003  0.42196451  0.64888870  1
  N  N56  1  0.89895452  0.53629630  0.36247536  1
  N  N57  1  0.80781605  0.41776561  0.12502487  1
  N  N58  1  0.49543226  0.56633145  0.82495373  1
  N  N59  1  0.45161651  0.41930413  0.57792232  1
  N  N60  1  0.22383346  0.87202229  0.39092887  1
  N  N61  1  0.12204522  0.75639136  0.13760441  1
  N  N62  1  0.90688120  0.84368673  0.89415389  1
  N  N63  1  0.75812841  0.77055174  0.66430213  1
  N  N64  1  0.57541173  0.84216957  0.33080651  1
  N  N65  1  0.41933146  0.76643174  0.06197184  1
  N  N66  1  0.19905635  0.88091182  0.88499459  1
  N  N67  1  0.14236857  0.74465431  0.64406364  1
  N  N68  1  0.89016491  0.87667042  0.35533543  1
  N  N69  1  0.81890147  0.74012947  0.13038266  1
  N  N70  1  0.53849549  0.88180245  0.85479929  1
  N  N71  1  0.45282924  0.76142387  0.58835516  1
