# generated using pymatgen
data_Gd2Al7N9
_symmetry_space_group_name_H-M   'P 1'
_cell_length_a   9.87588035
_cell_length_b   9.83362413
_cell_length_c   10.79851065
_cell_angle_alpha   90.18633971
_cell_angle_beta   89.36834551
_cell_angle_gamma   60.13828720
_symmetry_Int_Tables_number   1
_chemical_formula_structural   Gd2Al7N9
_chemical_formula_sum   'Gd8 Al28 N36'
_cell_volume   909.36650062
_cell_formula_units_Z   4
loop_
 _symmetry_equiv_pos_site_id
 _symmetry_equiv_pos_as_xyz
  1  'x, y, z'
loop_
 _atom_site_type_symbol
 _atom_site_label
 _atom_site_symmetry_multiplicity
 _atom_site_fract_x
 _atom_site_fract_y
 _atom_site_fract_z
 _atom_site_occupancy
  Al  Al0  1  0.11608222  0.08197760  0.29910341  1
  Al  Al1  1  0.21970709  0.21036438  0.12686948  1
  Al  Al2  1  0.54017694  0.21889454  0.12056631  1
  Al  Al3  1  0.11119072  0.08742731  0.81486454  1
  Al  Al4  1  0.23426159  0.19821763  0.65015318  1
  Al  Al5  1  0.78862688  0.09227483  0.28015218  1
  Al  Al6  1  0.90888229  0.19756561  0.06427685  1
  Al  Al7  1  0.41632535  0.11684857  0.88351254  1
  Al  Al8  1  0.53010898  0.21889185  0.64374900  1
  Al  Al9  1  0.11475693  0.43649508  0.30019883  1
  Al  Al10  1  0.21109484  0.54308613  0.05435153  1
  Al  Al11  1  0.46406888  0.42360620  0.38587961  1
  Al  Al12  1  0.11378616  0.43672063  0.81503230  1
  Al  Al13  1  0.22884468  0.53533784  0.56035677  1
  Al  Al14  1  0.80159792  0.41918320  0.29463067  1
  Al  Al15  1  0.91305858  0.53211583  0.05923201  1
  Al  Al16  1  0.41855342  0.43952913  0.87472204  1
  Al  Al17  1  0.53030725  0.54893194  0.63441573  1
  Al  Al18  1  0.12121240  0.75896616  0.30496512  1
  Al  Al19  1  0.20455827  0.87810679  0.04971780  1
  Al  Al20  1  0.78623761  0.75718395  0.82323260  1
  Al  Al21  1  0.46949583  0.74747232  0.39284914  1
  Al  Al22  1  0.11758398  0.75407717  0.80933884  1
  Al  Al23  1  0.22905445  0.86975590  0.56409346  1
  Al  Al24  1  0.79834096  0.74819453  0.29078654  1
  Al  Al25  1  0.91002112  0.85508486  0.05976439  1
  Al  Al26  1  0.42033700  0.76957163  0.87337952  1
  Al  Al27  1  0.53990402  0.87888025  0.65442894  1
  Gd  Gd28  1  0.76298900  0.09635317  0.84784580  1
  Gd  Gd29  1  0.88364720  0.20509940  0.55170732  1
  Gd  Gd30  1  0.45023334  0.09331753  0.38343706  1
  Gd  Gd31  1  0.76211766  0.44082257  0.84180467  1
  Gd  Gd32  1  0.88777185  0.53829372  0.56072597  1
  Gd  Gd33  1  0.53937966  0.54036556  0.13223848  1
  Gd  Gd34  1  0.88717587  0.87139656  0.55745035  1
  Gd  Gd35  1  0.55691949  0.87252373  0.09859351  1
  N  N36  1  0.20736127  0.21305778  0.30905585  1
  N  N37  1  0.11952588  0.08166434  0.11915505  1
  N  N38  1  0.91555551  0.19419913  0.88998043  1
  N  N39  1  0.74961178  0.10584175  0.63251231  1
  N  N40  1  0.56456216  0.22701212  0.29686887  1
  N  N41  1  0.42435403  0.12693766  0.06196297  1
  N  N42  1  0.21091317  0.21014399  0.82999594  1
  N  N43  1  0.13185026  0.07668223  0.63366861  1
  N  N44  1  0.89467274  0.19983816  0.33506960  1
  N  N45  1  0.78275740  0.08791599  0.09758092  1
  N  N46  1  0.49897209  0.23648888  0.81584789  1
  N  N47  1  0.44327965  0.08969909  0.59466838  1
  N  N48  1  0.22162005  0.54220645  0.37250806  1
  N  N49  1  0.11771884  0.43251756  0.12009328  1
  N  N50  1  0.90515614  0.54930225  0.87995482  1
  N  N51  1  0.75154631  0.43803360  0.63284848  1
  N  N52  1  0.57116558  0.53300133  0.34206206  1
  N  N53  1  0.43277180  0.41589987  0.05083728  1
  N  N54  1  0.20199062  0.55228864  0.87729399  1
  N  N55  1  0.13837456  0.42174459  0.63413762  1
  N  N56  1  0.89919854  0.53607721  0.34772469  1
  N  N57  1  0.80806004  0.41754625  0.11027335  1
  N  N58  1  0.49567581  0.56611255  0.81020284  1
  N  N59  1  0.45186049  0.41908454  0.56317129  1
  N  N60  1  0.22407755  0.87180327  0.37617811  1
  N  N61  1  0.12228857  0.75617234  0.12285352  1
  N  N62  1  0.90712508  0.84346720  0.87940186  1
  N  N63  1  0.75837180  0.77033221  0.64955034  1
  N  N64  1  0.57565569  0.84195099  0.31605632  1
  N  N65  1  0.41957524  0.76621272  0.04722197  1
  N  N66  1  0.19930049  0.88069218  0.87024411  1
  N  N67  1  0.14261275  0.74443451  0.62931228  1
  N  N68  1  0.89040893  0.87645152  0.34058490  1
  N  N69  1  0.81914524  0.73991015  0.11563177  1
  N  N70  1  0.53873944  0.88158284  0.84004816  1
  N  N71  1  0.45307306  0.76120435  0.57360425  1
