# generated using pymatgen
data_Gd2Al7N9
_symmetry_space_group_name_H-M   'P 1'
_cell_length_a   9.87587131
_cell_length_b   9.83362302
_cell_length_c   10.79854772
_cell_angle_alpha   90.18642053
_cell_angle_beta   89.36814941
_cell_angle_gamma   60.13811782
_symmetry_Int_Tables_number   1
_chemical_formula_structural   Gd2Al7N9
_chemical_formula_sum   'Gd8 Al28 N36'
_cell_volume   909.36707638
_cell_formula_units_Z   4
loop_
 _symmetry_equiv_pos_site_id
 _symmetry_equiv_pos_as_xyz
  1  'x, y, z'
loop_
 _atom_site_type_symbol
 _atom_site_label
 _atom_site_symmetry_multiplicity
 _atom_site_fract_x
 _atom_site_fract_y
 _atom_site_fract_z
 _atom_site_occupancy
  Al  Al0  1  0.11588535  0.08215534  0.31096863  1
  Al  Al1  1  0.21951062  0.21054139  0.13873159  1
  Al  Al2  1  0.53998177  0.21906991  0.13242771  1
  Al  Al3  1  0.11099399  0.08760448  0.82673368  1
  Al  Al4  1  0.23406499  0.19839387  0.66201928  1
  Al  Al5  1  0.78842866  0.09245229  0.29201748  1
  Al  Al6  1  0.90868455  0.19774310  0.07614492  1
  Al  Al7  1  0.41613071  0.11702364  0.89537392  1
  Al  Al8  1  0.52991355  0.21906758  0.65561100  1
  Al  Al9  1  0.11455973  0.43667233  0.31206405  1
  Al  Al10  1  0.21089860  0.54326246  0.06621506  1
  Al  Al11  1  0.46387012  0.42378390  0.39774140  1
  Al  Al12  1  0.11358930  0.43689757  0.82689944  1
  Al  Al13  1  0.22864882  0.53551384  0.57222225  1
  Al  Al14  1  0.80139913  0.41936185  0.30649718  1
  Al  Al15  1  0.91286110  0.53229306  0.07109729  1
  Al  Al16  1  0.41835792  0.43970530  0.88658623  1
  Al  Al17  1  0.53011149  0.54910743  0.64627663  1
  Al  Al18  1  0.12101415  0.75914368  0.31682857  1
  Al  Al19  1  0.20436243  0.87828276  0.06158489  1
  Al  Al20  1  0.78604003  0.75736088  0.83509514  1
  Al  Al21  1  0.46929668  0.74765061  0.40471197  1
  Al  Al22  1  0.11738756  0.75425397  0.82120405  1
  Al  Al23  1  0.22885809  0.86993226  0.57595978  1
  Al  Al24  1  0.79814287  0.74837250  0.30265172  1
  Al  Al25  1  0.90982390  0.85526205  0.07162762  1
  Al  Al26  1  0.42014059  0.76974766  0.88524432  1
  Al  Al27  1  0.53970797  0.87905555  0.66629000  1
  Gd  Gd28  1  0.76279382  0.09653036  0.85970814  1
  Gd  Gd29  1  0.88345371  0.20527319  0.56357040  1
  Gd  Gd30  1  0.45003577  0.09349577  0.39530067  1
  Gd  Gd31  1  0.76192152  0.44099908  0.85366605  1
  Gd  Gd32  1  0.88757810  0.53846805  0.57258975  1
  Gd  Gd33  1  0.53918400  0.54054113  0.14410238  1
  Gd  Gd34  1  0.88698145  0.87157107  0.56931376  1
  Gd  Gd35  1  0.55672315  0.87270055  0.11045738  1
  N  N36  1  0.20716431  0.21323520  0.32091941  1
  N  N37  1  0.11932971  0.08184086  0.13102088  1
  N  N38  1  0.91535783  0.19437756  0.90184904  1
  N  N39  1  0.74941720  0.10601695  0.64437560  1
  N  N40  1  0.56436339  0.22719014  0.30873058  1
  N  N41  1  0.42415820  0.12711403  0.07382412  1
  N  N42  1  0.21071646  0.21032107  0.84186192  1
  N  N43  1  0.13165399  0.07685812  0.64553689  1
  N  N44  1  0.89447474  0.20001589  0.34693394  1
  N  N45  1  0.78256125  0.08809223  0.10944617  1
  N  N46  1  0.49877649  0.23666512  0.82770990  1
  N  N47  1  0.44308312  0.08987529  0.60653181  1
  N  N48  1  0.22142144  0.54238442  0.38437323  1
  N  N49  1  0.11752219  0.43269492  0.13195816  1
  N  N50  1  0.90495802  0.54947986  0.89182060  1
  N  N51  1  0.75135133  0.43820826  0.64471070  1
  N  N52  1  0.57096655  0.53317944  0.35392543  1
  N  N53  1  0.43257640  0.41607587  0.06270014  1
  N  N54  1  0.20179428  0.55246546  0.88915873  1
  N  N55  1  0.13817896  0.42192105  0.64600445  1
  N  N56  1  0.89900067  0.53625525  0.35959011  1
  N  N57  1  0.80786387  0.41772364  0.12214080  1
  N  N58  1  0.49547921  0.56628898  0.82206447  1
  N  N59  1  0.45166493  0.41925979  0.57503298  1
  N  N60  1  0.22387853  0.87198141  0.38804349  1
  N  N61  1  0.12209189  0.75634873  0.13471817  1
  N  N62  1  0.90692708  0.84364414  0.89126600  1
  N  N63  1  0.75817653  0.77050730  0.66141328  1
  N  N64  1  0.57545677  0.84212917  0.32791962  1
  N  N65  1  0.41938017  0.76638824  0.05908621  1
  N  N66  1  0.19910325  0.88086872  0.88211137  1
  N  N67  1  0.14241732  0.74461058  0.64117832  1
  N  N68  1  0.89021054  0.87662949  0.35244980  1
  N  N69  1  0.81894885  0.74008762  0.12749754  1
  N  N70  1  0.53854263  0.88175866  0.85190969  1
  N  N71  1  0.45287696  0.76138023  0.58546666  1
