# generated using pymatgen
data_Gd2Al7N9
_symmetry_space_group_name_H-M   'P 1'
_cell_length_a   10.03916381
_cell_length_b   9.85596161
_cell_length_c   10.36745772
_cell_angle_alpha   90.15595897
_cell_angle_beta   90.15225782
_cell_angle_gamma   60.44479950
_symmetry_Int_Tables_number   1
_chemical_formula_structural   Gd2Al7N9
_chemical_formula_sum   'Gd8 Al28 N36'
_cell_volume   892.33205734
_cell_formula_units_Z   4
loop_
 _symmetry_equiv_pos_site_id
 _symmetry_equiv_pos_as_xyz
  1  'x, y, z'
loop_
 _atom_site_type_symbol
 _atom_site_label
 _atom_site_symmetry_multiplicity
 _atom_site_fract_x
 _atom_site_fract_y
 _atom_site_fract_z
 _atom_site_occupancy
  Al  Al0  1  0.11236062  0.09504488  0.30231930  1
  Al  Al1  1  0.22103356  0.21016304  0.05970588  1
  Al  Al2  1  0.54035795  0.21419393  0.13414323  1
  Al  Al3  1  0.12211332  0.08703078  0.81653292  1
  Al  Al4  1  0.21947387  0.20504166  0.56859058  1
  Al  Al5  1  0.79081112  0.09025917  0.28428399  1
  Al  Al6  1  0.90951697  0.20176513  0.06470171  1
  Al  Al7  1  0.41742423  0.10879561  0.80725208  1
  Al  Al8  1  0.53816638  0.21916438  0.62913251  1
  Al  Al9  1  0.11114566  0.42645081  0.30110369  1
  Al  Al10  1  0.21566262  0.53884790  0.06071026  1
  Al  Al11  1  0.43797109  0.43383112  0.31852569  1
  Al  Al12  1  0.12508747  0.42540802  0.81564824  1
  Al  Al13  1  0.23137612  0.53631205  0.55861526  1
  Al  Al14  1  0.78762895  0.42641729  0.29125795  1
  Al  Al15  1  0.91114522  0.53110966  0.05764445  1
  Al  Al16  1  0.41449499  0.45075556  0.80133151  1
  Al  Al17  1  0.54803027  0.54420879  0.54649341  1
  Al  Al18  1  0.11608081  0.76053963  0.30285045  1
  Al  Al19  1  0.21203944  0.87761591  0.05939246  1
  Al  Al20  1  0.79726025  0.75108878  0.81790652  1
  Al  Al21  1  0.44135171  0.76174294  0.30967708  1
  Al  Al22  1  0.12027799  0.75508037  0.81361943  1
  Al  Al23  1  0.23357387  0.86685392  0.56214960  1
  Al  Al24  1  0.79166476  0.75040874  0.28551606  1
  Al  Al25  1  0.90849438  0.85528950  0.05906118  1
  Al  Al26  1  0.42219139  0.76213290  0.80419855  1
  Al  Al27  1  0.54968780  0.86983299  0.63448372  1
  Gd  Gd28  1  0.75980326  0.10022478  0.85241928  1
  Gd  Gd29  1  0.89420611  0.19753738  0.54830927  1
  Gd  Gd30  1  0.45021512  0.08690762  0.35613799  1
  Gd  Gd31  1  0.77031016  0.43664890  0.81916881  1
  Gd  Gd32  1  0.90095060  0.53479224  0.55184133  1
  Gd  Gd33  1  0.54288124  0.53681839  0.07505821  1
  Gd  Gd34  1  0.88912888  0.87288062  0.55931087  1
  Gd  Gd35  1  0.55208371  0.87603637  0.06763435  1
  N  N36  1  0.18232514  0.22521520  0.38388123  1
  N  N37  1  0.11938458  0.09259278  0.11726419  1
  N  N38  1  0.92128215  0.19144352  0.87956757  1
  N  N39  1  0.74942126  0.10999350  0.62600152  1
  N  N40  1  0.58041211  0.21374874  0.31904036  1
  N  N41  1  0.42196341  0.12052813  0.12158695  1
  N  N42  1  0.21759771  0.20670901  0.87286016  1
  N  N43  1  0.14134339  0.07656216  0.63292767  1
  N  N44  1  0.89303079  0.20248639  0.32749645  1
  N  N45  1  0.77726485  0.09275714  0.09437363  1
  N  N46  1  0.50331377  0.23546461  0.81517152  1
  N  N47  1  0.43831944  0.09193249  0.60371330  1
  N  N48  1  0.21589018  0.54131059  0.37043391  1
  N  N49  1  0.11665890  0.42393066  0.11547902  1
  N  N50  1  0.91440512  0.54208798  0.86965882  1
  N  N51  1  0.75224241  0.44069155  0.60218205  1
  N  N52  1  0.55508511  0.53967943  0.35358067  1
  N  N53  1  0.41062115  0.42842611  0.13436080  1
  N  N54  1  0.21763078  0.54416422  0.87510229  1
  N  N55  1  0.14773380  0.41236738  0.63253065  1
  N  N56  1  0.89534734  0.53713126  0.33591810  1
  N  N57  1  0.80465366  0.41993150  0.10382100  1
  N  N58  1  0.51536114  0.55599297  0.85955817  1
  N  N59  1  0.44020081  0.43809276  0.60246145  1
  N  N60  1  0.21990110  0.87618331  0.37308344  1
  N  N61  1  0.11536448  0.75997050  0.11660284  1
  N  N62  1  0.91220139  0.84455793  0.87027371  1
  N  N63  1  0.76036865  0.76677673  0.63881888  1
  N  N64  1  0.58287617  0.83523292  0.32160749  1
  N  N65  1  0.40464018  0.78003528  0.13085800  1
  N  N66  1  0.21950097  0.87261423  0.87271900  1
  N  N67  1  0.14152759  0.74691590  0.62778995  1
  N  N68  1  0.89399978  0.87226030  0.33661686  1
  N  N69  1  0.81140638  0.74354104  0.10382248  1
  N  N70  1  0.54152170  0.87883034  0.83223872  1
  N  N71  1  0.44295387  0.75725826  0.61500893  1
