# generated using pymatgen
data_Gd2Al7N9
_symmetry_space_group_name_H-M   'P 1'
_cell_length_a   9.98281435
_cell_length_b   9.84582661
_cell_length_c   10.34060641
_cell_angle_alpha   90.04264092
_cell_angle_beta   89.96044328
_cell_angle_gamma   60.24749061
_symmetry_Int_Tables_number   1
_chemical_formula_structural   Gd2Al7N9
_chemical_formula_sum   'Gd8 Al28 N36'
_cell_volume   882.38691442
_cell_formula_units_Z   4
loop_
 _symmetry_equiv_pos_site_id
 _symmetry_equiv_pos_as_xyz
  1  'x, y, z'
loop_
 _atom_site_type_symbol
 _atom_site_label
 _atom_site_symmetry_multiplicity
 _atom_site_fract_x
 _atom_site_fract_y
 _atom_site_fract_z
 _atom_site_occupancy
  Al  Al0  1  0.10721415  0.09528052  0.30048277  1
  Al  Al1  1  0.21779371  0.20958385  0.05592010  1
  Al  Al2  1  0.52607201  0.21755730  0.05879740  1
  Al  Al3  1  0.12713685  0.08580626  0.81758286  1
  Al  Al4  1  0.22432912  0.20550266  0.57105657  1
  Al  Al5  1  0.77145218  0.09938931  0.28595691  1
  Al  Al6  1  0.90347899  0.20211312  0.06935960  1
  Al  Al7  1  0.42792661  0.11253742  0.80402679  1
  Al  Al8  1  0.55566320  0.21598373  0.55987645  1
  Al  Al9  1  0.10673540  0.42858447  0.30151174  1
  Al  Al10  1  0.21632713  0.53638485  0.06143808  1
  Al  Al11  1  0.43724338  0.42785773  0.31726880  1
  Al  Al12  1  0.12544420  0.42672412  0.81654038  1
  Al  Al13  1  0.23424384  0.53445640  0.56308293  1
  Al  Al14  1  0.78101769  0.43018549  0.29079917  1
  Al  Al15  1  0.90754632  0.53391715  0.05914535  1
  Al  Al16  1  0.42600282  0.43860199  0.80306394  1
  Al  Al17  1  0.54870949  0.54209001  0.54930160  1
  Al  Al18  1  0.11286131  0.76161406  0.30222652  1
  Al  Al19  1  0.21291638  0.87667529  0.06023055  1
  Al  Al20  1  0.79609321  0.75350617  0.81518958  1
  Al  Al21  1  0.43973817  0.76147335  0.31520474  1
  Al  Al22  1  0.12521947  0.75202706  0.81621189  1
  Al  Al23  1  0.23410985  0.86734284  0.56300095  1
  Al  Al24  1  0.78329543  0.75481858  0.28938945  1
  Al  Al25  1  0.90269842  0.85919461  0.06222249  1
  Al  Al26  1  0.42770241  0.76152842  0.79950712  1
  Al  Al27  1  0.55205245  0.87384754  0.62049869  1
  Gd  Gd28  1  0.77069436  0.09591458  0.83877792  1
  Gd  Gd29  1  0.90177276  0.19725224  0.54165529  1
  Gd  Gd30  1  0.43712740  0.09444082  0.33469393  1
  Gd  Gd31  1  0.77589748  0.43327664  0.82006514  1
  Gd  Gd32  1  0.90156237  0.53488487  0.55049239  1
  Gd  Gd33  1  0.53879651  0.53637446  0.07401512  1
  Gd  Gd34  1  0.89592203  0.87023699  0.55467417  1
  Gd  Gd35  1  0.55074643  0.87151397  0.05644691  1
  N  N36  1  0.17437682  0.22715064  0.38654581  1
  N  N37  1  0.11833656  0.09216221  0.11689803  1
  N  N38  1  0.92615726  0.18880137  0.88439823  1
  N  N39  1  0.75613114  0.10954538  0.62200035  1
  N  N40  1  0.57329712  0.21757923  0.37399105  1
  N  N41  1  0.42286165  0.11585358  0.11480318  1
  N  N42  1  0.22234098  0.20642598  0.86961043  1
  N  N43  1  0.14578076  0.07594839  0.63416049  1
  N  N44  1  0.88506394  0.20496754  0.32011078  1
  N  N45  1  0.76413958  0.09886549  0.09591140  1
  N  N46  1  0.51132633  0.23239272  0.87372636  1
  N  N47  1  0.44437644  0.10093603  0.60758260  1
  N  N48  1  0.21379623  0.54163511  0.37280203  1
  N  N49  1  0.11541014  0.42308449  0.11569305  1
  N  N50  1  0.91412260  0.54478047  0.87110554  1
  N  N51  1  0.75488779  0.43798974  0.60173712  1
  N  N52  1  0.55110746  0.53813671  0.35463139  1
  N  N53  1  0.41549896  0.41560729  0.13649658  1
  N  N54  1  0.22391073  0.54020322  0.87542907  1
  N  N55  1  0.14721542  0.41386806  0.63377962  1
  N  N56  1  0.89057519  0.53895777  0.33446738  1
  N  N57  1  0.79940475  0.42356001  0.10276937  1
  N  N58  1  0.51962343  0.55543490  0.85763220  1
  N  N59  1  0.44501759  0.43083634  0.61281861  1
  N  N60  1  0.21301199  0.87880011  0.37434830  1
  N  N61  1  0.11523304  0.75847008  0.11642624  1
  N  N62  1  0.91481762  0.84216555  0.87352380  1
  N  N63  1  0.76442032  0.76820017  0.63542672  1
  N  N64  1  0.57717221  0.83849010  0.34259541  1
  N  N65  1  0.40588471  0.77963233  0.13586325  1
  N  N66  1  0.22520429  0.87062803  0.87371211  1
  N  N67  1  0.14575471  0.74530847  0.63025255  1
  N  N68  1  0.88759096  0.87621616  0.33328661  1
  N  N69  1  0.80489995  0.74642519  0.10732579  1
  N  N70  1  0.54693224  0.87838773  0.82741093  1
  N  N71  1  0.44544392  0.75790477  0.61147220  1
