# generated using pymatgen
data_Gd2Al7N9
_symmetry_space_group_name_H-M   'P 1'
_cell_length_a   10.00622162
_cell_length_b   9.87308975
_cell_length_c   10.44664322
_cell_angle_alpha   90.18926783
_cell_angle_beta   90.48994078
_cell_angle_gamma   60.66350181
_symmetry_Int_Tables_number   1
_chemical_formula_structural   Gd2Al7N9
_chemical_formula_sum   'Gd8 Al28 N36'
_cell_volume   899.66221534
_cell_formula_units_Z   4
loop_
 _symmetry_equiv_pos_site_id
 _symmetry_equiv_pos_as_xyz
  1  'x, y, z'
loop_
 _atom_site_type_symbol
 _atom_site_label
 _atom_site_symmetry_multiplicity
 _atom_site_fract_x
 _atom_site_fract_y
 _atom_site_fract_z
 _atom_site_occupancy
  Al  Al0  1  0.12568255  0.08698672  0.38756753  1
  Al  Al1  1  0.21399630  0.21394817  0.14150019  1
  Al  Al2  1  0.53557818  0.22207464  0.13799455  1
  Al  Al3  1  0.11476824  0.09376341  0.89332249  1
  Al  Al4  1  0.22861323  0.19921628  0.64759464  1
  Al  Al5  1  0.78811015  0.08892034  0.30370420  1
  Al  Al6  1  0.90774665  0.19787558  0.12638537  1
  Al  Al7  1  0.41756015  0.11703111  0.89512688  1
  Al  Al8  1  0.52677431  0.22064239  0.66090563  1
  Al  Al9  1  0.12639929  0.41883291  0.39194410  1
  Al  Al10  1  0.22052389  0.52967059  0.14599303  1
  Al  Al11  1  0.45562073  0.42681798  0.40095476  1
  Al  Al12  1  0.11793756  0.42515267  0.89286369  1
  Al  Al13  1  0.23178350  0.52636507  0.64046052  1
  Al  Al14  1  0.79712330  0.42427603  0.31990014  1
  Al  Al15  1  0.90949134  0.53359233  0.07657259  1
  Al  Al16  1  0.40696368  0.44385993  0.89363254  1
  Al  Al17  1  0.52199604  0.55504525  0.65390625  1
  Al  Al18  1  0.11954640  0.75825629  0.32390994  1
  Al  Al19  1  0.21905127  0.88203163  0.14545794  1
  Al  Al20  1  0.78812703  0.75753309  0.84071484  1
  Al  Al21  1  0.46241453  0.75116560  0.40530277  1
  Al  Al22  1  0.11496361  0.75802720  0.81864810  1
  Al  Al23  1  0.23069483  0.87671062  0.63921949  1
  Al  Al24  1  0.80179577  0.74209526  0.31093007  1
  Al  Al25  1  0.91990860  0.84776431  0.07666254  1
  Al  Al26  1  0.41097428  0.77648955  0.89118133  1
  Al  Al27  1  0.53851880  0.88081791  0.67063097  1
  Gd  Gd28  1  0.76328662  0.09465935  0.87095335  1
  Gd  Gd29  1  0.87683184  0.21127640  0.60092340  1
  Gd  Gd30  1  0.45441992  0.08738051  0.39568221  1
  Gd  Gd31  1  0.75458404  0.43998437  0.86890140  1
  Gd  Gd32  1  0.88182813  0.54103900  0.59535622  1
  Gd  Gd33  1  0.53766012  0.54594642  0.14153593  1
  Gd  Gd34  1  0.88150099  0.87576802  0.57485919  1
  Gd  Gd35  1  0.56287759  0.87268597  0.10650493  1
  N  N36  1  0.20515612  0.21429509  0.32241628  1
  N  N37  1  0.11669190  0.09305268  0.08289880  1
  N  N38  1  0.91251606  0.19375585  0.84645037  1
  N  N39  1  0.73746958  0.10821347  0.64494381  1
  N  N40  1  0.57021414  0.22268454  0.31878850  1
  N  N41  1  0.42215409  0.12647781  0.08393508  1
  N  N42  1  0.21094684  0.21029306  0.83482175  1
  N  N43  1  0.14248490  0.08142837  0.57070560  1
  N  N44  1  0.90295726  0.19617472  0.33920123  1
  N  N45  1  0.78488781  0.08903091  0.11366563  1
  N  N46  1  0.50248534  0.23736820  0.84002860  1
  N  N47  1  0.44228486  0.09006567  0.61322718  1
  N  N48  1  0.23514433  0.52839916  0.33388884  1
  N  N49  1  0.12244206  0.42119811  0.08034679  1
  N  N50  1  0.90030854  0.54838053  0.88739832  1
  N  N51  1  0.73369739  0.45180367  0.65124868  1
  N  N52  1  0.56813740  0.53341337  0.35757335  1
  N  N53  1  0.41850902  0.42387912  0.07487636  1
  N  N54  1  0.20853046  0.53709089  0.82638871  1
  N  N55  1  0.14820412  0.40332369  0.57630946  1
  N  N56  1  0.90301860  0.53239820  0.37206284  1
  N  N57  1  0.80477809  0.42015577  0.12547300  1
  N  N58  1  0.49070653  0.56904479  0.83897494  1
  N  N59  1  0.43978033  0.42733362  0.58415595  1
  N  N60  1  0.23923391  0.86900399  0.33393053  1
  N  N61  1  0.12149652  0.75654633  0.13711873  1
  N  N62  1  0.91661623  0.83895787  0.89268152  1
  N  N63  1  0.75075322  0.77768169  0.66416332  1
  N  N64  1  0.58306551  0.83579973  0.33371378  1
  N  N65  1  0.40605080  0.78171003  0.06838920  1
  N  N66  1  0.21229364  0.88869754  0.82600903  1
  N  N67  1  0.13417245  0.74975303  0.63019514  1
  N  N68  1  0.89521755  0.87223816  0.35588532  1
  N  N69  1  0.82373675  0.73690258  0.13107652  1
  N  N70  1  0.54186266  0.88191637  0.86211733  1
  N  N71  1  0.44298973  0.76689886  0.59199781  1
