# generated using pymatgen
data_Gd2Al7N9
_symmetry_space_group_name_H-M   'P 1'
_cell_length_a   9.92637460
_cell_length_b   9.82934292
_cell_length_c   10.33777806
_cell_angle_alpha   90.13782866
_cell_angle_beta   89.91291390
_cell_angle_gamma   60.58864268
_symmetry_Int_Tables_number   1
_chemical_formula_structural   Gd2Al7N9
_chemical_formula_sum   'Gd8 Al28 N36'
_cell_volume   878.64863719
_cell_formula_units_Z   4
loop_
 _symmetry_equiv_pos_site_id
 _symmetry_equiv_pos_as_xyz
  1  'x, y, z'
loop_
 _atom_site_type_symbol
 _atom_site_label
 _atom_site_symmetry_multiplicity
 _atom_site_fract_x
 _atom_site_fract_y
 _atom_site_fract_z
 _atom_site_occupancy
  Al  Al0  1  0.12159887  0.08958118  0.40099638  1
  Al  Al1  1  0.21231053  0.21468545  0.15019606  1
  Al  Al2  1  0.53476824  0.22267977  0.15960967  1
  Al  Al3  1  0.11477076  0.08988195  0.91109900  1
  Al  Al4  1  0.23194235  0.19844682  0.66658290  1
  Al  Al5  1  0.76636542  0.10420021  0.38605810  1
  Al  Al6  1  0.90010665  0.20282232  0.17844862  1
  Al  Al7  1  0.43082540  0.11014189  0.89746591  1
  Al  Al8  1  0.54074049  0.21676489  0.66319665  1
  Al  Al9  1  0.12128851  0.42289538  0.40104544  1
  Al  Al10  1  0.21725873  0.53906662  0.15501252  1
  Al  Al11  1  0.43952408  0.43368894  0.41795357  1
  Al  Al12  1  0.11497944  0.43026043  0.91392998  1
  Al  Al13  1  0.23433368  0.53300340  0.65567015  1
  Al  Al14  1  0.76992394  0.43553538  0.40963038  1
  Al  Al15  1  0.90549093  0.53210976  0.17043453  1
  Al  Al16  1  0.42374301  0.43792096  0.90133653  1
  Al  Al17  1  0.53896160  0.54704314  0.65379372  1
  Al  Al18  1  0.12595428  0.75342550  0.40287878  1
  Al  Al19  1  0.21269445  0.87730144  0.15534540  1
  Al  Al20  1  0.80051514  0.74886020  0.91865987  1
  Al  Al21  1  0.44399360  0.76112378  0.42187768  1
  Al  Al22  1  0.11430434  0.75704142  0.90936741  1
  Al  Al23  1  0.23337140  0.86766639  0.65481901  1
  Al  Al24  1  0.77154214  0.75864770  0.40383853  1
  Al  Al25  1  0.90195682  0.86209356  0.17271572  1
  Al  Al26  1  0.42531309  0.76667058  0.89809407  1
  Al  Al27  1  0.55174058  0.87140493  0.67417320  1
  Gd  Gd28  1  0.77135179  0.09085174  0.92564819  1
  Gd  Gd29  1  0.89407243  0.19742323  0.63088663  1
  Gd  Gd30  1  0.44100939  0.09582065  0.42143529  1
  Gd  Gd31  1  0.77260315  0.43290645  0.91086576  1
  Gd  Gd32  1  0.90238582  0.53811599  0.64306988  1
  Gd  Gd33  1  0.54291321  0.54288038  0.16614625  1
  Gd  Gd34  1  0.88943706  0.87487255  0.63731162  1
  Gd  Gd35  1  0.55375723  0.87656741  0.13310328  1
  N  N36  1  0.19973204  0.21696055  0.33259638  1
  N  N37  1  0.10733085  0.09435060  0.10147907  1
  N  N38  1  0.91184933  0.18853450  0.84888233  1
  N  N39  1  0.73052744  0.11561363  0.57373607  1
  N  N40  1  0.55124166  0.23274290  0.33930833  1
  N  N41  1  0.42285437  0.12905478  0.08873418  1
  N  N42  1  0.21259749  0.21043758  0.85430201  1
  N  N43  1  0.15442560  0.07517470  0.58366896  1
  N  N44  1  0.89543827  0.20435680  0.36833176  1
  N  N45  1  0.77838229  0.09366505  0.14581053  1
  N  N46  1  0.52869050  0.22706378  0.84523919  1
  N  N47  1  0.44592288  0.08895454  0.64123105  1
  N  N48  1  0.22672031  0.53780623  0.34271917  1
  N  N49  1  0.11070997  0.43032376  0.10126015  1
  N  N50  1  0.90767006  0.54430315  0.85957138  1
  N  N51  1  0.74772001  0.44619747  0.59729582  1
  N  N52  1  0.54748394  0.54457751  0.38075653  1
  N  N53  1  0.42249540  0.42391279  0.08540588  1
  N  N54  1  0.21433576  0.54279064  0.84525840  1
  N  N55  1  0.15797459  0.39974547  0.58417492  1
  N  N56  1  0.89639645  0.53744808  0.36405071  1
  N  N57  1  0.80269995  0.41644404  0.13135176  1
  N  N58  1  0.52013372  0.55485737  0.84182166  1
  N  N59  1  0.44125274  0.42768470  0.60199879  1
  N  N60  1  0.22779062  0.86995942  0.34402430  1
  N  N61  1  0.11061702  0.76172102  0.10231868  1
  N  N62  1  0.90492938  0.84887740  0.85683847  1
  N  N63  1  0.74171730  0.77875019  0.58547404  1
  N  N64  1  0.56293554  0.84594463  0.35004069  1
  N  N65  1  0.40693567  0.77600017  0.07780209  1
  N  N66  1  0.21319893  0.87745743  0.84267837  1
  N  N67  1  0.14831795  0.74218147  0.58612162  1
  N  N68  1  0.89511378  0.86549878  0.36160547  1
  N  N69  1  0.81414049  0.74198179  0.10490358  1
  N  N70  1  0.56335480  0.86645816  0.86695436  1
  N  N71  1  0.44430102  0.76567578  0.60953038  1
