# generated using pymatgen
data_Gd2Al7N9
_symmetry_space_group_name_H-M   'P 1'
_cell_length_a   9.94837146
_cell_length_b   9.85622298
_cell_length_c   10.59830538
_cell_angle_alpha   90.25910619
_cell_angle_beta   90.22066130
_cell_angle_gamma   60.45493769
_symmetry_Int_Tables_number   1
_chemical_formula_structural   Gd2Al7N9
_chemical_formula_sum   'Gd8 Al28 N36'
_cell_volume   904.05967193
_cell_formula_units_Z   4
loop_
 _symmetry_equiv_pos_site_id
 _symmetry_equiv_pos_as_xyz
  1  'x, y, z'
loop_
 _atom_site_type_symbol
 _atom_site_label
 _atom_site_symmetry_multiplicity
 _atom_site_fract_x
 _atom_site_fract_y
 _atom_site_fract_z
 _atom_site_occupancy
  Al  Al0  1  0.12724412  0.08499283  0.38547661  1
  Al  Al1  1  0.21544716  0.21329442  0.14422409  1
  Al  Al2  1  0.53991778  0.21941803  0.13710525  1
  Al  Al3  1  0.11919649  0.09250637  0.90012692  1
  Al  Al4  1  0.22561321  0.19999015  0.64718102  1
  Al  Al5  1  0.79395808  0.08966546  0.29703782  1
  Al  Al6  1  0.90376158  0.20011989  0.08393779  1
  Al  Al7  1  0.41611859  0.11763515  0.89538482  1
  Al  Al8  1  0.52796005  0.21845276  0.66058770  1
  Al  Al9  1  0.12862241  0.41963374  0.39003000  1
  Al  Al10  1  0.21951642  0.53233633  0.12778729  1
  Al  Al11  1  0.45785846  0.42620216  0.40051531  1
  Al  Al12  1  0.11411081  0.42568026  0.89346343  1
  Al  Al13  1  0.23246724  0.52693743  0.63307818  1
  Al  Al14  1  0.80442846  0.41803709  0.31350645  1
  Al  Al15  1  0.90553115  0.53456404  0.07655421  1
  Al  Al16  1  0.40958434  0.44296245  0.89113307  1
  Al  Al17  1  0.52325629  0.55478914  0.65200590  1
  Al  Al18  1  0.12167722  0.75373849  0.31901438  1
  Al  Al19  1  0.22070822  0.88145004  0.14581978  1
  Al  Al20  1  0.78614420  0.75881374  0.83929863  1
  Al  Al21  1  0.46311157  0.75062877  0.40582367  1
  Al  Al22  1  0.11360414  0.75642348  0.82019512  1
  Al  Al23  1  0.22823255  0.87816857  0.64159015  1
  Al  Al24  1  0.80282800  0.74255497  0.30839789  1
  Al  Al25  1  0.91569621  0.85165897  0.07506725  1
  Al  Al26  1  0.40903407  0.77691060  0.89051497  1
  Al  Al27  1  0.53746742  0.88166595  0.67082148  1
  Gd  Gd28  1  0.76302179  0.09431371  0.86498682  1
  Gd  Gd29  1  0.86651052  0.21646483  0.57135149  1
  Gd  Gd30  1  0.45836635  0.08755890  0.39634145  1
  Gd  Gd31  1  0.75045011  0.44533717  0.86415648  1
  Gd  Gd32  1  0.87815551  0.54331774  0.58746709  1
  Gd  Gd33  1  0.53652526  0.54562010  0.14860257  1
  Gd  Gd34  1  0.88397572  0.87407190  0.57169973  1
  Gd  Gd35  1  0.56100336  0.87270440  0.10722411  1
  N  N36  1  0.20886893  0.21278054  0.32351913  1
  N  N37  1  0.12464065  0.08993265  0.08752964  1
  N  N38  1  0.90692401  0.19938228  0.90207310  1
  N  N39  1  0.74336208  0.10692955  0.64704342  1
  N  N40  1  0.57235432  0.22326836  0.31622637  1
  N  N41  1  0.42328539  0.12728599  0.08118249  1
  N  N42  1  0.20757824  0.21118632  0.83263778  1
  N  N43  1  0.13617678  0.08317344  0.57113384  1
  N  N44  1  0.90247969  0.19618423  0.35025803  1
  N  N45  1  0.78364043  0.08710017  0.11271227  1
  N  N46  1  0.50179760  0.23611559  0.83664917  1
  N  N47  1  0.44172151  0.09009387  0.61165802  1
  N  N48  1  0.23786390  0.52951586  0.33831245  1
  N  N49  1  0.12057146  0.41940910  0.07911478  1
  N  N50  1  0.89567445  0.55205277  0.89127417  1
  N  N51  1  0.73911714  0.44645714  0.65357874  1
  N  N52  1  0.57295685  0.53134609  0.36165811  1
  N  N53  1  0.42480292  0.42091557  0.06998710  1
  N  N54  1  0.20678252  0.53854634  0.83499256  1
  N  N55  1  0.14577606  0.40463102  0.57526125  1
  N  N56  1  0.90481246  0.53196713  0.36874514  1
  N  N57  1  0.80277853  0.42036478  0.12749121  1
  N  N58  1  0.48764345  0.57164837  0.83249937  1
  N  N59  1  0.44445429  0.42372761  0.58276992  1
  N  N60  1  0.24134750  0.86581166  0.33194809  1
  N  N61  1  0.12074720  0.75678716  0.13440265  1
  N  N62  1  0.91325041  0.84035828  0.89386400  1
  N  N63  1  0.75196449  0.77809045  0.66464344  1
  N  N64  1  0.58210104  0.83629956  0.33201319  1
  N  N65  1  0.40787474  0.77682140  0.06509487  1
  N  N66  1  0.20760455  0.89220430  0.82575459  1
  N  N67  1  0.13437837  0.74823268  0.63485492  1
  N  N68  1  0.89682973  0.87210403  0.35479425  1
  N  N69  1  0.82265915  0.73813634  0.13142728  1
  N  N70  1  0.53919464  0.88309672  0.86020306  1
  N  N71  1  0.44267940  0.76746919  0.59104830  1
