# generated using pymatgen
data_Gd2Al7N9
_symmetry_space_group_name_H-M   'P 1'
_cell_length_a   9.89086621
_cell_length_b   9.82635642
_cell_length_c   10.80603273
_cell_angle_alpha   90.00303619
_cell_angle_beta   89.45848086
_cell_angle_gamma   60.16354476
_symmetry_Int_Tables_number   1
_chemical_formula_structural   Gd2Al7N9
_chemical_formula_sum   'Gd8 Al28 N36'
_cell_volume   910.98490695
_cell_formula_units_Z   4
loop_
 _symmetry_equiv_pos_site_id
 _symmetry_equiv_pos_as_xyz
  1  'x, y, z'
loop_
 _atom_site_type_symbol
 _atom_site_label
 _atom_site_symmetry_multiplicity
 _atom_site_fract_x
 _atom_site_fract_y
 _atom_site_fract_z
 _atom_site_occupancy
  Al  Al0  1  0.12110123  0.08229631  0.34358888  1
  Al  Al1  1  0.22092220  0.20885477  0.14216314  1
  Al  Al2  1  0.53981375  0.21764148  0.13708668  1
  Al  Al3  1  0.11174050  0.10038870  0.90078367  1
  Al  Al4  1  0.22584218  0.19440399  0.66205874  1
  Al  Al5  1  0.78961233  0.08761790  0.29594963  1
  Al  Al6  1  0.89752298  0.20399558  0.08942201  1
  Al  Al7  1  0.41860534  0.11544140  0.89772949  1
  Al  Al8  1  0.52697024  0.21906148  0.66125773  1
  Al  Al9  1  0.11694517  0.43370220  0.31574616  1
  Al  Al10  1  0.21072235  0.54191805  0.06962252  1
  Al  Al11  1  0.46514197  0.42090948  0.40382410  1
  Al  Al12  1  0.11423104  0.43718383  0.82955691  1
  Al  Al13  1  0.22899671  0.53502996  0.57711928  1
  Al  Al14  1  0.80258878  0.42021232  0.31004040  1
  Al  Al15  1  0.91299484  0.53258300  0.07553718  1
  Al  Al16  1  0.41789461  0.44050807  0.89158071  1
  Al  Al17  1  0.52690565  0.55201299  0.65147013  1
  Al  Al18  1  0.12354738  0.75469657  0.32007451  1
  Al  Al19  1  0.20762568  0.87216759  0.07009162  1
  Al  Al20  1  0.78804321  0.75714215  0.83921558  1
  Al  Al21  1  0.47355717  0.74354809  0.40940365  1
  Al  Al22  1  0.11848005  0.75653924  0.82436723  1
  Al  Al23  1  0.22794424  0.87301707  0.57305442  1
  Al  Al24  1  0.80119601  0.74582034  0.30760004  1
  Al  Al25  1  0.90982157  0.85504159  0.07465959  1
  Al  Al26  1  0.41836703  0.77212504  0.89000265  1
  Al  Al27  1  0.54038584  0.87862307  0.67096703  1
  Gd  Gd28  1  0.76368144  0.09783456  0.86105655  1
  Gd  Gd29  1  0.86872482  0.21423677  0.56230793  1
  Gd  Gd30  1  0.45190406  0.09000493  0.40302744  1
  Gd  Gd31  1  0.75629562  0.44810782  0.85906726  1
  Gd  Gd32  1  0.88867378  0.53681945  0.57835920  1
  Gd  Gd33  1  0.53599770  0.54124194  0.15239143  1
  Gd  Gd34  1  0.88832449  0.87116797  0.57476339  1
  Gd  Gd35  1  0.55831625  0.87196348  0.11577968  1
  N  N36  1  0.21189166  0.20828788  0.32061686  1
  N  N37  1  0.12025098  0.08950781  0.10523482  1
  N  N38  1  0.90142050  0.20568939  0.91365133  1
  N  N39  1  0.74630525  0.10476330  0.64831385  1
  N  N40  1  0.56564262  0.22402679  0.31470667  1
  N  N41  1  0.42478738  0.12618613  0.07640966  1
  N  N42  1  0.21046431  0.20737126  0.84393139  1
  N  N43  1  0.12677978  0.09099074  0.59507930  1
  N  N44  1  0.89842254  0.19620248  0.34208005  1
  N  N45  1  0.78071186  0.08635902  0.11551612  1
  N  N46  1  0.49918274  0.23734142  0.83325611  1
  N  N47  1  0.44062115  0.09054471  0.61421244  1
  N  N48  1  0.22402651  0.53830402  0.38830040  1
  N  N49  1  0.11780857  0.43169545  0.13600965  1
  N  N50  1  0.90691446  0.54891296  0.89663586  1
  N  N51  1  0.74738027  0.44307971  0.65171449  1
  N  N52  1  0.57604751  0.52791340  0.36194788  1
  N  N53  1  0.43229601  0.41579013  0.06778804  1
  N  N54  1  0.20170236  0.55320869  0.89291667  1
  N  N55  1  0.13890542  0.42138716  0.65109745  1
  N  N56  1  0.90273533  0.53285075  0.36481947  1
  N  N57  1  0.80256472  0.42405866  0.12911439  1
  N  N58  1  0.49063405  0.57023260  0.82645868  1
  N  N59  1  0.45154070  0.41917067  0.58051989  1
  N  N60  1  0.23332952  0.86017038  0.38378151  1
  N  N61  1  0.12170499  0.75454608  0.13902500  1
  N  N62  1  0.90804517  0.84443741  0.89505643  1
  N  N63  1  0.75890582  0.76977939  0.66583393  1
  N  N64  1  0.57920058  0.83926311  0.33342572  1
  N  N65  1  0.42092460  0.76557209  0.06425382  1
  N  N66  1  0.19757969  0.88385014  0.88769543  1
  N  N67  1  0.14429324  0.74591433  0.64399633  1
  N  N68  1  0.89375596  0.87315743  0.35782989  1
  N  N69  1  0.82021339  0.73973398  0.13236216  1
  N  N70  1  0.53991384  0.88047675  0.85666807  1
  N  N71  1  0.45154931  0.76332846  0.58922813  1
