# generated using pymatgen
data_Gd2Al7N9
_symmetry_space_group_name_H-M   'P 1'
_cell_length_a   9.93464850
_cell_length_b   9.81490436
_cell_length_c   10.65021074
_cell_angle_alpha   90.14037216
_cell_angle_beta   89.59962965
_cell_angle_gamma   60.20869024
_symmetry_Int_Tables_number   1
_chemical_formula_structural   Gd2Al7N9
_chemical_formula_sum   'Gd8 Al28 N36'
_cell_volume   901.18953379
_cell_formula_units_Z   4
loop_
 _symmetry_equiv_pos_site_id
 _symmetry_equiv_pos_as_xyz
  1  'x, y, z'
loop_
 _atom_site_type_symbol
 _atom_site_label
 _atom_site_symmetry_multiplicity
 _atom_site_fract_x
 _atom_site_fract_y
 _atom_site_fract_z
 _atom_site_occupancy
  Al  Al0  1  0.11695505  0.09006506  0.30402851  1
  Al  Al1  1  0.21249799  0.21319846  0.05680439  1
  Al  Al2  1  0.54231476  0.21829015  0.11659756  1
  Al  Al3  1  0.11587987  0.09328060  0.81151093  1
  Al  Al4  1  0.22279877  0.20310409  0.56817000  1
  Al  Al5  1  0.78988291  0.09309446  0.27723486  1
  Al  Al6  1  0.90952347  0.19881887  0.06355372  1
  Al  Al7  1  0.42438157  0.11081587  0.87551406  1
  Al  Al8  1  0.52853400  0.21771375  0.63653500  1
  Al  Al9  1  0.11592592  0.42637758  0.30517142  1
  Al  Al10  1  0.21062836  0.54065512  0.05483038  1
  Al  Al11  1  0.46202216  0.42483303  0.38241786  1
  Al  Al12  1  0.11976476  0.42654600  0.81131293  1
  Al  Al13  1  0.22875636  0.53459468  0.55844232  1
  Al  Al14  1  0.79729097  0.42224491  0.29222106  1
  Al  Al15  1  0.91591305  0.52978674  0.05754153  1
  Al  Al16  1  0.41587168  0.43939833  0.87082479  1
  Al  Al17  1  0.53006382  0.54858520  0.63115518  1
  Al  Al18  1  0.12075194  0.75915515  0.30321133  1
  Al  Al19  1  0.20423172  0.88197150  0.04987728  1
  Al  Al20  1  0.79013990  0.75489962  0.81831345  1
  Al  Al21  1  0.46744112  0.74845869  0.38851886  1
  Al  Al22  1  0.11747111  0.75457365  0.80757577  1
  Al  Al23  1  0.22908066  0.87004812  0.56252639  1
  Al  Al24  1  0.79991921  0.74649303  0.28730318  1
  Al  Al25  1  0.91238756  0.85504457  0.05614468  1
  Al  Al26  1  0.41700544  0.77070906  0.86932965  1
  Al  Al27  1  0.53853657  0.88042742  0.64728509  1
  Gd  Gd28  1  0.76324181  0.09865442  0.84491604  1
  Gd  Gd29  1  0.88358626  0.20562676  0.54947496  1
  Gd  Gd30  1  0.45855941  0.08821443  0.36726141  1
  Gd  Gd31  1  0.76106799  0.44233619  0.84154289  1
  Gd  Gd32  1  0.88810340  0.53715310  0.55917964  1
  Gd  Gd33  1  0.53812297  0.54072133  0.12667907  1
  Gd  Gd34  1  0.88704889  0.87173342  0.55542889  1
  Gd  Gd35  1  0.56391299  0.86650694  0.08887562  1
  N  N36  1  0.19168427  0.22000373  0.38014737  1
  N  N37  1  0.12252706  0.08947862  0.12132418  1
  N  N38  1  0.91782609  0.19459023  0.88537379  1
  N  N39  1  0.74766344  0.10761123  0.62715229  1
  N  N40  1  0.56811851  0.22883641  0.29333930  1
  N  N41  1  0.43226751  0.12095691  0.06307098  1
  N  N42  1  0.20625295  0.21326551  0.87449565  1
  N  N43  1  0.13559340  0.08090161  0.63106821  1
  N  N44  1  0.89348766  0.20185800  0.33022641  1
  N  N45  1  0.78496405  0.08815246  0.09292897  1
  N  N46  1  0.49900515  0.23546636  0.81055407  1
  N  N47  1  0.44503570  0.08858756  0.58120024  1
  N  N48  1  0.22033219  0.54112637  0.36928373  1
  N  N49  1  0.12184274  0.42116841  0.12245361  1
  N  N50  1  0.90882232  0.54641511  0.87440121  1
  N  N51  1  0.74928102  0.43909181  0.62904010  1
  N  N52  1  0.56844014  0.53416072  0.33857418  1
  N  N53  1  0.43004039  0.41567029  0.04873560  1
  N  N54  1  0.20043084  0.55075976  0.87457639  1
  N  N55  1  0.14200079  0.41389959  0.63098768  1
  N  N56  1  0.89774292  0.53598761  0.34416335  1
  N  N57  1  0.80499036  0.42059887  0.10491076  1
  N  N58  1  0.49498579  0.56550534  0.80914730  1
  N  N59  1  0.44983531  0.42073366  0.56101590  1
  N  N60  1  0.22262682  0.87322556  0.37347131  1
  N  N61  1  0.12261622  0.75695727  0.11989691  1
  N  N62  1  0.90743514  0.84484029  0.87360388  1
  N  N63  1  0.75617439  0.77113729  0.64384423  1
  N  N64  1  0.57874070  0.83601541  0.30915220  1
  N  N65  1  0.41668302  0.76947337  0.04563763  1
  N  N66  1  0.19770096  0.88421555  0.86711740  1
  N  N67  1  0.14251061  0.74453851  0.62642365  1
  N  N68  1  0.88985353  0.87692398  0.33735074  1
  N  N69  1  0.82487956  0.73734337  0.11089940  1
  N  N70  1  0.53833935  0.88113194  0.83511144  1
  N  N71  1  0.45137124  0.76172854  0.57120652  1
