# generated using pymatgen
data_Gd2Al7N9
_symmetry_space_group_name_H-M   'P 1'
_cell_length_a   10.01636543
_cell_length_b   9.85002500
_cell_length_c   10.32439596
_cell_angle_alpha   90.01856151
_cell_angle_beta   90.07941354
_cell_angle_gamma   60.25985693
_symmetry_Int_Tables_number   1
_chemical_formula_structural   Gd2Al7N9
_chemical_formula_sum   'Gd8 Al28 N36'
_cell_volume   884.45058416
_cell_formula_units_Z   4
loop_
 _symmetry_equiv_pos_site_id
 _symmetry_equiv_pos_as_xyz
  1  'x, y, z'
loop_
 _atom_site_type_symbol
 _atom_site_label
 _atom_site_symmetry_multiplicity
 _atom_site_fract_x
 _atom_site_fract_y
 _atom_site_fract_z
 _atom_site_occupancy
  Al  Al0  1  0.10872077  0.09502758  0.30110401  1
  Al  Al1  1  0.21844900  0.20932798  0.05737128  1
  Al  Al2  1  0.52524401  0.21785616  0.06069462  1
  Al  Al3  1  0.12528024  0.08705035  0.81724760  1
  Al  Al4  1  0.22353272  0.20566146  0.57087494  1
  Al  Al5  1  0.77301933  0.09893623  0.28639578  1
  Al  Al6  1  0.90485677  0.20261552  0.06951534  1
  Al  Al7  1  0.42569898  0.11385635  0.80782330  1
  Al  Al8  1  0.55426155  0.21672294  0.56224281  1
  Al  Al9  1  0.10900146  0.42768635  0.30225774  1
  Al  Al10  1  0.21677672  0.53684036  0.06169508  1
  Al  Al11  1  0.43837509  0.42733455  0.31783388  1
  Al  Al12  1  0.12538631  0.42656700  0.81616196  1
  Al  Al13  1  0.23347579  0.53511158  0.56230294  1
  Al  Al14  1  0.78329540  0.43018043  0.29141737  1
  Al  Al15  1  0.91038361  0.53216871  0.05814790  1
  Al  Al16  1  0.42431803  0.43929499  0.80376993  1
  Al  Al17  1  0.54745928  0.54356489  0.54986430  1
  Al  Al18  1  0.11417472  0.76136201  0.30290083  1
  Al  Al19  1  0.21170515  0.87671578  0.05926543  1
  Al  Al20  1  0.79701580  0.75282693  0.81818230  1
  Al  Al21  1  0.43986827  0.76038814  0.31143351  1
  Al  Al22  1  0.12384627  0.75276626  0.81474921  1
  Al  Al23  1  0.23376452  0.86800142  0.56265248  1
  Al  Al24  1  0.78807756  0.75254149  0.28638907  1
  Al  Al25  1  0.90481474  0.85857362  0.06133612  1
  Al  Al26  1  0.42471564  0.76161220  0.80287097  1
  Al  Al27  1  0.54983151  0.87477779  0.63291457  1
  Gd  Gd28  1  0.76880190  0.09744299  0.84138350  1
  Gd  Gd29  1  0.89905284  0.19770358  0.54307674  1
  Gd  Gd30  1  0.44039946  0.09151308  0.33810831  1
  Gd  Gd31  1  0.77387431  0.43486174  0.82032854  1
  Gd  Gd32  1  0.90023521  0.53586646  0.55243848  1
  Gd  Gd33  1  0.54118573  0.53394945  0.07466747  1
  Gd  Gd34  1  0.89249161  0.87124691  0.55662549  1
  Gd  Gd35  1  0.55219955  0.87030592  0.06396551  1
  N  N36  1  0.17750077  0.22570184  0.38566980  1
  N  N37  1  0.11874813  0.09193511  0.11695504  1
  N  N38  1  0.92487466  0.19034387  0.88383908  1
  N  N39  1  0.75403014  0.11025212  0.62441151  1
  N  N40  1  0.57501022  0.21678086  0.37505680  1
  N  N41  1  0.42234277  0.11669240  0.11721108  1
  N  N42  1  0.22085389  0.20696146  0.87047281  1
  N  N43  1  0.14370215  0.07727122  0.63336443  1
  N  N44  1  0.88674568  0.20448720  0.32102583  1
  N  N45  1  0.76481050  0.09892809  0.09627840  1
  N  N46  1  0.50971613  0.23321322  0.87502770  1
  N  N47  1  0.44331259  0.10053374  0.60953140  1
  N  N48  1  0.21571086  0.54100612  0.37229402  1
  N  N49  1  0.11679949  0.42280741  0.11600918  1
  N  N50  1  0.91511588  0.54320252  0.86994822  1
  N  N51  1  0.75349220  0.43889385  0.60178733  1
  N  N52  1  0.55183659  0.53833701  0.35481996  1
  N  N53  1  0.41571788  0.41619690  0.13676505  1
  N  N54  1  0.22261391  0.54110465  0.87497548  1
  N  N55  1  0.14678993  0.41422820  0.63299788  1
  N  N56  1  0.89319089  0.53840588  0.33592815  1
  N  N57  1  0.80162197  0.42352914  0.10331755  1
  N  N58  1  0.51832927  0.55497584  0.85851012  1
  N  N59  1  0.44358126  0.43205335  0.61319667  1
  N  N60  1  0.21597063  0.87787588  0.37347446  1
  N  N61  1  0.11517400  0.75874609  0.11665352  1
  N  N62  1  0.91481815  0.84316455  0.87226319  1
  N  N63  1  0.76161501  0.76874247  0.63804170  1
  N  N64  1  0.57932468  0.83627570  0.32421049  1
  N  N65  1  0.40429788  0.77689932  0.13215822  1
  N  N66  1  0.22194698  0.87181183  0.87272481  1
  N  N67  1  0.14367173  0.74660810  0.62834490  1
  N  N68  1  0.88922335  0.87554358  0.33427595  1
  N  N69  1  0.80964302  0.74424247  0.10432486  1
  N  N70  1  0.54421846  0.87914507  0.83115916  1
  N  N71  1  0.44421478  0.75912911  0.61369885  1
