# generated using pymatgen
data_Gd2Al7N9
_symmetry_space_group_name_H-M   'P 1'
_cell_length_a   10.00529903
_cell_length_b   9.87322453
_cell_length_c   10.44801926
_cell_angle_alpha   90.19005402
_cell_angle_beta   90.48046105
_cell_angle_gamma   60.66521908
_symmetry_Int_Tables_number   1
_chemical_formula_structural   Gd2Al7N9
_chemical_formula_sum   'Gd8 Al28 N36'
_cell_volume   899.72654991
_cell_formula_units_Z   4
loop_
 _symmetry_equiv_pos_site_id
 _symmetry_equiv_pos_as_xyz
  1  'x, y, z'
loop_
 _atom_site_type_symbol
 _atom_site_label
 _atom_site_symmetry_multiplicity
 _atom_site_fract_x
 _atom_site_fract_y
 _atom_site_fract_z
 _atom_site_occupancy
  Al  Al0  1  0.12545528  0.08712577  0.38756321  1
  Al  Al1  1  0.21403025  0.21392389  0.14174262  1
  Al  Al2  1  0.53557327  0.22209074  0.13802533  1
  Al  Al3  1  0.11548978  0.09341671  0.89381073  1
  Al  Al4  1  0.22859462  0.19923918  0.64759595  1
  Al  Al5  1  0.78863070  0.08936094  0.30339417  1
  Al  Al6  1  0.90703721  0.19803938  0.12064466  1
  Al  Al7  1  0.41747627  0.11708396  0.89517611  1
  Al  Al8  1  0.52680436  0.22065205  0.66089833  1
  Al  Al9  1  0.12643118  0.41884212  0.39192821  1
  Al  Al10  1  0.22054376  0.52965524  0.14600014  1
  Al  Al11  1  0.45565430  0.42681445  0.40086388  1
  Al  Al12  1  0.11790213  0.42513948  0.89289536  1
  Al  Al13  1  0.23180824  0.52632831  0.64049963  1
  Al  Al14  1  0.79778812  0.42340131  0.31950525  1
  Al  Al15  1  0.90950887  0.53356657  0.07655783  1
  Al  Al16  1  0.40687989  0.44391859  0.89364670  1
  Al  Al17  1  0.52201726  0.55501539  0.65381149  1
  Al  Al18  1  0.11951121  0.75826666  0.32391405  1
  Al  Al19  1  0.21920193  0.88195388  0.14570327  1
  Al  Al20  1  0.78827218  0.75745285  0.84069347  1
  Al  Al21  1  0.46246434  0.75112311  0.40528170  1
  Al  Al22  1  0.11494857  0.75796829  0.81867217  1
  Al  Al23  1  0.23065764  0.87672630  0.63923944  1
  Al  Al24  1  0.80182818  0.74209105  0.31087679  1
  Al  Al25  1  0.91997509  0.84766757  0.07665386  1
  Al  Al26  1  0.41086034  0.77652388  0.89118964  1
  Al  Al27  1  0.53853623  0.88083565  0.67062431  1
  Gd  Gd28  1  0.76289079  0.09432845  0.87068822  1
  Gd  Gd29  1  0.87603144  0.21169926  0.59822503  1
  Gd  Gd30  1  0.45459746  0.08738112  0.39559928  1
  Gd  Gd31  1  0.75405283  0.44080307  0.86861642  1
  Gd  Gd32  1  0.88180157  0.54109668  0.59507507  1
  Gd  Gd33  1  0.53770862  0.54588835  0.14171020  1
  Gd  Gd34  1  0.88158038  0.87576931  0.57471860  1
  Gd  Gd35  1  0.56286594  0.87267622  0.10652976  1
  N  N36  1  0.20526666  0.21426180  0.32261310  1
  N  N37  1  0.11758227  0.09261823  0.08330843  1
  N  N38  1  0.91186887  0.19419312  0.85240078  1
  N  N39  1  0.73783545  0.10829761  0.64520953  1
  N  N40  1  0.57035304  0.22271173  0.31869401  1
  N  N41  1  0.42218897  0.12648791  0.08393227  1
  N  N42  1  0.21089428  0.21028305  0.83473005  1
  N  N43  1  0.14209761  0.08161314  0.57111604  1
  N  N44  1  0.90252192  0.19643498  0.34174160  1
  N  N45  1  0.78484186  0.08890693  0.11357494  1
  N  N46  1  0.50221719  0.23750739  0.83995185  1
  N  N47  1  0.44236575  0.09005535  0.61314730  1
  N  N48  1  0.23516977  0.52838882  0.33388319  1
  N  N49  1  0.12247758  0.42111940  0.08038112  1
  N  N50  1  0.90036868  0.54845563  0.88746263  1
  N  N51  1  0.73403559  0.45137251  0.65133621  1
  N  N52  1  0.56818670  0.53339501  0.35761647  1
  N  N53  1  0.41855468  0.42387325  0.07484469  1
  N  N54  1  0.20848533  0.53707026  0.82637318  1
  N  N55  1  0.14813620  0.40338223  0.57633185  1
  N  N56  1  0.90306380  0.53233580  0.37191263  1
  N  N57  1  0.80482383  0.42003086  0.12546645  1
  N  N58  1  0.49034298  0.56924142  0.83878289  1
  N  N59  1  0.43989719  0.42723578  0.58410723  1
  N  N60  1  0.23923992  0.86899191  0.33410180  1
  N  N61  1  0.12155395  0.75652952  0.13715036  1
  N  N62  1  0.91671890  0.83879205  0.89274797  1
  N  N63  1  0.75082546  0.77768769  0.66415953  1
  N  N64  1  0.58305947  0.83581242  0.33368184  1
  N  N65  1  0.40613975  0.78155405  0.06836743  1
  N  N66  1  0.21215722  0.88880583  0.82593170  1
  N  N67  1  0.13416345  0.74971591  0.63021050  1
  N  N68  1  0.89521575  0.87233973  0.35580341  1
  N  N69  1  0.82371605  0.73687946  0.13104930  1
  N  N70  1  0.54181826  0.88194488  0.86207616  1
  N  N71  1  0.44305364  0.76687893  0.59199275  1
