# generated using pymatgen
data_Gd2Al7N9
_symmetry_space_group_name_H-M   'P 1'
_cell_length_a   9.87588006
_cell_length_b   9.83362455
_cell_length_c   10.79851930
_cell_angle_alpha   90.18640852
_cell_angle_beta   89.36823497
_cell_angle_gamma   60.13819801
_symmetry_Int_Tables_number   1
_chemical_formula_structural   Gd2Al7N9
_chemical_formula_sum   'Gd8 Al28 N36'
_cell_volume   909.36638634
_cell_formula_units_Z   4
loop_
 _symmetry_equiv_pos_site_id
 _symmetry_equiv_pos_as_xyz
  1  'x, y, z'
loop_
 _atom_site_type_symbol
 _atom_site_label
 _atom_site_symmetry_multiplicity
 _atom_site_fract_x
 _atom_site_fract_y
 _atom_site_fract_z
 _atom_site_occupancy
  Al  Al0  1  0.11585011  0.08218622  0.31311753  1
  Al  Al1  1  0.21947512  0.21057276  0.14088342  1
  Al  Al2  1  0.53994542  0.21910266  0.13458006  1
  Al  Al3  1  0.11095898  0.08763560  0.82887928  1
  Al  Al4  1  0.23402995  0.19842580  0.66416798  1
  Al  Al5  1  0.78839475  0.09248342  0.29416592  1
  Al  Al6  1  0.90865019  0.19777423  0.07829098  1
  Al  Al7  1  0.41609383  0.11705667  0.89752628  1
  Al  Al8  1  0.52987756  0.21909971  0.65776267  1
  Al  Al9  1  0.11452473  0.43670389  0.31421282  1
  Al  Al10  1  0.21086318  0.54329437  0.06836583  1
  Al  Al11  1  0.46383678  0.42381478  0.39989347  1
  Al  Al12  1  0.11355437  0.43692925  0.82904680  1
  Al  Al13  1  0.22861299  0.53554596  0.57437106  1
  Al  Al14  1  0.80136537  0.41939218  0.30864458  1
  Al  Al15  1  0.91282659  0.53232430  0.07324590  1
  Al  Al16  1  0.41832192  0.43973721  0.88873594  1
  Al  Al17  1  0.53007578  0.54913982  0.64842916  1
  Al  Al18  1  0.12098011  0.75917487  0.31897934  1
  Al  Al19  1  0.20432649  0.87831498  0.06373227  1
  Al  Al20  1  0.78600586  0.75739220  0.83724605  1
  Al  Al21  1  0.46926341  0.74768102  0.40686321  1
  Al  Al22  1  0.11735220  0.75428546  0.82335296  1
  Al  Al23  1  0.22882261  0.86996414  0.57810842  1
  Al  Al24  1  0.79810848  0.74840336  0.30480063  1
  Al  Al25  1  0.90978915  0.85529340  0.07377810  1
  Al  Al26  1  0.42010544  0.76977970  0.88739376  1
  Al  Al27  1  0.53967246  0.87908820  0.66844243  1
  Gd  Gd28  1  0.76275766  0.09656143  0.86185879  1
  Gd  Gd29  1  0.88341650  0.20530658  0.56572028  1
  Gd  Gd30  1  0.45000089  0.09352646  0.39745071  1
  Gd  Gd31  1  0.76188653  0.44103059  0.85581699  1
  Gd  Gd32  1  0.88754114  0.53850113  0.57473922  1
  Gd  Gd33  1  0.53914791  0.54057379  0.14625199  1
  Gd  Gd34  1  0.88694452  0.87160417  0.57146364  1
  Gd  Gd35  1  0.55668790  0.87273200  0.11260691  1
  N  N36  1  0.20712869  0.21326664  0.32307002  1
  N  N37  1  0.11929399  0.08187273  0.13316933  1
  N  N38  1  0.91532337  0.19440776  0.90399493  1
  N  N39  1  0.74938069  0.10604968  0.64652587  1
  N  N40  1  0.56432986  0.22722070  0.31088261  1
  N  N41  1  0.42412237  0.12714600  0.07597676  1
  N  N42  1  0.21068126  0.21035247  0.84401064  1
  N  N43  1  0.13161852  0.07689056  0.64768358  1
  N  N44  1  0.89444030  0.20004699  0.34908321  1
  N  N45  1  0.78252564  0.08812440  0.11159488  1
  N  N46  1  0.49874057  0.23669679  0.82986156  1
  N  N47  1  0.44304807  0.08990710  0.60868221  1
  N  N48  1  0.22138746  0.54241523  0.38652250  1
  N  N49  1  0.11748693  0.43272611  0.13410750  1
  N  N50  1  0.90492400  0.54951078  0.89396906  1
  N  N51  1  0.75131513  0.43824125  0.64686123  1
  N  N52  1  0.57093299  0.53321008  0.35607561  1
  N  N53  1  0.43254023  0.41610792  0.06485102  1
  N  N54  1  0.20175887  0.55249709  0.89130842  1
  N  N55  1  0.13814310  0.42195282  0.64815229  1
  N  N56  1  0.89896608  0.53628611  0.36173860  1
  N  N57  1  0.80782832  0.41775486  0.12428774  1
  N  N58  1  0.49544455  0.56632038  0.82421654  1
  N  N59  1  0.45162886  0.41929255  0.57718508  1
  N  N60  1  0.22384472  0.87201228  0.39019284  1
  N  N61  1  0.12205677  0.75638073  0.13686787  1
  N  N62  1  0.90689296  0.84367553  0.89341590  1
  N  N63  1  0.75814057  0.77053985  0.66356398  1
  N  N64  1  0.57542304  0.84215973  0.33007006  1
  N  N65  1  0.41934357  0.76642104  0.06123601  1
  N  N66  1  0.19906865  0.88090035  0.88425864  1
  N  N67  1  0.14238096  0.74464278  0.64332671  1
  N  N68  1  0.89017638  0.87666042  0.35459884  1
  N  N69  1  0.81891353  0.74011876  0.12964611  1
  N  N70  1  0.53850775  0.88179094  0.85406174  1
  N  N71  1  0.45284128  0.76141240  0.58761826  1
