# generated using pymatgen
data_Gd2Al7N9
_symmetry_space_group_name_H-M   'P 1'
_cell_length_a   10.01001251
_cell_length_b   9.86640166
_cell_length_c   10.44845854
_cell_angle_alpha   90.18987605
_cell_angle_beta   90.56701455
_cell_angle_gamma   60.67319365
_symmetry_Int_Tables_number   1
_chemical_formula_structural   Gd2Al7N9
_chemical_formula_sum   'Gd8 Al28 N36'
_cell_volume   899.62309202
_cell_formula_units_Z   4
loop_
 _symmetry_equiv_pos_site_id
 _symmetry_equiv_pos_as_xyz
  1  'x, y, z'
loop_
 _atom_site_type_symbol
 _atom_site_label
 _atom_site_symmetry_multiplicity
 _atom_site_fract_x
 _atom_site_fract_y
 _atom_site_fract_z
 _atom_site_occupancy
  Al  Al0  1  0.12643999  0.08652976  0.38782533  1
  Al  Al1  1  0.21335991  0.21432746  0.14069375  1
  Al  Al2  1  0.53553379  0.22198414  0.13841761  1
  Al  Al3  1  0.11408845  0.09398448  0.89165488  1
  Al  Al4  1  0.22889251  0.19904986  0.64819650  1
  Al  Al5  1  0.78602574  0.08794351  0.30527358  1
  Al  Al6  1  0.90957857  0.19801930  0.14008146  1
  Al  Al7  1  0.41852126  0.11668273  0.89546358  1
  Al  Al8  1  0.52701469  0.22050484  0.66159611  1
  Al  Al9  1  0.12561077  0.41919902  0.39248465  1
  Al  Al10  1  0.22018788  0.53006110  0.14651097  1
  Al  Al11  1  0.45493202  0.42712261  0.40166664  1
  Al  Al12  1  0.11824600  0.42546742  0.89346118  1
  Al  Al13  1  0.23191033  0.52652624  0.64080037  1
  Al  Al14  1  0.79424420  0.42759975  0.32229445  1
  Al  Al15  1  0.90907517  0.53389372  0.07709587  1
  Al  Al16  1  0.40794135  0.44329039  0.89440631  1
  Al  Al17  1  0.52253469  0.55476589  0.65510391  1
  Al  Al18  1  0.11914154  0.75861394  0.32412231  1
  Al  Al19  1  0.21789176  0.88266561  0.14468110  1
  Al  Al20  1  0.78679779  0.75815423  0.84159522  1
  Al  Al21  1  0.46177895  0.75142304  0.40577112  1
  Al  Al22  1  0.11493850  0.75819823  0.81914087  1
  Al  Al23  1  0.23086719  0.87647423  0.63961285  1
  Al  Al24  1  0.80124862  0.74235368  0.31197534  1
  Al  Al25  1  0.91879647  0.84881817  0.07743633  1
  Al  Al26  1  0.41227955  0.77586156  0.89183373  1
  Al  Al27  1  0.53838851  0.88055093  0.67120909  1
  Gd  Gd28  1  0.76593604  0.09560763  0.87113080  1
  Gd  Gd29  1  0.87881739  0.20990499  0.60443739  1
  Gd  Gd30  1  0.45268662  0.08796396  0.39685690  1
  Gd  Gd31  1  0.75815684  0.43527579  0.86936920  1
  Gd  Gd32  1  0.88276484  0.54032203  0.59803260  1
  Gd  Gd33  1  0.53779551  0.54611004  0.14081522  1
  Gd  Gd34  1  0.88089575  0.87540863  0.57575973  1
  Gd  Gd35  1  0.56232014  0.87315462  0.10762159  1
  N  N36  1  0.20385151  0.21498988  0.32163630  1
  N  N37  1  0.11338148  0.09472780  0.08168900  1
  N  N38  1  0.91691672  0.19079762  0.83007900  1
  N  N39  1  0.73664531  0.10790652  0.64425873  1
  N  N40  1  0.56906536  0.22251925  0.31980496  1
  N  N41  1  0.42158716  0.12678212  0.08415032  1
  N  N42  1  0.21163639  0.21042593  0.83558889  1
  N  N43  1  0.14444964  0.08055217  0.56965623  1
  N  N44  1  0.90326422  0.19582405  0.33578640  1
  N  N45  1  0.78449823  0.08997958  0.11475021  1
  N  N46  1  0.50470791  0.23640757  0.84111849  1
  N  N47  1  0.44218415  0.09004767  0.61450848  1
  N  N48  1  0.23449020  0.52877793  0.33440852  1
  N  N49  1  0.12194958  0.42199208  0.08051752  1
  N  N50  1  0.90005531  0.54797774  0.88741472  1
  N  N51  1  0.73329031  0.45225781  0.65128237  1
  N  N52  1  0.56720696  0.53380910  0.35750429  1
  N  N53  1  0.41801345  0.42411368  0.07569857  1
  N  N54  1  0.20934347  0.53699263  0.82697288  1
  N  N55  1  0.14907469  0.40281340  0.57655533  1
  N  N56  1  0.90211283  0.53321963  0.37424698  1
  N  N57  1  0.80493922  0.42051429  0.12677109  1
  N  N58  1  0.49382955  0.56732439  0.84100097  1
  N  N59  1  0.43952922  0.42778070  0.58499487  1
  N  N60  1  0.23886344  0.86930487  0.33344524  1
  N  N61  1  0.12059871  0.75701890  0.13734982  1
  N  N62  1  0.91601308  0.83960938  0.89305534  1
  N  N63  1  0.75026174  0.77744283  0.66497152  1
  N  N64  1  0.58253686  0.83630839  0.33467214  1
  N  N65  1  0.40527751  0.78264016  0.06895165  1
  N  N66  1  0.21367046  0.88753298  0.82663678  1
  N  N67  1  0.13378757  0.75003658  0.63082055  1
  N  N68  1  0.89498743  0.87198180  0.35674212  1
  N  N69  1  0.82326160  0.73720890  0.13188460  1
  N  N70  1  0.54236427  0.88157561  0.86297008  1
  N  N71  1  0.44276996  0.76658081  0.59262401  1
