# generated using pymatgen
data_Gd2Al7N9
_symmetry_space_group_name_H-M   'P 1'
_cell_length_a   10.05376091
_cell_length_b   9.86533544
_cell_length_c   10.33056187
_cell_angle_alpha   90.13567627
_cell_angle_beta   90.77039989
_cell_angle_gamma   60.74504123
_symmetry_Int_Tables_number   1
_chemical_formula_structural   Gd2Al7N9
_chemical_formula_sum   'Gd8 Al28 N36'
_cell_volume   893.84548040
_cell_formula_units_Z   4
loop_
 _symmetry_equiv_pos_site_id
 _symmetry_equiv_pos_as_xyz
  1  'x, y, z'
loop_
 _atom_site_type_symbol
 _atom_site_label
 _atom_site_symmetry_multiplicity
 _atom_site_fract_x
 _atom_site_fract_y
 _atom_site_fract_z
 _atom_site_occupancy
  Al  Al0  1  0.12684400  0.08717906  0.39923625  1
  Al  Al1  1  0.21234593  0.21501693  0.15098403  1
  Al  Al2  1  0.53275703  0.22413235  0.14992858  1
  Al  Al3  1  0.11372323  0.09202855  0.90231805  1
  Al  Al4  1  0.22891689  0.19898584  0.65893668  1
  Al  Al5  1  0.78581862  0.08820688  0.31835944  1
  Al  Al6  1  0.91059525  0.19723853  0.15138156  1
  Al  Al7  1  0.41723254  0.11683423  0.90719899  1
  Al  Al8  1  0.52547310  0.22147738  0.67226192  1
  Al  Al9  1  0.12560760  0.41892231  0.40379950  1
  Al  Al10  1  0.21729947  0.53656685  0.16067799  1
  Al  Al11  1  0.45694038  0.42612932  0.41246012  1
  Al  Al12  1  0.11868838  0.42689799  0.90287876  1
  Al  Al13  1  0.23156159  0.53217333  0.64418855  1
  Al  Al14  1  0.79433869  0.42823397  0.33366470  1
  Al  Al15  1  0.91053775  0.53392825  0.08899536  1
  Al  Al16  1  0.40720345  0.44457708  0.90471284  1
  Al  Al17  1  0.52539047  0.55326845  0.66566837  1
  Al  Al18  1  0.12835032  0.75418789  0.38106461  1
  Al  Al19  1  0.21584186  0.87894834  0.15945844  1
  Al  Al20  1  0.78372971  0.75887701  0.85430280  1
  Al  Al21  1  0.46370940  0.75083719  0.41711430  1
  Al  Al22  1  0.11547071  0.75810901  0.86792137  1
  Al  Al23  1  0.23012816  0.87211334  0.64366278  1
  Al  Al24  1  0.80121010  0.74304037  0.32478017  1
  Al  Al25  1  0.91492494  0.85253386  0.09565927  1
  Al  Al26  1  0.41173471  0.77508346  0.90166032  1
  Al  Al27  1  0.53743669  0.88081599  0.68144963  1
  Gd  Gd28  1  0.76255139  0.09871908  0.88390540  1
  Gd  Gd29  1  0.87850965  0.20933775  0.61356238  1
  Gd  Gd30  1  0.45227111  0.08856887  0.40634311  1
  Gd  Gd31  1  0.76106601  0.43358465  0.88148361  1
  Gd  Gd32  1  0.88492513  0.53990936  0.61197431  1
  Gd  Gd33  1  0.53869642  0.54538589  0.14867990  1
  Gd  Gd34  1  0.87856351  0.87699119  0.59171695  1
  Gd  Gd35  1  0.56007024  0.87278548  0.11984049  1
  N  N36  1  0.20311288  0.21555189  0.33331634  1
  N  N37  1  0.11381690  0.09300364  0.09366808  1
  N  N38  1  0.91699518  0.18908673  0.84222606  1
  N  N39  1  0.73400799  0.11067241  0.65569492  1
  N  N40  1  0.56996288  0.22252580  0.33212615  1
  N  N41  1  0.42075707  0.12667425  0.09746020  1
  N  N42  1  0.21108710  0.20986555  0.84772758  1
  N  N43  1  0.14395278  0.08070405  0.58253258  1
  N  N44  1  0.90337333  0.19608231  0.34847096  1
  N  N45  1  0.78398730  0.09090822  0.12680469  1
  N  N46  1  0.50160337  0.23795861  0.85338453  1
  N  N47  1  0.44110303  0.09069637  0.62558315  1
  N  N48  1  0.23619900  0.52761818  0.34787266  1
  N  N49  1  0.12248777  0.42390188  0.09167062  1
  N  N50  1  0.90177800  0.54756415  0.89584660  1
  N  N51  1  0.73500571  0.45137551  0.66075011  1
  N  N52  1  0.56797679  0.53378819  0.36791574  1
  N  N53  1  0.41485044  0.42635952  0.08775190  1
  N  N54  1  0.20716799  0.54455261  0.83352375  1
  N  N55  1  0.14987003  0.40336454  0.58922993  1
  N  N56  1  0.90304361  0.53295607  0.38534090  1
  N  N57  1  0.80630369  0.41993970  0.13669555  1
  N  N58  1  0.49725257  0.56523696  0.85410673  1
  N  N59  1  0.44131689  0.42731750  0.59705166  1
  N  N60  1  0.24049007  0.86887067  0.34728159  1
  N  N61  1  0.12126972  0.75652935  0.13385841  1
  N  N62  1  0.90928593  0.84343331  0.90453892  1
  N  N63  1  0.74778086  0.77769942  0.67600285  1
  N  N64  1  0.58359106  0.83605851  0.34785124  1
  N  N65  1  0.40244433  0.78353611  0.08062029  1
  N  N66  1  0.21049881  0.88156363  0.83400630  1
  N  N67  1  0.14192988  0.74625707  0.59045730  1
  N  N68  1  0.89390989  0.87250231  0.36948891  1
  N  N69  1  0.82018945  0.73807065  0.14217998  1
  N  N70  1  0.53984578  0.88194806  0.87446259  1
  N  N71  1  0.44380625  0.76602789  0.60536301  1
