# generated using pymatgen
data_Gd2Al7N9
_symmetry_space_group_name_H-M   'P 1'
_cell_length_a   9.96666929
_cell_length_b   9.86097482
_cell_length_c   10.28844973
_cell_angle_alpha   90.05051174
_cell_angle_beta   89.86325618
_cell_angle_gamma   60.50994574
_symmetry_Int_Tables_number   1
_chemical_formula_structural   Gd2Al7N9
_chemical_formula_sum   'Gd8 Al28 N36'
_cell_volume   880.15023316
_cell_formula_units_Z   4
loop_
 _symmetry_equiv_pos_site_id
 _symmetry_equiv_pos_as_xyz
  1  'x, y, z'
loop_
 _atom_site_type_symbol
 _atom_site_label
 _atom_site_symmetry_multiplicity
 _atom_site_fract_x
 _atom_site_fract_y
 _atom_site_fract_z
 _atom_site_occupancy
  Al  Al0  1  0.12265416  0.08946972  0.39680743  1
  Al  Al1  1  0.21462879  0.21288671  0.14509579  1
  Al  Al2  1  0.53403792  0.22337153  0.15450120  1
  Al  Al3  1  0.11395006  0.09078187  0.90707468  1
  Al  Al4  1  0.23085869  0.19908224  0.66123984  1
  Al  Al5  1  0.76654295  0.10685078  0.38052642  1
  Al  Al6  1  0.90171403  0.20226779  0.17303389  1
  Al  Al7  1  0.42794664  0.11379280  0.89299876  1
  Al  Al8  1  0.53851961  0.21760861  0.65815914  1
  Al  Al9  1  0.12595864  0.41974166  0.39754043  1
  Al  Al10  1  0.21598333  0.53983404  0.14944649  1
  Al  Al11  1  0.43948675  0.43392623  0.41340630  1
  Al  Al12  1  0.11205332  0.43310590  0.90783754  1
  Al  Al13  1  0.23374604  0.53347491  0.65164792  1
  Al  Al14  1  0.76927041  0.43263026  0.40576712  1
  Al  Al15  1  0.91001233  0.52625871  0.17081116  1
  Al  Al16  1  0.42216231  0.43861268  0.89693498  1
  Al  Al17  1  0.53720195  0.54704952  0.64922866  1
  Al  Al18  1  0.13051349  0.75267120  0.39939380  1
  Al  Al19  1  0.21505050  0.87672823  0.15038727  1
  Al  Al20  1  0.78934425  0.75572643  0.88713652  1
  Al  Al21  1  0.44498655  0.76103046  0.41629705  1
  Al  Al22  1  0.11129142  0.75840722  0.90340173  1
  Al  Al23  1  0.23222617  0.86803637  0.65024649  1
  Al  Al24  1  0.77604627  0.75574952  0.38303015  1
  Al  Al25  1  0.90651997  0.86285765  0.17308255  1
  Al  Al26  1  0.42252470  0.76555038  0.89369460  1
  Al  Al27  1  0.54860030  0.87224965  0.66481094  1
  Gd  Gd28  1  0.77029490  0.09123455  0.92092164  1
  Gd  Gd29  1  0.89292665  0.19568437  0.62815223  1
  Gd  Gd30  1  0.44471418  0.09385795  0.41462009  1
  Gd  Gd31  1  0.77247481  0.43524502  0.90496987  1
  Gd  Gd32  1  0.90103589  0.53617779  0.62852492  1
  Gd  Gd33  1  0.54418670  0.54105442  0.16067242  1
  Gd  Gd34  1  0.88789434  0.87484578  0.62154419  1
  Gd  Gd35  1  0.56001536  0.87273960  0.12488969  1
  N  N36  1  0.20264412  0.21514365  0.32851451  1
  N  N37  1  0.10918928  0.09374502  0.09756945  1
  N  N38  1  0.91050182  0.18998947  0.84735785  1
  N  N39  1  0.72734005  0.11831249  0.56882238  1
  N  N40  1  0.55193716  0.23403235  0.33417549  1
  N  N41  1  0.42516140  0.12711632  0.08469127  1
  N  N42  1  0.21086066  0.21189726  0.84991047  1
  N  N43  1  0.15239654  0.07612189  0.58040196  1
  N  N44  1  0.89646843  0.20417425  0.36397539  1
  N  N45  1  0.78040040  0.09312657  0.14244894  1
  N  N46  1  0.52714166  0.22784320  0.84102196  1
  N  N47  1  0.44404785  0.08967918  0.63569991  1
  N  N48  1  0.22703227  0.53789213  0.33795711  1
  N  N49  1  0.11160018  0.42863509  0.09576795  1
  N  N50  1  0.90576217  0.54757774  0.84961998  1
  N  N51  1  0.74544563  0.44350348  0.59440006  1
  N  N52  1  0.54752627  0.54434311  0.37616661  1
  N  N53  1  0.42142627  0.42426787  0.08114927  1
  N  N54  1  0.21294149  0.54408624  0.84148658  1
  N  N55  1  0.16012590  0.39952761  0.58070968  1
  N  N56  1  0.90082486  0.52971488  0.36561838  1
  N  N57  1  0.80416313  0.41579119  0.12692372  1
  N  N58  1  0.51924057  0.55458569  0.83826753  1
  N  N59  1  0.44011463  0.42829829  0.59802219  1
  N  N60  1  0.22967227  0.86978051  0.33969669  1
  N  N61  1  0.11118146  0.76302428  0.09662584  1
  N  N62  1  0.90243166  0.85133165  0.84712792  1
  N  N63  1  0.73998213  0.77821004  0.57938405  1
  N  N64  1  0.56267129  0.84545318  0.34457930  1
  N  N65  1  0.40928421  0.77464314  0.07385263  1
  N  N66  1  0.21154234  0.87840616  0.83871584  1
  N  N67  1  0.15064452  0.74114596  0.58277839  1
  N  N68  1  0.90084220  0.86813984  0.36295571  1
  N  N69  1  0.81740340  0.73990610  0.13293605  1
  N  N70  1  0.56166352  0.86689928  0.85987894  1
  N  N71  1  0.44260870  0.76572315  0.60480893  1
