# generated using pymatgen
data_Gd2Al7N9
_symmetry_space_group_name_H-M   'P 1'
_cell_length_a   10.02632861
_cell_length_b   9.86413691
_cell_length_c   10.27068214
_cell_angle_alpha   90.05743231
_cell_angle_beta   90.24719601
_cell_angle_gamma   60.83490487
_symmetry_Int_Tables_number   1
_chemical_formula_structural   Gd2Al7N9
_chemical_formula_sum   'Gd8 Al28 N36'
_cell_volume   886.99090267
_cell_formula_units_Z   4
loop_
 _symmetry_equiv_pos_site_id
 _symmetry_equiv_pos_as_xyz
  1  'x, y, z'
loop_
 _atom_site_type_symbol
 _atom_site_label
 _atom_site_symmetry_multiplicity
 _atom_site_fract_x
 _atom_site_fract_y
 _atom_site_fract_z
 _atom_site_occupancy
  Al  Al0  1  0.12593307  0.08710536  0.40073577  1
  Al  Al1  1  0.21509956  0.21170984  0.14786619  1
  Al  Al2  1  0.53393464  0.22322398  0.15616981  1
  Al  Al3  1  0.11290920  0.09035398  0.90598711  1
  Al  Al4  1  0.22738197  0.20246883  0.66120146  1
  Al  Al5  1  0.76758486  0.10580447  0.38182727  1
  Al  Al6  1  0.90638050  0.19270788  0.16784171  1
  Al  Al7  1  0.42233071  0.11693193  0.89833039  1
  Al  Al8  1  0.53512338  0.21914691  0.65858588  1
  Al  Al9  1  0.13058610  0.41817232  0.40213878  1
  Al  Al10  1  0.21638120  0.53876856  0.15223687  1
  Al  Al11  1  0.44832523  0.43245748  0.41511288  1
  Al  Al12  1  0.10918006  0.43438090  0.90445364  1
  Al  Al13  1  0.23064600  0.53421251  0.65327245  1
  Al  Al14  1  0.78362705  0.42472264  0.34750443  1
  Al  Al15  1  0.91843061  0.52366861  0.16165226  1
  Al  Al16  1  0.41603339  0.43876602  0.90046503  1
  Al  Al17  1  0.52900259  0.55129160  0.66619530  1
  Al  Al18  1  0.13631582  0.75046871  0.40239705  1
  Al  Al19  1  0.21575019  0.87865259  0.15491931  1
  Al  Al20  1  0.78200467  0.75903001  0.83562585  1
  Al  Al21  1  0.45763782  0.75336442  0.41751622  1
  Al  Al22  1  0.11002437  0.75886759  0.90322103  1
  Al  Al23  1  0.23052363  0.86919791  0.65098276  1
  Al  Al24  1  0.79075192  0.75036541  0.34015276  1
  Al  Al25  1  0.91322885  0.86400116  0.17005278  1
  Al  Al26  1  0.41426740  0.77345584  0.90083861  1
  Al  Al27  1  0.53194883  0.88250765  0.67500232  1
  Gd  Gd28  1  0.76783295  0.08915486  0.91668051  1
  Gd  Gd29  1  0.88693791  0.20143732  0.62646830  1
  Gd  Gd30  1  0.44922635  0.08932044  0.41021060  1
  Gd  Gd31  1  0.77040187  0.43477996  0.89033620  1
  Gd  Gd32  1  0.88654109  0.53722355  0.61478115  1
  Gd  Gd33  1  0.53776297  0.54502150  0.15009061  1
  Gd  Gd34  1  0.88931507  0.87469467  0.61683348  1
  Gd  Gd35  1  0.56809882  0.87094221  0.11455969  1
  N  N36  1  0.20341822  0.21498853  0.33192148  1
  N  N37  1  0.10958350  0.09378862  0.09821410  1
  N  N38  1  0.91170201  0.18390801  0.84941617  1
  N  N39  1  0.72414720  0.11860765  0.56990513  1
  N  N40  1  0.55615264  0.23243001  0.33517418  1
  N  N41  1  0.42465199  0.12573602  0.09181306  1
  N  N42  1  0.20994909  0.21197244  0.85108226  1
  N  N43  1  0.14868495  0.07778929  0.58418691  1
  N  N44  1  0.90091420  0.19842673  0.36200343  1
  N  N45  1  0.78244454  0.09000552  0.13971474  1
  N  N46  1  0.52128459  0.22941059  0.84248522  1
  N  N47  1  0.43804189  0.09420496  0.62996696  1
  N  N48  1  0.23157288  0.53609319  0.34089520  1
  N  N49  1  0.11509026  0.42591145  0.09452068  1
  N  N50  1  0.90653340  0.54647443  0.85094365  1
  N  N51  1  0.73819808  0.44399455  0.65725557  1
  N  N52  1  0.56197483  0.53712213  0.37143251  1
  N  N53  1  0.41768098  0.42238889  0.08459889  1
  N  N54  1  0.21101874  0.54474920  0.84284860  1
  N  N55  1  0.15207821  0.40490446  0.58626615  1
  N  N56  1  0.90646220  0.52761178  0.36705465  1
  N  N57  1  0.80402034  0.41535175  0.14653474  1
  N  N58  1  0.50657622  0.56253021  0.85593839  1
  N  N59  1  0.43777343  0.43159986  0.60028096  1
  N  N60  1  0.23535912  0.86773821  0.34342762  1
  N  N61  1  0.11518165  0.76154108  0.09870094  1
  N  N62  1  0.90474286  0.85165244  0.84848362  1
  N  N63  1  0.73783176  0.78171428  0.65076910  1
  N  N64  1  0.57681093  0.83867355  0.34829292  1
  N  N65  1  0.40647321  0.78388593  0.08152632  1
  N  N66  1  0.21001947  0.87940263  0.84007775  1
  N  N67  1  0.15090412  0.74092446  0.58546404  1
  N  N68  1  0.90468050  0.86866015  0.36495477  1
  N  N69  1  0.82430336  0.73784815  0.15411088  1
  N  N70  1  0.54520038  0.87841452  0.86869892  1
  N  N71  1  0.44103231  0.76525899  0.60618506  1
