# generated using pymatgen
data_Gd2Al7N9
_symmetry_space_group_name_H-M   'P 1'
_cell_length_a   9.99139717
_cell_length_b   9.84338371
_cell_length_c   10.32498124
_cell_angle_alpha   90.04587555
_cell_angle_beta   89.95220037
_cell_angle_gamma   60.67138111
_symmetry_Int_Tables_number   1
_chemical_formula_structural   Gd2Al7N9
_chemical_formula_sum   'Gd8 Al28 N36'
_cell_volume   885.29603496
_cell_formula_units_Z   4
loop_
 _symmetry_equiv_pos_site_id
 _symmetry_equiv_pos_as_xyz
  1  'x, y, z'
loop_
 _atom_site_type_symbol
 _atom_site_label
 _atom_site_symmetry_multiplicity
 _atom_site_fract_x
 _atom_site_fract_y
 _atom_site_fract_z
 _atom_site_occupancy
  Al  Al0  1  0.12191846  0.08988979  0.39838311  1
  Al  Al1  1  0.21511002  0.21165440  0.14650198  1
  Al  Al2  1  0.53522819  0.22294135  0.15470879  1
  Al  Al3  1  0.11294807  0.09164001  0.90645874  1
  Al  Al4  1  0.22912316  0.20119563  0.66011401  1
  Al  Al5  1  0.76661386  0.10733387  0.38081452  1
  Al  Al6  1  0.90276539  0.20092885  0.17214895  1
  Al  Al7  1  0.42388379  0.11606136  0.89768382  1
  Al  Al8  1  0.53622818  0.21691672  0.65721515  1
  Al  Al9  1  0.12788329  0.41914023  0.39926353  1
  Al  Al10  1  0.21769000  0.53888782  0.14926783  1
  Al  Al11  1  0.44064920  0.43375922  0.41408847  1
  Al  Al12  1  0.11029502  0.43464641  0.90635734  1
  Al  Al13  1  0.23376048  0.53377927  0.65258920  1
  Al  Al14  1  0.76894004  0.43125718  0.40481821  1
  Al  Al15  1  0.91583698  0.51968388  0.16805695  1
  Al  Al16  1  0.42182587  0.43854912  0.89643654  1
  Al  Al17  1  0.53605210  0.54854643  0.65032809  1
  Al  Al18  1  0.13417598  0.75156370  0.40015345  1
  Al  Al19  1  0.21679670  0.87673243  0.15156000  1
  Al  Al20  1  0.77969962  0.76167739  0.83462520  1
  Al  Al21  1  0.44892413  0.76035844  0.41571760  1
  Al  Al22  1  0.10949121  0.75931610  0.90261925  1
  Al  Al23  1  0.23075660  0.86834648  0.65042686  1
  Al  Al24  1  0.78836618  0.74935898  0.34084723  1
  Al  Al25  1  0.91153049  0.86404899  0.17080611  1
  Al  Al26  1  0.41885091  0.76744170  0.89676538  1
  Al  Al27  1  0.53219463  0.88172370  0.67295813  1
  Gd  Gd28  1  0.76924891  0.09080832  0.91874414  1
  Gd  Gd29  1  0.89035686  0.19570367  0.62962349  1
  Gd  Gd30  1  0.44690292  0.09143221  0.40920799  1
  Gd  Gd31  1  0.77252719  0.43699769  0.90495997  1
  Gd  Gd32  1  0.89956893  0.53358252  0.62296689  1
  Gd  Gd33  1  0.54592098  0.53906595  0.16041071  1
  Gd  Gd34  1  0.88806606  0.87363857  0.61382449  1
  Gd  Gd35  1  0.56751973  0.86864012  0.11406792  1
  N  N36  1  0.20206178  0.21532454  0.32944998  1
  N  N37  1  0.10954432  0.09347177  0.09732638  1
  N  N38  1  0.90958024  0.19131433  0.84777070  1
  N  N39  1  0.72526391  0.11745635  0.56804599  1
  N  N40  1  0.55381696  0.23448177  0.33347690  1
  N  N41  1  0.42571162  0.12537255  0.08951121  1
  N  N42  1  0.21043956  0.21250935  0.84945905  1
  N  N43  1  0.14822220  0.07793958  0.58178758  1
  N  N44  1  0.89654087  0.20346011  0.36300217  1
  N  N45  1  0.78162670  0.09137633  0.14071384  1
  N  N46  1  0.52443353  0.22699917  0.84021200  1
  N  N47  1  0.43950196  0.09255102  0.62842471  1
  N  N48  1  0.22854421  0.53715707  0.33781476  1
  N  N49  1  0.11429341  0.42682621  0.09472994  1
  N  N50  1  0.90642428  0.54649526  0.84887058  1
  N  N51  1  0.74258002  0.44297489  0.59247841  1
  N  N52  1  0.54812916  0.54422687  0.37486726  1
  N  N53  1  0.42233845  0.42310381  0.08048848  1
  N  N54  1  0.21329986  0.54448195  0.84186971  1
  N  N55  1  0.15899558  0.40206266  0.58191927  1
  N  N56  1  0.90275080  0.52687918  0.36917095  1
  N  N57  1  0.80565166  0.41500473  0.12698589  1
  N  N58  1  0.51838057  0.55652524  0.83889717  1
  N  N59  1  0.43987936  0.42873017  0.59826832  1
  N  N60  1  0.23167665  0.87036748  0.34033967  1
  N  N61  1  0.11353200  0.76215573  0.09651551  1
  N  N62  1  0.90392286  0.85345613  0.84604499  1
  N  N63  1  0.73889939  0.77855232  0.65020257  1
  N  N64  1  0.57255768  0.84054307  0.34619418  1
  N  N65  1  0.41054942  0.77394743  0.07724889  1
  N  N66  1  0.21082903  0.87887949  0.83907362  1
  N  N67  1  0.15153748  0.74042726  0.58300975  1
  N  N68  1  0.90315680  0.86883263  0.36458392  1
  N  N69  1  0.82349514  0.73627827  0.15576590  1
  N  N70  1  0.54578918  0.87761266  0.86691075  1
  N  N71  1  0.44021637  0.76744748  0.60326807  1
