# generated using pymatgen
data_Gd2Al7N9
_symmetry_space_group_name_H-M   'P 1'
_cell_length_a   9.95508146
_cell_length_b   9.85529368
_cell_length_c   10.60715591
_cell_angle_alpha   90.27261990
_cell_angle_beta   90.22378901
_cell_angle_gamma   60.44807108
_symmetry_Int_Tables_number   1
_chemical_formula_structural   Gd2Al7N9
_chemical_formula_sum   'Gd8 Al28 N36'
_cell_volume   905.27717678
_cell_formula_units_Z   4
loop_
 _symmetry_equiv_pos_site_id
 _symmetry_equiv_pos_as_xyz
  1  'x, y, z'
loop_
 _atom_site_type_symbol
 _atom_site_label
 _atom_site_symmetry_multiplicity
 _atom_site_fract_x
 _atom_site_fract_y
 _atom_site_fract_z
 _atom_site_occupancy
  Al  Al0  1  0.12728664  0.08465886  0.38552755  1
  Al  Al1  1  0.21554728  0.21312114  0.14474657  1
  Al  Al2  1  0.53986548  0.21930073  0.13777776  1
  Al  Al3  1  0.11923665  0.09228082  0.90028778  1
  Al  Al4  1  0.22569396  0.19960928  0.64760843  1
  Al  Al5  1  0.79423381  0.08936439  0.29714561  1
  Al  Al6  1  0.90381798  0.20008950  0.08394755  1
  Al  Al7  1  0.41607240  0.11767154  0.89553008  1
  Al  Al8  1  0.52793733  0.21821905  0.66085929  1
  Al  Al9  1  0.12793738  0.41962413  0.38949497  1
  Al  Al10  1  0.21624858  0.53734525  0.10237369  1
  Al  Al11  1  0.45939151  0.42570091  0.40061474  1
  Al  Al12  1  0.11290017  0.42488048  0.89378264  1
  Al  Al13  1  0.23294398  0.52984653  0.60958173  1
  Al  Al14  1  0.80445862  0.41798033  0.31350394  1
  Al  Al15  1  0.90493189  0.53450660  0.07687227  1
  Al  Al16  1  0.41186476  0.44218777  0.89057284  1
  Al  Al17  1  0.52374024  0.55475667  0.65245551  1
  Al  Al18  1  0.12300227  0.75085478  0.31878957  1
  Al  Al19  1  0.22076664  0.88145550  0.14613697  1
  Al  Al20  1  0.78598464  0.75910957  0.83930174  1
  Al  Al21  1  0.46299395  0.75063580  0.40575782  1
  Al  Al22  1  0.11442388  0.75472350  0.82113325  1
  Al  Al23  1  0.22841686  0.87795893  0.64217917  1
  Al  Al24  1  0.80288193  0.74262387  0.30838730  1
  Al  Al25  1  0.91477555  0.85246763  0.07511901  1
  Al  Al26  1  0.40889470  0.77693803  0.89046545  1
  Al  Al27  1  0.53737859  0.88171201  0.67090141  1
  Gd  Gd28  1  0.76284291  0.09471564  0.86506532  1
  Gd  Gd29  1  0.86642032  0.21644906  0.57127687  1
  Gd  Gd30  1  0.45840730  0.08748737  0.39640896  1
  Gd  Gd31  1  0.75047311  0.44524808  0.86427420  1
  Gd  Gd32  1  0.87782854  0.54345593  0.58754639  1
  Gd  Gd33  1  0.53648384  0.54585914  0.14913007  1
  Gd  Gd34  1  0.88400833  0.87401806  0.57189225  1
  Gd  Gd35  1  0.56083472  0.87263054  0.10722789  1
  N  N36  1  0.20905148  0.21247898  0.32384181  1
  N  N37  1  0.12464510  0.08974682  0.08763580  1
  N  N38  1  0.90713243  0.19931637  0.90223583  1
  N  N39  1  0.74348097  0.10669326  0.64710457  1
  N  N40  1  0.57258673  0.22294666  0.31647701  1
  N  N41  1  0.42327199  0.12732900  0.08122410  1
  N  N42  1  0.20764892  0.21101186  0.83269976  1
  N  N43  1  0.13609621  0.08276329  0.57125652  1
  N  N44  1  0.90252801  0.19615297  0.35037426  1
  N  N45  1  0.78384807  0.08696628  0.11290673  1
  N  N46  1  0.50151529  0.23606168  0.83627900  1
  N  N47  1  0.44156469  0.09014394  0.61161295  1
  N  N48  1  0.23714663  0.53254352  0.35541039  1
  N  N49  1  0.11917278  0.41804011  0.08017242  1
  N  N50  1  0.89505227  0.55227531  0.89122946  1
  N  N51  1  0.73939546  0.44635174  0.65371961  1
  N  N52  1  0.57350339  0.53123812  0.36177875  1
  N  N53  1  0.42762032  0.41951913  0.07034120  1
  N  N54  1  0.20465289  0.54354226  0.85643645  1
  N  N55  1  0.14486219  0.40374942  0.57630735  1
  N  N56  1  0.90461371  0.53196552  0.36879050  1
  N  N57  1  0.80248179  0.42034527  0.12757554  1
  N  N58  1  0.48815392  0.57174288  0.83207035  1
  N  N59  1  0.44767093  0.42207308  0.58316200  1
  N  N60  1  0.24133998  0.86557852  0.33172266  1
  N  N61  1  0.12067511  0.75616707  0.13477322  1
  N  N62  1  0.91221862  0.84135058  0.89374578  1
  N  N63  1  0.75175433  0.77837950  0.66459089  1
  N  N64  1  0.58205965  0.83624878  0.33192916  1
  N  N65  1  0.40753642  0.77680911  0.06491746  1
  N  N66  1  0.20751671  0.89215303  0.82566259  1
  N  N67  1  0.13512849  0.74619237  0.63674908  1
  N  N68  1  0.89697346  0.87192520  0.35491617  1
  N  N69  1  0.82245889  0.73825278  0.13137348  1
  N  N70  1  0.53899053  0.88318088  0.86014462  1
  N  N71  1  0.44252464  0.76732377  0.59102158  1
