# generated using pymatgen
data_Gd2Al7N9
_symmetry_space_group_name_H-M   'P 1'
_cell_length_a   9.88638827
_cell_length_b   9.81767636
_cell_length_c   10.82131768
_cell_angle_alpha   90.13230101
_cell_angle_beta   89.67061581
_cell_angle_gamma   60.22676856
_symmetry_Int_Tables_number   1
_chemical_formula_structural   Gd2Al7N9
_chemical_formula_sum   'Gd8 Al28 N36'
_cell_volume   911.65423810
_cell_formula_units_Z   4
loop_
 _symmetry_equiv_pos_site_id
 _symmetry_equiv_pos_as_xyz
  1  'x, y, z'
loop_
 _atom_site_type_symbol
 _atom_site_label
 _atom_site_symmetry_multiplicity
 _atom_site_fract_x
 _atom_site_fract_y
 _atom_site_fract_z
 _atom_site_occupancy
  Al  Al0  1  0.12362253  0.08853568  0.38543852  1
  Al  Al1  1  0.21928508  0.20601620  0.14523872  1
  Al  Al2  1  0.53965141  0.21804743  0.13711211  1
  Al  Al3  1  0.11087733  0.10177371  0.90428253  1
  Al  Al4  1  0.22514237  0.19515195  0.65653635  1
  Al  Al5  1  0.79359954  0.08836221  0.29592173  1
  Al  Al6  1  0.89823025  0.20419260  0.08503401  1
  Al  Al7  1  0.41537252  0.11571997  0.89725824  1
  Al  Al8  1  0.52418876  0.21930292  0.66195118  1
  Al  Al9  1  0.11840273  0.43283375  0.31642383  1
  Al  Al10  1  0.21095242  0.54112989  0.07003253  1
  Al  Al11  1  0.46570540  0.42125850  0.40344444  1
  Al  Al12  1  0.11419594  0.43549186  0.82760755  1
  Al  Al13  1  0.22901443  0.53482228  0.57537002  1
  Al  Al14  1  0.80558287  0.41742897  0.31032141  1
  Al  Al15  1  0.91455619  0.53146950  0.07586822  1
  Al  Al16  1  0.41660577  0.44062604  0.89190844  1
  Al  Al17  1  0.52494704  0.55318427  0.65301117  1
  Al  Al18  1  0.12501224  0.75610923  0.31992035  1
  Al  Al19  1  0.20743499  0.87413963  0.06858923  1
  Al  Al20  1  0.78948582  0.75579427  0.83944253  1
  Al  Al21  1  0.47401191  0.74332209  0.41006267  1
  Al  Al22  1  0.11833301  0.75572890  0.82486979  1
  Al  Al23  1  0.23022947  0.86721914  0.57251244  1
  Al  Al24  1  0.80254645  0.74520924  0.30698687  1
  Al  Al25  1  0.91118340  0.85446273  0.07491060  1
  Al  Al26  1  0.41712762  0.77265852  0.88917505  1
  Al  Al27  1  0.54110820  0.87875049  0.67154267  1
  Gd  Gd28  1  0.75984672  0.09713272  0.86308247  1
  Gd  Gd29  1  0.85723576  0.21973595  0.56581428  1
  Gd  Gd30  1  0.45636436  0.08899724  0.40120941  1
  Gd  Gd31  1  0.75328714  0.45045479  0.86114502  1
  Gd  Gd32  1  0.88670769  0.53764245  0.57757894  1
  Gd  Gd33  1  0.53597302  0.54216379  0.15361408  1
  Gd  Gd34  1  0.88804052  0.87133398  0.57425769  1
  Gd  Gd35  1  0.55870495  0.87202829  0.11507671  1
  N  N36  1  0.21289402  0.20642955  0.32317674  1
  N  N37  1  0.12062351  0.09412128  0.08899006  1
  N  N38  1  0.89821064  0.20623331  0.90764746  1
  N  N39  1  0.74331620  0.10354531  0.65033074  1
  N  N40  1  0.56815734  0.22443865  0.31382313  1
  N  N41  1  0.42327041  0.12675274  0.07659546  1
  N  N42  1  0.20908676  0.20465268  0.83661475  1
  N  N43  1  0.12801243  0.09360689  0.57231675  1
  N  N44  1  0.90100118  0.19609225  0.34869699  1
  N  N45  1  0.78280408  0.08659686  0.11527901  1
  N  N46  1  0.49536470  0.23806675  0.83308980  1
  N  N47  1  0.44013176  0.08974383  0.61210500  1
  N  N48  1  0.22535822  0.53833520  0.38783433  1
  N  N49  1  0.11906826  0.43016259  0.13735637  1
  N  N50  1  0.90809451  0.54746559  0.89674699  1
  N  N51  1  0.74467680  0.44657895  0.65415642  1
  N  N52  1  0.57798314  0.52722469  0.36307053  1
  N  N53  1  0.43297078  0.41609107  0.06777118  1
  N  N54  1  0.20074855  0.55204673  0.89317476  1
  N  N55  1  0.13795849  0.42198748  0.64861834  1
  N  N56  1  0.90397910  0.53262570  0.36464064  1
  N  N57  1  0.80311521  0.42279607  0.12887597  1
  N  N58  1  0.48816703  0.57059418  0.82651257  1
  N  N59  1  0.45216226  0.41848507  0.58022305  1
  N  N60  1  0.23650261  0.85660348  0.38710639  1
  N  N61  1  0.12300644  0.75520275  0.13879345  1
  N  N62  1  0.90870457  0.84372453  0.89557969  1
  N  N63  1  0.75958160  0.76986024  0.66607911  1
  N  N64  1  0.58060205  0.83786577  0.33304942  1
  N  N65  1  0.42095347  0.76567672  0.06334135  1
  N  N66  1  0.19718727  0.88409638  0.88465736  1
  N  N67  1  0.14385920  0.74541404  0.64429363  1
  N  N68  1  0.89479912  0.87334360  0.35758435  1
  N  N69  1  0.82107911  0.73924955  0.13199148  1
  N  N70  1  0.54015978  0.88034775  0.85645541  1
  N  N71  1  0.45173466  0.76367431  0.59107877  1
