# generated using pymatgen
data_Gd2Al7N9
_symmetry_space_group_name_H-M   'P 1'
_cell_length_a   10.04745371
_cell_length_b   9.85470184
_cell_length_c   10.35731266
_cell_angle_alpha   90.13352969
_cell_angle_beta   90.15520499
_cell_angle_gamma   60.45963778
_symmetry_Int_Tables_number   1
_chemical_formula_structural   Gd2Al7N9
_chemical_formula_sum   'Gd8 Al28 N36'
_cell_volume   892.21239634
_cell_formula_units_Z   4
loop_
 _symmetry_equiv_pos_site_id
 _symmetry_equiv_pos_as_xyz
  1  'x, y, z'
loop_
 _atom_site_type_symbol
 _atom_site_label
 _atom_site_symmetry_multiplicity
 _atom_site_fract_x
 _atom_site_fract_y
 _atom_site_fract_z
 _atom_site_occupancy
  Al  Al0  1  0.11234317  0.09508543  0.30243682  1
  Al  Al1  1  0.22102512  0.21018797  0.05970649  1
  Al  Al2  1  0.53982802  0.21512042  0.13505420  1
  Al  Al3  1  0.12220946  0.08683219  0.81632991  1
  Al  Al4  1  0.21957261  0.20489882  0.56846848  1
  Al  Al5  1  0.79121809  0.09001908  0.28424624  1
  Al  Al6  1  0.90966669  0.20153288  0.06432506  1
  Al  Al7  1  0.41704164  0.10886725  0.80584238  1
  Al  Al8  1  0.53814975  0.22019875  0.62751595  1
  Al  Al9  1  0.11057823  0.42680107  0.30118307  1
  Al  Al10  1  0.21493631  0.53937415  0.06294995  1
  Al  Al11  1  0.43879776  0.43303531  0.32281136  1
  Al  Al12  1  0.12454895  0.42524561  0.81582467  1
  Al  Al13  1  0.23163768  0.53589543  0.55761243  1
  Al  Al14  1  0.78857548  0.42611293  0.29109427  1
  Al  Al15  1  0.91108153  0.53115536  0.05746435  1
  Al  Al16  1  0.41348554  0.45006130  0.80760347  1
  Al  Al17  1  0.54936972  0.54388990  0.54458659  1
  Al  Al18  1  0.11566217  0.76077158  0.30290662  1
  Al  Al19  1  0.21186004  0.87794605  0.05936300  1
  Al  Al20  1  0.79712327  0.75111426  0.81763477  1
  Al  Al21  1  0.44129442  0.76280804  0.30954052  1
  Al  Al22  1  0.12020067  0.75496649  0.81378467  1
  Al  Al23  1  0.23408326  0.86617081  0.56223678  1
  Al  Al24  1  0.79167657  0.75064158  0.28564952  1
  Al  Al25  1  0.90833690  0.85561011  0.05890861  1
  Al  Al26  1  0.42207463  0.76152473  0.80434719  1
  Al  Al27  1  0.54989734  0.86938352  0.63415997  1
  Gd  Gd28  1  0.75943144  0.10038800  0.85215864  1
  Gd  Gd29  1  0.89418553  0.19749934  0.54888430  1
  Gd  Gd30  1  0.45006187  0.08722079  0.35620314  1
  Gd  Gd31  1  0.76925927  0.43695789  0.82002260  1
  Gd  Gd32  1  0.90146771  0.53444390  0.55232582  1
  Gd  Gd33  1  0.54290891  0.53732068  0.07835249  1
  Gd  Gd34  1  0.88977070  0.87254792  0.55962482  1
  Gd  Gd35  1  0.55214632  0.87671086  0.06736455  1
  N  N36  1  0.18220915  0.22538486  0.38382593  1
  N  N37  1  0.11917566  0.09281218  0.11712984  1
  N  N38  1  0.92125332  0.19123095  0.87880018  1
  N  N39  1  0.74947033  0.10961916  0.62603223  1
  N  N40  1  0.58123727  0.21289988  0.31921220  1
  N  N41  1  0.42187731  0.12114136  0.12131802  1
  N  N42  1  0.21776286  0.20647389  0.87265543  1
  N  N43  1  0.14170187  0.07606960  0.63270113  1
  N  N44  1  0.89328579  0.20233967  0.32780065  1
  N  N45  1  0.77755700  0.09285562  0.09413938  1
  N  N46  1  0.50273321  0.23603212  0.81364216  1
  N  N47  1  0.43835571  0.09173876  0.60363101  1
  N  N48  1  0.21386977  0.54235556  0.36954142  1
  N  N49  1  0.11617454  0.42382758  0.11562054  1
  N  N50  1  0.91398933  0.54201138  0.86919321  1
  N  N51  1  0.75240638  0.44077252  0.60271826  1
  N  N52  1  0.55681047  0.54007476  0.35158069  1
  N  N53  1  0.41012688  0.42909361  0.13604775  1
  N  N54  1  0.21598418  0.54445921  0.87687651  1
  N  N55  1  0.14840659  0.41214996  0.63275025  1
  N  N56  1  0.89511595  0.53733656  0.33616275  1
  N  N57  1  0.80518461  0.41954066  0.10337571  1
  N  N58  1  0.51437842  0.55563240  0.86142986  1
  N  N59  1  0.44198008  0.43563549  0.59218181  1
  N  N60  1  0.22021703  0.87593584  0.37313918  1
  N  N61  1  0.11486256  0.76078755  0.11670659  1
  N  N62  1  0.91199678  0.84476686  0.86978034  1
  N  N63  1  0.76039482  0.76679869  0.63836831  1
  N  N64  1  0.58295247  0.83591358  0.32154718  1
  N  N65  1  0.40420146  0.78158074  0.13071542  1
  N  N66  1  0.21946417  0.87240908  0.87259443  1
  N  N67  1  0.14256442  0.74576341  0.62808676  1
  N  N68  1  0.89399176  0.87237858  0.33678390  1
  N  N69  1  0.81148577  0.74359547  0.10366564  1
  N  N70  1  0.54151506  0.87862275  0.83191508  1
  N  N71  1  0.44355369  0.75626766  0.61492609  1
