# generated using pymatgen
data_Gd2Al7N9
_symmetry_space_group_name_H-M   'P 1'
_cell_length_a   9.88687754
_cell_length_b   9.82699946
_cell_length_c   10.80334104
_cell_angle_alpha   90.00387526
_cell_angle_beta   89.44359849
_cell_angle_gamma   60.13933056
_symmetry_Int_Tables_number   1
_chemical_formula_structural   Gd2Al7N9
_chemical_formula_sum   'Gd8 Al28 N36'
_cell_volume   910.22638379
_cell_formula_units_Z   4
loop_
 _symmetry_equiv_pos_site_id
 _symmetry_equiv_pos_as_xyz
  1  'x, y, z'
loop_
 _atom_site_type_symbol
 _atom_site_label
 _atom_site_symmetry_multiplicity
 _atom_site_fract_x
 _atom_site_fract_y
 _atom_site_fract_z
 _atom_site_occupancy
  Al  Al0  1  0.11928977  0.07974513  0.31521027  1
  Al  Al1  1  0.22145122  0.20974525  0.14207799  1
  Al  Al2  1  0.54010080  0.21767117  0.13719537  1
  Al  Al3  1  0.10826560  0.09646307  0.85947538  1
  Al  Al4  1  0.22868334  0.19668593  0.66400982  1
  Al  Al5  1  0.78874881  0.08875325  0.29641346  1
  Al  Al6  1  0.90211268  0.20123294  0.08906805  1
  Al  Al7  1  0.41895147  0.11547284  0.89862754  1
  Al  Al8  1  0.52801489  0.21918431  0.66086900  1
  Al  Al9  1  0.11681128  0.43373026  0.31620812  1
  Al  Al10  1  0.21070790  0.54246063  0.06994121  1
  Al  Al11  1  0.46495959  0.42115098  0.40369096  1
  Al  Al12  1  0.11382493  0.43813760  0.83029672  1
  Al  Al13  1  0.22890981  0.53553263  0.57701351  1
  Al  Al14  1  0.80212489  0.41988518  0.31044861  1
  Al  Al15  1  0.91273877  0.53254701  0.07559274  1
  Al  Al16  1  0.41814898  0.44042915  0.89156140  1
  Al  Al17  1  0.52759786  0.55157186  0.65111193  1
  Al  Al18  1  0.12321390  0.75558328  0.32062556  1
  Al  Al19  1  0.20574780  0.87561271  0.06937646  1
  Al  Al20  1  0.78727768  0.75767770  0.83912971  1
  Al  Al21  1  0.47207053  0.74468277  0.40909243  1
  Al  Al22  1  0.11822758  0.75601074  0.82437310  1
  Al  Al23  1  0.22726285  0.87415316  0.57453123  1
  Al  Al24  1  0.80091042  0.74598076  0.30762234  1
  Al  Al25  1  0.90975199  0.85524019  0.07512713  1
  Al  Al26  1  0.41912322  0.77179286  0.89054718  1
  Al  Al27  1  0.53988811  0.87873715  0.67072421  1
  Gd  Gd28  1  0.76418703  0.09812846  0.86158470  1
  Gd  Gd29  1  0.87451028  0.21109913  0.56262526  1
  Gd  Gd30  1  0.45086413  0.09046099  0.40221117  1
  Gd  Gd31  1  0.75753598  0.44642373  0.85940510  1
  Gd  Gd32  1  0.88810714  0.53734380  0.57825650  1
  Gd  Gd33  1  0.53628350  0.54120627  0.15186757  1
  Gd  Gd34  1  0.88806312  0.87134109  0.57453281  1
  Gd  Gd35  1  0.55817432  0.87179512  0.11617369  1
  N  N36  1  0.21106524  0.20988880  0.32254402  1
  N  N37  1  0.11946468  0.08331377  0.13071057  1
  N  N38  1  0.90774821  0.20215886  0.91473283  1
  N  N39  1  0.74745096  0.10565845  0.64802424  1
  N  N40  1  0.56484695  0.22445692  0.31455934  1
  N  N41  1  0.42508657  0.12595570  0.07673028  1
  N  N42  1  0.21150476  0.20991468  0.84624597  1
  N  N43  1  0.12536233  0.08593519  0.62695597  1
  N  N44  1  0.89650704  0.19740122  0.34403597  1
  N  N45  1  0.78068633  0.08661254  0.11514419  1
  N  N46  1  0.50000498  0.23699648  0.83313071  1
  N  N47  1  0.44089327  0.09078025  0.61365994  1
  N  N48  1  0.22358817  0.53917084  0.38853360  1
  N  N49  1  0.11760733  0.43195146  0.13575671  1
  N  N50  1  0.90600182  0.54945655  0.89633167  1
  N  N51  1  0.74864366  0.44105541  0.65148485  1
  N  N52  1  0.57470496  0.52902394  0.36142200  1
  N  N53  1  0.43236854  0.41567705  0.06763972  1
  N  N54  1  0.20181196  0.55351591  0.89305518  1
  N  N55  1  0.13856490  0.42210714  0.65125804  1
  N  N56  1  0.90212183  0.53326528  0.36487224  1
  N  N57  1  0.80346551  0.42283814  0.12848882  1
  N  N58  1  0.49155356  0.56993251  0.82650876  1
  N  N59  1  0.45139815  0.41941453  0.58058791  1
  N  N60  1  0.22990496  0.86543381  0.38581778  1
  N  N61  1  0.12197105  0.75471611  0.13892323  1
  N  N62  1  0.90757240  0.84482206  0.89488736  1
  N  N63  1  0.75849866  0.77017292  0.66573127  1
  N  N64  1  0.57870692  0.83935087  0.33310198  1
  N  N65  1  0.42010258  0.76621743  0.06429812  1
  N  N66  1  0.19767457  0.88375000  0.88871807  1
  N  N67  1  0.14401421  0.74591562  0.64433931  1
  N  N68  1  0.89312878  0.87354051  0.35775087  1
  N  N69  1  0.82010160  0.73969515  0.13222691  1
  N  N70  1  0.53951082  0.88089205  0.85644688  1
  N  N71  1  0.45161062  0.76330655  0.58894091  1
