# generated using pymatgen
data_Gd2Al7N9
_symmetry_space_group_name_H-M   'P 1'
_cell_length_a   9.89744954
_cell_length_b   9.82875892
_cell_length_c   10.73239923
_cell_angle_alpha   90.20887282
_cell_angle_beta   89.83568371
_cell_angle_gamma   60.26308345
_symmetry_Int_Tables_number   1
_chemical_formula_structural   Gd2Al7N9
_chemical_formula_sum   'Gd8 Al28 N36'
_cell_volume   906.53686460
_cell_formula_units_Z   4
loop_
 _symmetry_equiv_pos_site_id
 _symmetry_equiv_pos_as_xyz
  1  'x, y, z'
loop_
 _atom_site_type_symbol
 _atom_site_label
 _atom_site_symmetry_multiplicity
 _atom_site_fract_x
 _atom_site_fract_y
 _atom_site_fract_z
 _atom_site_occupancy
  Al  Al0  1  0.12695614  0.08338664  0.38745542  1
  Al  Al1  1  0.21880047  0.20644937  0.14450383  1
  Al  Al2  1  0.54011207  0.21882217  0.13825294  1
  Al  Al3  1  0.11707090  0.09250736  0.90160076  1
  Al  Al4  1  0.22617715  0.19493462  0.65595203  1
  Al  Al5  1  0.79398088  0.08855605  0.29682977  1
  Al  Al6  1  0.89986689  0.20214882  0.08237562  1
  Al  Al7  1  0.41523833  0.11704434  0.89739651  1
  Al  Al8  1  0.52395417  0.21981234  0.66142293  1
  Al  Al9  1  0.11750076  0.43185386  0.31663071  1
  Al  Al10  1  0.21076754  0.54258902  0.07101437  1
  Al  Al11  1  0.46629453  0.42088665  0.40238585  1
  Al  Al12  1  0.11548222  0.43447440  0.82746646  1
  Al  Al13  1  0.22861461  0.53336889  0.57370577  1
  Al  Al14  1  0.80419820  0.41699429  0.31080350  1
  Al  Al15  1  0.91515735  0.53119369  0.07537690  1
  Al  Al16  1  0.41730744  0.44106267  0.89266827  1
  Al  Al17  1  0.52509412  0.55257880  0.65195438  1
  Al  Al18  1  0.12122302  0.75178378  0.32006510  1
  Al  Al19  1  0.21839716  0.87967073  0.14285113  1
  Al  Al20  1  0.79035874  0.75586550  0.83967091  1
  Al  Al21  1  0.46231104  0.74967329  0.40696135  1
  Al  Al22  1  0.11704085  0.75354184  0.82302639  1
  Al  Al23  1  0.22814926  0.87680704  0.64332747  1
  Al  Al24  1  0.79980618  0.74524534  0.30612052  1
  Al  Al25  1  0.91309512  0.85404571  0.07492628  1
  Al  Al26  1  0.41087039  0.77624815  0.88854206  1
  Al  Al27  1  0.54103652  0.87859908  0.67125131  1
  Gd  Gd28  1  0.75903787  0.09680797  0.86423848  1
  Gd  Gd29  1  0.86103990  0.21714526  0.56885614  1
  Gd  Gd30  1  0.45655880  0.08775623  0.39918107  1
  Gd  Gd31  1  0.75592085  0.44780618  0.86096999  1
  Gd  Gd32  1  0.88622027  0.53825909  0.57755566  1
  Gd  Gd33  1  0.53611636  0.54624034  0.14994263  1
  Gd  Gd34  1  0.88628363  0.87201610  0.57380123  1
  Gd  Gd35  1  0.55898556  0.87160240  0.10914719  1
  N  N36  1  0.21100964  0.20686211  0.32416920  1
  N  N37  1  0.12252118  0.08956403  0.08655419  1
  N  N38  1  0.90296620  0.20127216  0.90376819  1
  N  N39  1  0.74237740  0.10448819  0.65004762  1
  N  N40  1  0.56976320  0.22293737  0.31530783  1
  N  N41  1  0.42382925  0.12698251  0.07863906  1
  N  N42  1  0.20930793  0.20549525  0.83803754  1
  N  N43  1  0.13291120  0.08500718  0.57293393  1
  N  N44  1  0.90144121  0.19574413  0.35097251  1
  N  N45  1  0.78332083  0.08682381  0.11456243  1
  N  N46  1  0.49515186  0.23907938  0.83387924  1
  N  N47  1  0.44053793  0.08924239  0.61188203  1
  N  N48  1  0.22530366  0.53742977  0.38697613  1
  N  N49  1  0.11937578  0.42950702  0.13627259  1
  N  N50  1  0.90899258  0.54725058  0.89496252  1
  N  N51  1  0.74389162  0.44710806  0.65240093  1
  N  N52  1  0.57428270  0.53000768  0.36120312  1
  N  N53  1  0.43273409  0.41735262  0.07039236  1
  N  N54  1  0.20197247  0.55217859  0.89296165  1
  N  N55  1  0.13832778  0.41968024  0.64686898  1
  N  N56  1  0.90297948  0.53274540  0.36354404  1
  N  N57  1  0.80389176  0.42120551  0.12672325  1
  N  N58  1  0.49060346  0.57002209  0.82900362  1
  N  N59  1  0.45127018  0.41867534  0.58031506  1
  N  N60  1  0.24083791  0.86298261  0.33420037  1
  N  N61  1  0.12036016  0.75362683  0.13892613  1
  N  N62  1  0.91148373  0.84370155  0.89457445  1
  N  N63  1  0.75800599  0.77027380  0.66534939  1
  N  N64  1  0.57896661  0.83704071  0.33115090  1
  N  N65  1  0.40693632  0.77488215  0.06113699  1
  N  N66  1  0.20752069  0.89216377  0.82594684  1
  N  N67  1  0.13914697  0.74017760  0.64184599  1
  N  N68  1  0.89397462  0.87270865  0.35714820  1
  N  N69  1  0.82041410  0.73948404  0.12992101  1
  N  N70  1  0.54254263  0.88033163  0.85895002  1
  N  N71  1  0.44390389  0.76615898  0.59099815  1
