# generated using pymatgen
data_Gd2Al7N9
_symmetry_space_group_name_H-M   'P 1'
_cell_length_a   9.88259636
_cell_length_b   9.82713453
_cell_length_c   10.79742827
_cell_angle_alpha   90.03755589
_cell_angle_beta   89.43670484
_cell_angle_gamma   60.12474853
_symmetry_Int_Tables_number   1
_chemical_formula_structural   Gd2Al7N9
_chemical_formula_sum   'Gd8 Al28 N36'
_cell_volume   909.20869985
_cell_formula_units_Z   4
loop_
 _symmetry_equiv_pos_site_id
 _symmetry_equiv_pos_as_xyz
  1  'x, y, z'
loop_
 _atom_site_type_symbol
 _atom_site_label
 _atom_site_symmetry_multiplicity
 _atom_site_fract_x
 _atom_site_fract_y
 _atom_site_fract_z
 _atom_site_occupancy
  Al  Al0  1  0.11769382  0.08043920  0.31433170  1
  Al  Al1  1  0.22065568  0.20948050  0.14223499  1
  Al  Al2  1  0.54023642  0.21794483  0.13706767  1
  Al  Al3  1  0.10787752  0.09180817  0.83464774  1
  Al  Al4  1  0.23147875  0.19905909  0.66569919  1
  Al  Al5  1  0.78899933  0.08997515  0.29639417  1
  Al  Al6  1  0.90615705  0.19936138  0.08428580  1
  Al  Al7  1  0.41716527  0.11632210  0.89922867  1
  Al  Al8  1  0.52853969  0.21939475  0.66071027  1
  Al  Al9  1  0.11644014  0.43425268  0.31646636  1
  Al  Al10  1  0.21077950  0.54279189  0.07030131  1
  Al  Al11  1  0.46479226  0.42175766  0.40331673  1
  Al  Al12  1  0.11367517  0.43755228  0.83108161  1
  Al  Al13  1  0.22874509  0.53591463  0.57663263  1
  Al  Al14  1  0.80209546  0.41926484  0.31056682  1
  Al  Al15  1  0.91298808  0.53230665  0.07556031  1
  Al  Al16  1  0.41815839  0.44023117  0.89142698  1
  Al  Al17  1  0.52814684  0.55096878  0.65142998  1
  Al  Al18  1  0.12247273  0.75698671  0.32091597  1
  Al  Al19  1  0.20421077  0.87839956  0.06678853  1
  Al  Al20  1  0.78665306  0.75793314  0.83934389  1
  Al  Al21  1  0.47114533  0.74572504  0.40954922  1
  Al  Al22  1  0.11818340  0.75535977  0.82507099  1
  Al  Al23  1  0.22751541  0.87270375  0.57823292  1
  Al  Al24  1  0.80047890  0.74627029  0.30742655  1
  Al  Al25  1  0.91006821  0.85517295  0.07539892  1
  Al  Al26  1  0.41882463  0.77161947  0.89027169  1
  Al  Al27  1  0.53966863  0.87905372  0.67106749  1
  Gd  Gd28  1  0.76375532  0.09795657  0.86298762  1
  Gd  Gd29  1  0.87765238  0.20924095  0.56535424  1
  Gd  Gd30  1  0.45133982  0.09088829  0.40087538  1
  Gd  Gd31  1  0.75901954  0.44451557  0.85993739  1
  Gd  Gd32  1  0.88714865  0.53829614  0.57796598  1
  Gd  Gd33  1  0.53681711  0.54125066  0.15087366  1
  Gd  Gd34  1  0.88765240  0.87152615  0.57428979  1
  Gd  Gd35  1  0.55791651  0.87166996  0.11560221  1
  N  N36  1  0.20982849  0.21065518  0.32439313  1
  N  N37  1  0.11918208  0.08231869  0.13460450  1
  N  N38  1  0.91277609  0.19834287  0.90991531  1
  N  N39  1  0.74789325  0.10634032  0.64788417  1
  N  N40  1  0.56498546  0.22513800  0.31413214  1
  N  N41  1  0.42486557  0.12604304  0.07760669  1
  N  N42  1  0.21097859  0.21053867  0.84603054  1
  N  N43  1  0.12616559  0.08125318  0.64708361  1
  N  N44  1  0.89569755  0.19828337  0.34790595  1
  N  N45  1  0.78163972  0.08722302  0.11444390  1
  N  N46  1  0.49962526  0.23682787  0.83288383  1
  N  N47  1  0.44122897  0.09065260  0.61226285  1
  N  N48  1  0.22319969  0.54022532  0.38847644  1
  N  N49  1  0.11781211  0.43179341  0.13609770  1
  N  N50  1  0.90546934  0.54979423  0.89625284  1
  N  N51  1  0.74927965  0.44000023  0.65101338  1
  N  N52  1  0.57337388  0.53044841  0.36072344  1
  N  N53  1  0.43247103  0.41570188  0.06757241  1
  N  N54  1  0.20175267  0.55312156  0.89330731  1
  N  N55  1  0.13785011  0.42297322  0.65057291  1
  N  N56  1  0.90143532  0.53373922  0.36470937  1
  N  N57  1  0.80497081  0.42072900  0.12745436  1
  N  N58  1  0.49265093  0.56890141  0.82669193  1
  N  N59  1  0.45133678  0.41959517  0.58040435  1
  N  N60  1  0.22673936  0.86931955  0.39001164  1
  N  N61  1  0.12236789  0.75556185  0.13893364  1
  N  N62  1  0.90734989  0.84460361  0.89498384  1
  N  N63  1  0.75807389  0.77078261  0.66567093  1
  N  N64  1  0.57812965  0.83951797  0.33292662  1
  N  N65  1  0.41921208  0.76676529  0.06412609  1
  N  N66  1  0.19769909  0.88340878  0.88717918  1
  N  N67  1  0.14337436  0.74550684  0.64483473  1
  N  N68  1  0.89236907  0.87426736  0.35754419  1
  N  N69  1  0.82010757  0.73961731  0.13214788  1
  N  N70  1  0.53919574  0.88128606  0.85644063  1
  N  N71  1  0.45165624  0.76329229  0.58965669  1
