# generated using pymatgen
data_Gd2Al7N9
_symmetry_space_group_name_H-M   'P 1'
_cell_length_a   10.09436582
_cell_length_b   9.86208719
_cell_length_c   10.26338646
_cell_angle_alpha   90.00025650
_cell_angle_beta   90.78425887
_cell_angle_gamma   60.74748418
_symmetry_Int_Tables_number   1
_chemical_formula_structural   Gd2Al7N9
_chemical_formula_sum   'Gd8 Al28 N36'
_cell_volume   891.32870865
_cell_formula_units_Z   4
loop_
 _symmetry_equiv_pos_site_id
 _symmetry_equiv_pos_as_xyz
  1  'x, y, z'
loop_
 _atom_site_type_symbol
 _atom_site_label
 _atom_site_symmetry_multiplicity
 _atom_site_fract_x
 _atom_site_fract_y
 _atom_site_fract_z
 _atom_site_occupancy
  Al  Al0  1  0.12689342  0.08613924  0.39885431  1
  Al  Al1  1  0.21242700  0.21470410  0.15062156  1
  Al  Al2  1  0.53061335  0.22465529  0.15135855  1
  Al  Al3  1  0.11420579  0.09089817  0.90151798  1
  Al  Al4  1  0.22856531  0.19929853  0.65796718  1
  Al  Al5  1  0.78564531  0.09044104  0.32383539  1
  Al  Al6  1  0.91196053  0.19790234  0.15322068  1
  Al  Al7  1  0.41696857  0.11613768  0.90575124  1
  Al  Al8  1  0.52480172  0.22154546  0.67091044  1
  Al  Al9  1  0.12520722  0.42080291  0.40321788  1
  Al  Al10  1  0.21689439  0.53815989  0.15606115  1
  Al  Al11  1  0.45548262  0.42792449  0.41220708  1
  Al  Al12  1  0.11876904  0.42762037  0.90168090  1
  Al  Al13  1  0.23094735  0.53480780  0.64909950  1
  Al  Al14  1  0.79381091  0.42945685  0.33524488  1
  Al  Al15  1  0.91142084  0.53460225  0.08863280  1
  Al  Al16  1  0.40773311  0.44346952  0.90376135  1
  Al  Al17  1  0.52593055  0.55239539  0.66530287  1
  Al  Al18  1  0.13390297  0.75196121  0.39970794  1
  Al  Al19  1  0.21618034  0.87747548  0.15517414  1
  Al  Al20  1  0.78082333  0.76036974  0.85061192  1
  Al  Al21  1  0.46311383  0.75028049  0.41615176  1
  Al  Al22  1  0.11587647  0.75703552  0.90261725  1
  Al  Al23  1  0.22905526  0.87046536  0.64864315  1
  Al  Al24  1  0.80140280  0.74262625  0.32887169  1
  Al  Al25  1  0.91057224  0.85874662  0.10924877  1
  Al  Al26  1  0.41198420  0.77427573  0.90105847  1
  Al  Al27  1  0.53488602  0.88067063  0.67876418  1
  Gd  Gd28  1  0.76195887  0.10006061  0.88627430  1
  Gd  Gd29  1  0.87931250  0.20823916  0.61346861  1
  Gd  Gd30  1  0.45175122  0.08834654  0.40535543  1
  Gd  Gd31  1  0.76232772  0.43257160  0.88168127  1
  Gd  Gd32  1  0.88680881  0.53732553  0.61420932  1
  Gd  Gd33  1  0.54111249  0.54309021  0.14670773  1
  Gd  Gd34  1  0.88199786  0.87489176  0.60270259  1
  Gd  Gd35  1  0.56251976  0.87109860  0.11865176  1
  N  N36  1  0.20264686  0.21603169  0.33400218  1
  N  N37  1  0.11383698  0.09305107  0.09422541  1
  N  N38  1  0.91768776  0.18845206  0.84209489  1
  N  N39  1  0.73191551  0.11202870  0.65169272  1
  N  N40  1  0.56946334  0.22329351  0.33370528  1
  N  N41  1  0.42101987  0.12538607  0.09847184  1
  N  N42  1  0.21083495  0.20990242  0.84772784  1
  N  N43  1  0.14482236  0.07871947  0.58311023  1
  N  N44  1  0.90300451  0.19782080  0.35055384  1
  N  N45  1  0.78585551  0.09100209  0.13017082  1
  N  N46  1  0.50171145  0.23676948  0.85296743  1
  N  N47  1  0.43940213  0.09141431  0.62497429  1
  N  N48  1  0.23300466  0.53363075  0.34361797  1
  N  N49  1  0.12238457  0.42401550  0.09142937  1
  N  N50  1  0.90147173  0.54840987  0.89404332  1
  N  N51  1  0.73469274  0.45048031  0.65905440  1
  N  N52  1  0.56761248  0.53388718  0.36738531  1
  N  N53  1  0.41513294  0.42586084  0.08806555  1
  N  N54  1  0.20637317  0.54782868  0.83775578  1
  N  N55  1  0.15112107  0.40517298  0.58980893  1
  N  N56  1  0.90344901  0.53212184  0.38679956  1
  N  N57  1  0.80762546  0.42035368  0.13684541  1
  N  N58  1  0.49962482  0.56323258  0.85533916  1
  N  N59  1  0.43923350  0.42893509  0.59764669  1
  N  N60  1  0.23655398  0.86702621  0.34314002  1
  N  N61  1  0.12374084  0.75585586  0.09729200  1
  N  N62  1  0.90286086  0.84796666  0.89188836  1
  N  N63  1  0.74364519  0.77673425  0.66995107  1
  N  N64  1  0.58359729  0.83552450  0.34828565  1
  N  N65  1  0.40491803  0.78240750  0.08188962  1
  N  N66  1  0.20960904  0.87918925  0.83805714  1
  N  N67  1  0.14637122  0.74429635  0.58582214  1
  N  N68  1  0.90030692  0.87030162  0.36793323  1
  N  N69  1  0.82208405  0.73756055  0.14505917  1
  N  N70  1  0.53948017  0.88103173  0.87293221  1
  N  N71  1  0.44118136  0.76598055  0.60531244  1
