# generated using pymatgen
data_Gd2Al7N9
_symmetry_space_group_name_H-M   'P 1'
_cell_length_a   10.06120810
_cell_length_b   9.85332599
_cell_length_c   10.32545819
_cell_angle_alpha   90.13070940
_cell_angle_beta   90.81668599
_cell_angle_gamma   60.73719885
_symmetry_Int_Tables_number   1
_chemical_formula_structural   Gd2Al7N9
_chemical_formula_sum   'Gd8 Al28 N36'
_cell_volume   892.89629866
_cell_formula_units_Z   4
loop_
 _symmetry_equiv_pos_site_id
 _symmetry_equiv_pos_as_xyz
  1  'x, y, z'
loop_
 _atom_site_type_symbol
 _atom_site_label
 _atom_site_symmetry_multiplicity
 _atom_site_fract_x
 _atom_site_fract_y
 _atom_site_fract_z
 _atom_site_occupancy
  Al  Al0  1  0.12661140  0.08596526  0.39823234  1
  Al  Al1  1  0.21250617  0.21452223  0.15064191  1
  Al  Al2  1  0.53248836  0.22380771  0.15055798  1
  Al  Al3  1  0.11383672  0.09137520  0.90137959  1
  Al  Al4  1  0.22853607  0.19913179  0.65804229  1
  Al  Al5  1  0.78716208  0.08698099  0.32023915  1
  Al  Al6  1  0.91102146  0.19703865  0.15192644  1
  Al  Al7  1  0.41672898  0.11658845  0.90657190  1
  Al  Al8  1  0.52432200  0.22200328  0.67137570  1
  Al  Al9  1  0.12542937  0.42013252  0.40282650  1
  Al  Al10  1  0.21705929  0.53778340  0.15647329  1
  Al  Al11  1  0.45667424  0.42686752  0.41193708  1
  Al  Al12  1  0.11841915  0.42750207  0.90214763  1
  Al  Al13  1  0.23077625  0.53454157  0.64819306  1
  Al  Al14  1  0.79457377  0.42823278  0.33380241  1
  Al  Al15  1  0.91092857  0.53399814  0.08906051  1
  Al  Al16  1  0.40696809  0.44443017  0.90393853  1
  Al  Al17  1  0.52542082  0.55309772  0.66543451  1
  Al  Al18  1  0.13320319  0.75192214  0.39909551  1
  Al  Al19  1  0.21554743  0.87739929  0.15539821  1
  Al  Al20  1  0.78112465  0.76025547  0.85287151  1
  Al  Al21  1  0.46397977  0.75012030  0.41665361  1
  Al  Al22  1  0.11869895  0.75593959  0.90235598  1
  Al  Al23  1  0.22929815  0.87081658  0.64783971  1
  Al  Al24  1  0.80275319  0.74318132  0.32716903  1
  Al  Al25  1  0.90961940  0.85583915  0.09351370  1
  Al  Al26  1  0.41199395  0.77519764  0.90126287  1
  Al  Al27  1  0.53628931  0.88090216  0.68029044  1
  Gd  Gd28  1  0.76070769  0.10164276  0.88376895  1
  Gd  Gd29  1  0.87845579  0.20944021  0.61300709  1
  Gd  Gd30  1  0.45231825  0.08850750  0.40627619  1
  Gd  Gd31  1  0.76157527  0.43366343  0.88116365  1
  Gd  Gd32  1  0.88553505  0.53933406  0.61195972  1
  Gd  Gd33  1  0.53990766  0.54440022  0.14808752  1
  Gd  Gd34  1  0.88138292  0.87616561  0.59893795  1
  Gd  Gd35  1  0.56164424  0.87207238  0.12004337  1
  N  N36  1  0.20315434  0.21534529  0.33319655  1
  N  N37  1  0.11357710  0.09280513  0.09325104  1
  N  N38  1  0.91736012  0.18939899  0.84093119  1
  N  N39  1  0.73268001  0.11191990  0.65477295  1
  N  N40  1  0.57028555  0.22239727  0.33246173  1
  N  N41  1  0.42093228  0.12610512  0.09730522  1
  N  N42  1  0.21064654  0.21002769  0.84700664  1
  N  N43  1  0.14446727  0.07892381  0.58193600  1
  N  N44  1  0.90337181  0.19632324  0.34851175  1
  N  N45  1  0.78477156  0.08990037  0.12801757  1
  N  N46  1  0.50026069  0.23811473  0.85230024  1
  N  N47  1  0.44029562  0.09091636  0.62495123  1
  N  N48  1  0.23334822  0.53300560  0.34340987  1
  N  N49  1  0.12262691  0.42349908  0.09116410  1
  N  N50  1  0.90106924  0.54877069  0.89594244  1
  N  N51  1  0.73482689  0.45162602  0.66011436  1
  N  N52  1  0.56839346  0.53346325  0.36760988  1
  N  N53  1  0.41584276  0.42551627  0.08728114  1
  N  N54  1  0.20525727  0.54813948  0.83623433  1
  N  N55  1  0.15072165  0.40465533  0.58881006  1
  N  N56  1  0.90329404  0.53231079  0.38579406  1
  N  N57  1  0.80680975  0.41982412  0.13661137  1
  N  N58  1  0.49805389  0.56455499  0.85411386  1
  N  N59  1  0.43993177  0.42833458  0.59671676  1
  N  N60  1  0.23677380  0.86656204  0.34281328  1
  N  N61  1  0.12520294  0.75442089  0.09721275  1
  N  N62  1  0.90237598  0.84761483  0.90243228  1
  N  N63  1  0.74631324  0.77764959  0.67396112  1
  N  N64  1  0.58382311  0.83584600  0.34809593  1
  N  N65  1  0.40443239  0.78303398  0.08092540  1
  N  N66  1  0.20934970  0.87976884  0.83672023  1
  N  N67  1  0.14637364  0.74420550  0.58508167  1
  N  N68  1  0.89827956  0.87070403  0.37259782  1
  N  N69  1  0.82221159  0.73743422  0.14499019  1
  N  N70  1  0.53947559  0.88162805  0.87359108  1
  N  N71  1  0.44244281  0.76627133  0.60504860  1
