# generated using pymatgen
data_Gd2Al7N9
_symmetry_space_group_name_H-M   'P 1'
_cell_length_a   10.02709031
_cell_length_b   9.85977548
_cell_length_c   10.30884651
_cell_angle_alpha   90.08521880
_cell_angle_beta   90.12676994
_cell_angle_gamma   60.28153508
_symmetry_Int_Tables_number   1
_chemical_formula_structural   Gd2Al7N9
_chemical_formula_sum   'Gd8 Al28 N36'
_cell_volume   885.12913847
_cell_formula_units_Z   4
loop_
 _symmetry_equiv_pos_site_id
 _symmetry_equiv_pos_as_xyz
  1  'x, y, z'
loop_
 _atom_site_type_symbol
 _atom_site_label
 _atom_site_symmetry_multiplicity
 _atom_site_fract_x
 _atom_site_fract_y
 _atom_site_fract_z
 _atom_site_occupancy
  Al  Al0  1  0.10986190  0.09496214  0.30130888  1
  Al  Al1  1  0.21936850  0.20943147  0.05797622  1
  Al  Al2  1  0.52723878  0.21735634  0.06372715  1
  Al  Al3  1  0.12438618  0.08741663  0.81709327  1
  Al  Al4  1  0.22200646  0.20584678  0.57047430  1
  Al  Al5  1  0.77473727  0.09807433  0.28625152  1
  Al  Al6  1  0.90621276  0.20302823  0.06927712  1
  Al  Al7  1  0.42472783  0.11314545  0.80861777  1
  Al  Al8  1  0.55186069  0.21695667  0.56750402  1
  Al  Al9  1  0.10993127  0.42739322  0.30206497  1
  Al  Al10  1  0.21705901  0.53712342  0.06110725  1
  Al  Al11  1  0.43930632  0.42687273  0.31734517  1
  Al  Al12  1  0.12549398  0.42625725  0.81590504  1
  Al  Al13  1  0.23262489  0.53569616  0.56139878  1
  Al  Al14  1  0.78426278  0.42973071  0.29152538  1
  Al  Al15  1  0.91102769  0.53164044  0.05775013  1
  Al  Al16  1  0.42312228  0.44049225  0.80390116  1
  Al  Al17  1  0.54698103  0.54389550  0.54921496  1
  Al  Al18  1  0.11503769  0.76104500  0.30288677  1
  Al  Al19  1  0.21167435  0.87703960  0.05904151  1
  Al  Al20  1  0.79708041  0.75223958  0.81845837  1
  Al  Al21  1  0.44024167  0.76053581  0.31116249  1
  Al  Al22  1  0.12296855  0.75324577  0.81408369  1
  Al  Al23  1  0.23303643  0.86822399  0.56231471  1
  Al  Al24  1  0.78939417  0.75167374  0.28610009  1
  Al  Al25  1  0.90599333  0.85717830  0.06100602  1
  Al  Al26  1  0.42374266  0.76196967  0.80333629  1
  Al  Al27  1  0.54937089  0.87370870  0.63380100  1
  Gd  Gd28  1  0.76837645  0.09745031  0.84343167  1
  Gd  Gd29  1  0.89706004  0.19787164  0.54351620  1
  Gd  Gd30  1  0.44244097  0.09007351  0.34135769  1
  Gd  Gd31  1  0.77292233  0.43520030  0.82007625  1
  Gd  Gd32  1  0.90011603  0.53573396  0.55272510  1
  Gd  Gd33  1  0.54182559  0.53496858  0.07481712  1
  Gd  Gd34  1  0.89082374  0.87203808  0.55706398  1
  Gd  Gd35  1  0.55236384  0.87114962  0.06536868  1
  N  N36  1  0.17851940  0.22572275  0.38509575  1
  N  N37  1  0.11946873  0.09204818  0.11680889  1
  N  N38  1  0.92434465  0.19119844  0.88343447  1
  N  N39  1  0.75260519  0.11056031  0.62591074  1
  N  N40  1  0.57590561  0.21614337  0.37320923  1
  N  N41  1  0.42276264  0.11743923  0.11881416  1
  N  N42  1  0.22025918  0.20689647  0.87071880  1
  N  N43  1  0.14214544  0.07772004  0.63278766  1
  N  N44  1  0.88808997  0.20401630  0.32113054  1
  N  N45  1  0.76602008  0.09822742  0.09603099  1
  N  N46  1  0.50940427  0.23315663  0.87254259  1
  N  N47  1  0.44186283  0.09935640  0.60938440  1
  N  N48  1  0.21648449  0.54078672  0.37145644  1
  N  N49  1  0.11727435  0.42305198  0.11557113  1
  N  N50  1  0.91515642  0.54257346  0.86919556  1
  N  N51  1  0.75280591  0.43935265  0.60123784  1
  N  N52  1  0.55219426  0.53856218  0.35430466  1
  N  N53  1  0.41610222  0.41762829  0.13556682  1
  N  N54  1  0.22158463  0.54193521  0.87437436  1
  N  N55  1  0.14691124  0.41400752  0.63246545  1
  N  N56  1  0.89419418  0.53801665  0.33595289  1
  N  N57  1  0.80238489  0.42328294  0.10330412  1
  N  N58  1  0.51755723  0.55560955  0.85854538  1
  N  N59  1  0.44220309  0.43345924  0.61287856  1
  N  N60  1  0.21693362  0.87767288  0.37305563  1
  N  N61  1  0.11565616  0.75874981  0.11634258  1
  N  N62  1  0.91455077  0.84285987  0.87179965  1
  N  N63  1  0.76079971  0.76860509  0.63814538  1
  N  N64  1  0.58075143  0.83516693  0.32309467  1
  N  N65  1  0.40412202  0.77773736  0.13164567  1
  N  N66  1  0.22082807  0.87229995  0.87221454  1
  N  N67  1  0.14229257  0.74724905  0.62735564  1
  N  N68  1  0.89043924  0.87488792  0.33423637  1
  N  N69  1  0.81038143  0.74359254  0.10372336  1
  N  N70  1  0.54319653  0.87894093  0.83171592  1
  N  N71  1  0.44328504  0.75910524  0.61369485  1
