# generated using pymatgen
data_Gd2Al7N9
_symmetry_space_group_name_H-M   'P 1'
_cell_length_a   10.01043178
_cell_length_b   9.86616131
_cell_length_c   10.44778672
_cell_angle_alpha   90.19009886
_cell_angle_beta   90.56917128
_cell_angle_gamma   60.67601776
_symmetry_Int_Tables_number   1
_chemical_formula_structural   Gd2Al7N9
_chemical_formula_sum   'Gd8 Al28 N36'
_cell_volume   899.60555941
_cell_formula_units_Z   4
loop_
 _symmetry_equiv_pos_site_id
 _symmetry_equiv_pos_as_xyz
  1  'x, y, z'
loop_
 _atom_site_type_symbol
 _atom_site_label
 _atom_site_symmetry_multiplicity
 _atom_site_fract_x
 _atom_site_fract_y
 _atom_site_fract_z
 _atom_site_occupancy
  Al  Al0  1  0.12635998  0.08659370  0.39319339  1
  Al  Al1  1  0.21324209  0.21442041  0.14604754  1
  Al  Al2  1  0.53539315  0.22208851  0.14379600  1
  Al  Al3  1  0.11407009  0.09401069  0.89699229  1
  Al  Al4  1  0.22881030  0.19913471  0.65359152  1
  Al  Al5  1  0.78586286  0.08803677  0.31065980  1
  Al  Al6  1  0.90952586  0.19805810  0.14551978  1
  Al  Al7  1  0.41846745  0.11676789  0.90084499  1
  Al  Al8  1  0.52691211  0.22062033  0.66698180  1
  Al  Al9  1  0.12548091  0.41930099  0.39787005  1
  Al  Al10  1  0.22007535  0.53018336  0.15190945  1
  Al  Al11  1  0.45480379  0.42722358  0.40702489  1
  Al  Al12  1  0.11821020  0.42556099  0.89883674  1
  Al  Al13  1  0.23182667  0.52664607  0.64615941  1
  Al  Al14  1  0.79414286  0.42769435  0.32769660  1
  Al  Al15  1  0.90900559  0.53396443  0.08245886  1
  Al  Al16  1  0.40789315  0.44337885  0.89979954  1
  Al  Al17  1  0.52250920  0.55481974  0.66050202  1
  Al  Al18  1  0.11900045  0.75871773  0.32953085  1
  Al  Al19  1  0.21778623  0.88271541  0.15005498  1
  Al  Al20  1  0.78669259  0.75824671  0.84701135  1
  Al  Al21  1  0.46167986  0.75148005  0.41113931  1
  Al  Al22  1  0.11483472  0.75830855  0.82451721  1
  Al  Al23  1  0.23078651  0.87654247  0.64497385  1
  Al  Al24  1  0.80110506  0.74243780  0.31736920  1
  Al  Al25  1  0.91864392  0.84893404  0.08284255  1
  Al  Al26  1  0.41225431  0.77589495  0.89722133  1
  Al  Al27  1  0.53829393  0.88063090  0.67660580  1
  Gd  Gd28  1  0.76591555  0.09568664  0.87645842  1
  Gd  Gd29  1  0.87872730  0.20997075  0.60967098  1
  Gd  Gd30  1  0.45251852  0.08806643  0.40225915  1
  Gd  Gd31  1  0.75823253  0.43520443  0.87471391  1
  Gd  Gd32  1  0.88274452  0.54039219  0.60351293  1
  Gd  Gd33  1  0.53780111  0.54613930  0.14610733  1
  Gd  Gd34  1  0.88074272  0.87551457  0.58113552  1
  Gd  Gd35  1  0.56218252  0.87325748  0.11302089  1
  N  N36  1  0.20369880  0.21510352  0.32699584  1
  N  N37  1  0.11328167  0.09478390  0.08704843  1
  N  N38  1  0.91696844  0.19076012  0.83527783  1
  N  N39  1  0.73651543  0.10803420  0.64958317  1
  N  N40  1  0.56891869  0.22259409  0.32519857  1
  N  N41  1  0.42146201  0.12688244  0.08953203  1
  N  N42  1  0.21159109  0.21051009  0.84098445  1
  N  N43  1  0.14439456  0.08062670  0.57502256  1
  N  N44  1  0.90314981  0.19589097  0.34119545  1
  N  N45  1  0.78437194  0.09009073  0.12013090  1
  N  N46  1  0.50467713  0.23649087  0.84653109  1
  N  N47  1  0.44209047  0.09013943  0.61993022  1
  N  N48  1  0.23435636  0.52888409  0.33981121  1
  N  N49  1  0.12186766  0.42209543  0.08589371  1
  N  N50  1  0.90002054  0.54802731  0.89274070  1
  N  N51  1  0.73324683  0.45230635  0.65661280  1
  N  N52  1  0.56710155  0.53387919  0.36282502  1
  N  N53  1  0.41788690  0.42423340  0.08110988  1
  N  N54  1  0.20930839  0.53709717  0.83235294  1
  N  N55  1  0.14902580  0.40288518  0.58193941  1
  N  N56  1  0.90198683  0.53332276  0.37968777  1
  N  N57  1  0.80494020  0.42053404  0.13214757  1
  N  N58  1  0.49390684  0.56731849  0.84644244  1
  N  N59  1  0.43943559  0.42790142  0.59037820  1
  N  N60  1  0.23875273  0.86938052  0.33883282  1
  N  N61  1  0.12044127  0.75712828  0.14274685  1
  N  N62  1  0.91592030  0.83970251  0.89844349  1
  N  N63  1  0.75014591  0.77753435  0.67037512  1
  N  N64  1  0.58240805  0.83641086  0.34007365  1
  N  N65  1  0.40517516  0.78269724  0.07435437  1
  N  N66  1  0.21366956  0.88754266  0.83200742  1
  N  N67  1  0.13363606  0.75016226  0.63617120  1
  N  N68  1  0.89484034  0.87207437  0.36210886  1
  N  N69  1  0.82311639  0.73728338  0.13725060  1
  N  N70  1  0.54229275  0.88164930  0.86838183  1
  N  N71  1  0.44268922  0.76663548  0.59801167  1
