# generated using pymatgen
data_Gd2Al7N9
_symmetry_space_group_name_H-M   'P 1'
_cell_length_a   9.87659255
_cell_length_b   9.83332996
_cell_length_c   10.79779577
_cell_angle_alpha   90.16872531
_cell_angle_beta   89.37844663
_cell_angle_gamma   60.13684190
_symmetry_Int_Tables_number   1
_chemical_formula_structural   Gd2Al7N9
_chemical_formula_sum   'Gd8 Al28 N36'
_cell_volume   909.33733373
_cell_formula_units_Z   4
loop_
 _symmetry_equiv_pos_site_id
 _symmetry_equiv_pos_as_xyz
  1  'x, y, z'
loop_
 _atom_site_type_symbol
 _atom_site_label
 _atom_site_symmetry_multiplicity
 _atom_site_fract_x
 _atom_site_fract_y
 _atom_site_fract_z
 _atom_site_occupancy
  Al  Al0  1  0.11591614  0.08209381  0.31535625  1
  Al  Al1  1  0.21953795  0.21048245  0.14310820  1
  Al  Al2  1  0.53996604  0.21904139  0.13682312  1
  Al  Al3  1  0.11077672  0.08783188  0.83106852  1
  Al  Al4  1  0.23383356  0.19859060  0.66630443  1
  Al  Al5  1  0.78847950  0.09236859  0.29639357  1
  Al  Al6  1  0.90857117  0.19784643  0.08055816  1
  Al  Al7  1  0.41604862  0.11708218  0.89974313  1
  Al  Al8  1  0.52972045  0.21920516  0.66002010  1
  Al  Al9  1  0.11465403  0.43651630  0.31647738  1
  Al  Al10  1  0.21082859  0.54327554  0.07059444  1
  Al  Al11  1  0.46389412  0.42370316  0.40219661  1
  Al  Al12  1  0.11347044  0.43700560  0.83124225  1
  Al  Al13  1  0.22853821  0.53564047  0.57655554  1
  Al  Al14  1  0.80143105  0.41932901  0.31083913  1
  Al  Al15  1  0.91284991  0.53232141  0.07547554  1
  Al  Al16  1  0.41823037  0.43979176  0.89099770  1
  Al  Al17  1  0.52989089  0.54930652  0.65076054  1
  Al  Al18  1  0.12106393  0.75906262  0.32118992  1
  Al  Al19  1  0.20426096  0.87839176  0.06595786  1
  Al  Al20  1  0.78598634  0.75750155  0.83946489  1
  Al  Al21  1  0.46934593  0.74757498  0.40913923  1
  Al  Al22  1  0.11733534  0.75436376  0.82554932  1
  Al  Al23  1  0.22872050  0.87012590  0.58025730  1
  Al  Al24  1  0.79828303  0.74823403  0.30702567  1
  Al  Al25  1  0.90981539  0.85530205  0.07597243  1
  Al  Al26  1  0.41996078  0.76992176  0.88964785  1
  Al  Al27  1  0.53957060  0.87921170  0.67071398  1
  Gd  Gd28  1  0.76272351  0.09669751  0.86403626  1
  Gd  Gd29  1  0.88305696  0.20565306  0.56793911  1
  Gd  Gd30  1  0.45017447  0.09330065  0.39968327  1
  Gd  Gd31  1  0.76164651  0.44130113  0.85824487  1
  Gd  Gd32  1  0.88730065  0.53869665  0.57702259  1
  Gd  Gd33  1  0.53898700  0.54062497  0.14860268  1
  Gd  Gd34  1  0.88690390  0.87174013  0.57371524  1
  Gd  Gd35  1  0.55678332  0.87263083  0.11482541  1
  N  N36  1  0.20731339  0.21306303  0.32529743  1
  N  N37  1  0.11923772  0.08191635  0.13539168  1
  N  N38  1  0.91521568  0.19460377  0.90624404  1
  N  N39  1  0.74920240  0.10619112  0.64869705  1
  N  N40  1  0.56442189  0.22710847  0.31316569  1
  N  N41  1  0.42414827  0.12707601  0.07821624  1
  N  N42  1  0.21062929  0.21040597  0.84617364  1
  N  N43  1  0.13134566  0.07710760  0.64980403  1
  N  N44  1  0.89451975  0.19994557  0.35126427  1
  N  N45  1  0.78250815  0.08811810  0.11381908  1
  N  N46  1  0.49869753  0.23674975  0.83213320  1
  N  N47  1  0.44285814  0.09006480  0.61093050  1
  N  N48  1  0.22150132  0.54228305  0.38870016  1
  N  N49  1  0.11751190  0.43264300  0.13634078  1
  N  N50  1  0.90490175  0.54958880  0.89618608  1
  N  N51  1  0.75110378  0.43847102  0.64928386  1
  N  N52  1  0.57106578  0.53306471  0.35844221  1
  N  N53  1  0.43249441  0.41610291  0.06712023  1
  N  N54  1  0.20168517  0.55254235  0.89352625  1
  N  N55  1  0.13795932  0.42214591  0.65033577  1
  N  N56  1  0.89913166  0.53607413  0.36398604  1
  N  N57  1  0.80766222  0.41788210  0.12648889  1
  N  N58  1  0.49521121  0.56649879  0.82650726  1
  N  N59  1  0.45152801  0.41941463  0.57948986  1
  N  N60  1  0.22396199  0.87188116  0.39235398  1
  N  N61  1  0.12208166  0.75635401  0.13907049  1
  N  N62  1  0.90687896  0.84378111  0.89559630  1
  N  N63  1  0.75801711  0.77074932  0.66578055  1
  N  N64  1  0.57562975  0.84192506  0.33231686  1
  N  N65  1  0.41926578  0.76649552  0.06350293  1
  N  N66  1  0.19894195  0.88106127  0.88646805  1
  N  N67  1  0.14236246  0.74473205  0.64550668  1
  N  N68  1  0.89031039  0.87650472  0.35683749  1
  N  N69  1  0.81901040  0.74007706  0.13186560  1
  N  N70  1  0.53847604  0.88182391  0.85631634  1
  N  N71  1  0.45273170  0.76157986  0.58987982  1
