# generated using pymatgen
data_Gd2Al7N9
_symmetry_space_group_name_H-M   'P 1'
_cell_length_a   9.95779759
_cell_length_b   9.85353022
_cell_length_c   10.61351725
_cell_angle_alpha   90.27617850
_cell_angle_beta   90.23010084
_cell_angle_gamma   60.44465443
_symmetry_Int_Tables_number   1
_chemical_formula_structural   Gd2Al7N9
_chemical_formula_sum   'Gd8 Al28 N36'
_cell_volume   905.87405516
_cell_formula_units_Z   4
loop_
 _symmetry_equiv_pos_site_id
 _symmetry_equiv_pos_as_xyz
  1  'x, y, z'
loop_
 _atom_site_type_symbol
 _atom_site_label
 _atom_site_symmetry_multiplicity
 _atom_site_fract_x
 _atom_site_fract_y
 _atom_site_fract_z
 _atom_site_occupancy
  Al  Al0  1  0.12730377  0.08443102  0.38562109  1
  Al  Al1  1  0.21550691  0.21326743  0.14486032  1
  Al  Al2  1  0.53970190  0.21943832  0.13801328  1
  Al  Al3  1  0.11923613  0.09214908  0.90042900  1
  Al  Al4  1  0.22566457  0.19960597  0.64767550  1
  Al  Al5  1  0.79442506  0.08917538  0.29715436  1
  Al  Al6  1  0.90384877  0.20007567  0.08395338  1
  Al  Al7  1  0.41605620  0.11764091  0.89566091  1
  Al  Al8  1  0.52770755  0.21840811  0.66081840  1
  Al  Al9  1  0.12694257  0.41894353  0.38947103  1
  Al  Al10  1  0.21382934  0.54101387  0.08377252  1
  Al  Al11  1  0.46178656  0.42458705  0.40101578  1
  Al  Al12  1  0.11215801  0.42406134  0.89414797  1
  Al  Al13  1  0.23288030  0.53243142  0.58978905  1
  Al  Al14  1  0.80445455  0.41793066  0.31336773  1
  Al  Al15  1  0.90499612  0.53429674  0.07723430  1
  Al  Al16  1  0.41377400  0.44145816  0.89050487  1
  Al  Al17  1  0.52380329  0.55456672  0.65260495  1
  Al  Al18  1  0.12330955  0.74989814  0.31854087  1
  Al  Al19  1  0.22068911  0.88126910  0.14624979  1
  Al  Al20  1  0.78583750  0.75934599  0.83927983  1
  Al  Al21  1  0.46293767  0.75067796  0.40576406  1
  Al  Al22  1  0.11505354  0.75362285  0.82150746  1
  Al  Al23  1  0.22846341  0.87759693  0.64253185  1
  Al  Al24  1  0.80284946  0.74270287  0.30834177  1
  Al  Al25  1  0.91457847  0.85270878  0.07537991  1
  Al  Al26  1  0.40880229  0.77702248  0.89043615  1
  Al  Al27  1  0.53732312  0.88172419  0.67089779  1
  Gd  Gd28  1  0.76267836  0.09491746  0.86514823  1
  Gd  Gd29  1  0.86632426  0.21646509  0.57130777  1
  Gd  Gd30  1  0.45848623  0.08734448  0.39654734  1
  Gd  Gd31  1  0.75046512  0.44528132  0.86434596  1
  Gd  Gd32  1  0.87778729  0.54348980  0.58769213  1
  Gd  Gd33  1  0.53633769  0.54600233  0.14919290  1
  Gd  Gd34  1  0.88424175  0.87387107  0.57224628  1
  Gd  Gd35  1  0.56070599  0.87255367  0.10727927  1
  N  N36  1  0.20923075  0.21224175  0.32394817  1
  N  N37  1  0.12465140  0.08957368  0.08768999  1
  N  N38  1  0.90718025  0.19931169  0.90228205  1
  N  N39  1  0.74356163  0.10651251  0.64726704  1
  N  N40  1  0.57263660  0.22278543  0.31659152  1
  N  N41  1  0.42335447  0.12724047  0.08118839  1
  N  N42  1  0.20771884  0.21096981  0.83267624  1
  N  N43  1  0.13605251  0.08240488  0.57132094  1
  N  N44  1  0.90252738  0.19615438  0.35045787  1
  N  N45  1  0.78405291  0.08680423  0.11305467  1
  N  N46  1  0.50098497  0.23633202  0.83590630  1
  N  N47  1  0.44150174  0.09011707  0.61159025  1
  N  N48  1  0.23581897  0.53524757  0.36891733  1
  N  N49  1  0.11868426  0.41736666  0.08104296  1
  N  N50  1  0.89496822  0.55236340  0.89099065  1
  N  N51  1  0.73952802  0.44633449  0.65389234  1
  N  N52  1  0.57376754  0.53123137  0.36173346  1
  N  N53  1  0.42905728  0.41884303  0.07090409  1
  N  N54  1  0.20337439  0.54731944  0.87339984  1
  N  N55  1  0.14435697  0.40332075  0.57704798  1
  N  N56  1  0.90443222  0.53198768  0.36875344  1
  N  N57  1  0.80232845  0.42032634  0.12758076  1
  N  N58  1  0.48816815  0.57180274  0.83175902  1
  N  N59  1  0.44953257  0.42103994  0.58337000  1
  N  N60  1  0.24139798  0.86539491  0.33171241  1
  N  N61  1  0.12101006  0.75510653  0.13559496  1
  N  N62  1  0.91187886  0.84174228  0.89366356  1
  N  N63  1  0.75162091  0.77859685  0.66459922  1
  N  N64  1  0.58204254  0.83621189  0.33192954  1
  N  N65  1  0.40726965  0.77687803  0.06471463  1
  N  N66  1  0.20745762  0.89211323  0.82565014  1
  N  N67  1  0.13606132  0.74385504  0.63829414  1
  N  N68  1  0.89700760  0.87181975  0.35513578  1
  N  N69  1  0.82225930  0.73834557  0.13132224  1
  N  N70  1  0.53893056  0.88319009  0.86009916  1
  N  N71  1  0.44244649  0.76718512  0.59100075  1
