# generated using pymatgen
data_Gd2Al7N9
_symmetry_space_group_name_H-M   'P 1'
_cell_length_a   9.93972781
_cell_length_b   9.85760171
_cell_length_c   10.59614276
_cell_angle_alpha   90.23310035
_cell_angle_beta   90.23697344
_cell_angle_gamma   60.45762565
_symmetry_Int_Tables_number   1
_chemical_formula_structural   Gd2Al7N9
_chemical_formula_sum   'Gd8 Al28 N36'
_cell_volume   903.24083039
_cell_formula_units_Z   4
loop_
 _symmetry_equiv_pos_site_id
 _symmetry_equiv_pos_as_xyz
  1  'x, y, z'
loop_
 _atom_site_type_symbol
 _atom_site_label
 _atom_site_symmetry_multiplicity
 _atom_site_fract_x
 _atom_site_fract_y
 _atom_site_fract_z
 _atom_site_occupancy
  Al  Al0  1  0.12707961  0.08557056  0.38538776  1
  Al  Al1  1  0.21538233  0.21349795  0.14354770  1
  Al  Al2  1  0.53991226  0.21952600  0.13629256  1
  Al  Al3  1  0.11907515  0.09279275  0.89981440  1
  Al  Al4  1  0.22565509  0.20037004  0.64681042  1
  Al  Al5  1  0.79351991  0.09014327  0.29676351  1
  Al  Al6  1  0.90366673  0.20019350  0.08372596  1
  Al  Al7  1  0.41632998  0.11743374  0.89521979  1
  Al  Al8  1  0.52770306  0.21910391  0.66051984  1
  Al  Al9  1  0.12872740  0.41905939  0.39055879  1
  Al  Al10  1  0.22133011  0.52897954  0.14125943  1
  Al  Al11  1  0.45721801  0.42616476  0.40037423  1
  Al  Al12  1  0.11526968  0.42594584  0.89375361  1
  Al  Al13  1  0.23191383  0.52547387  0.64128414  1
  Al  Al14  1  0.80426185  0.41814987  0.31326480  1
  Al  Al15  1  0.90667051  0.53428668  0.07643439  1
  Al  Al16  1  0.40768008  0.44350507  0.89235588  1
  Al  Al17  1  0.52220758  0.55488076  0.65183623  1
  Al  Al18  1  0.12019548  0.75682030  0.31936655  1
  Al  Al19  1  0.22071686  0.88135143  0.14559693  1
  Al  Al20  1  0.78677681  0.75822804  0.83939198  1
  Al  Al21  1  0.46320571  0.75064461  0.40578803  1
  Al  Al22  1  0.11354053  0.75720164  0.81891905  1
  Al  Al23  1  0.22814526  0.87846665  0.64086173  1
  Al  Al24  1  0.80290522  0.74242047  0.30841263  1
  Al  Al25  1  0.91745740  0.85017144  0.07511837  1
  Al  Al26  1  0.40909975  0.77698573  0.89055534  1
  Al  Al27  1  0.53771131  0.88156278  0.67078833  1
  Gd  Gd28  1  0.76326760  0.09359782  0.86507383  1
  Gd  Gd29  1  0.86639192  0.21671614  0.57149578  1
  Gd  Gd30  1  0.45847774  0.08744805  0.39629113  1
  Gd  Gd31  1  0.75026796  0.44557639  0.86398793  1
  Gd  Gd32  1  0.87840204  0.54311664  0.58758673  1
  Gd  Gd33  1  0.53646041  0.54537336  0.14764257  1
  Gd  Gd34  1  0.88368356  0.87437474  0.57164789  1
  Gd  Gd35  1  0.56143308  0.87263039  0.10725683  1
  N  N36  1  0.20881145  0.21297907  0.32307069  1
  N  N37  1  0.12463657  0.08999195  0.08722122  1
  N  N38  1  0.90652634  0.19953679  0.90167300  1
  N  N39  1  0.74315388  0.10726605  0.64713185  1
  N  N40  1  0.57193158  0.22357079  0.31587299  1
  N  N41  1  0.42348817  0.12695003  0.08090196  1
  N  N42  1  0.20759384  0.21144238  0.83252443  1
  N  N43  1  0.13620402  0.08372038  0.57092743  1
  N  N44  1  0.90223271  0.19639104  0.35021124  1
  N  N45  1  0.78357547  0.08710748  0.11242495  1
  N  N46  1  0.50178025  0.23656831  0.83709236  1
  N  N47  1  0.44201806  0.09007663  0.61175920  1
  N  N48  1  0.23764195  0.52777874  0.33085547  1
  N  N49  1  0.12204300  0.42019253  0.07915889  1
  N  N50  1  0.89665074  0.55147842  0.89121777  1
  N  N51  1  0.73837616  0.44683662  0.65342254  1
  N  N52  1  0.57198482  0.53162930  0.36109676  1
  N  N53  1  0.42234537  0.42188671  0.07081874  1
  N  N54  1  0.20749151  0.53608384  0.82652014  1
  N  N55  1  0.14644047  0.40492701  0.57460867  1
  N  N56  1  0.90486236  0.53190673  0.36885536  1
  N  N57  1  0.80322646  0.42032390  0.12726972  1
  N  N58  1  0.48662728  0.57158741  0.83310339  1
  N  N59  1  0.44204319  0.42486400  0.58247137  1
  N  N60  1  0.24134888  0.86640784  0.33243039  1
  N  N61  1  0.12147250  0.75656402  0.13549238  1
  N  N62  1  0.91474688  0.83910196  0.89394629  1
  N  N63  1  0.75239532  0.77768173  0.66479131  1
  N  N64  1  0.58229342  0.83629282  0.33217515  1
  N  N65  1  0.40813677  0.77708315  0.06513259  1
  N  N66  1  0.20765723  0.89240223  0.82546716  1
  N  N67  1  0.13424414  0.74887291  0.63355829  1
  N  N68  1  0.89629090  0.87263109  0.35492667  1
  N  N69  1  0.82321587  0.73777616  0.13151461  1
  N  N70  1  0.53971279  0.88282315  0.86020094  1
  N  N71  1  0.44285759  0.76754924  0.59103462  1
