# generated using pymatgen
data_Gd2Al7N9
_symmetry_space_group_name_H-M   'P 1'
_cell_length_a   10.00710973
_cell_length_b   9.87248834
_cell_length_c   10.44623607
_cell_angle_alpha   90.18815460
_cell_angle_beta   90.50318009
_cell_angle_gamma   60.66157482
_symmetry_Int_Tables_number   1
_chemical_formula_structural   Gd2Al7N9
_chemical_formula_sum   'Gd8 Al28 N36'
_cell_volume   899.63323764
_cell_formula_units_Z   4
loop_
 _symmetry_equiv_pos_site_id
 _symmetry_equiv_pos_as_xyz
  1  'x, y, z'
loop_
 _atom_site_type_symbol
 _atom_site_label
 _atom_site_symmetry_multiplicity
 _atom_site_fract_x
 _atom_site_fract_y
 _atom_site_fract_z
 _atom_site_occupancy
  Al  Al0  1  0.12592995  0.08682943  0.38755207  1
  Al  Al1  1  0.21392324  0.21397789  0.14119171  1
  Al  Al2  1  0.53561787  0.22202618  0.13796642  1
  Al  Al3  1  0.11410146  0.09408377  0.89275586  1
  Al  Al4  1  0.22865005  0.19919031  0.64758290  1
  Al  Al5  1  0.78754263  0.08846302  0.30403076  1
  Al  Al6  1  0.90851523  0.19777154  0.13185063  1
  Al  Al7  1  0.41767386  0.11696067  0.89508209  1
  Al  Al8  1  0.52676748  0.22062309  0.66092406  1
  Al  Al9  1  0.12632969  0.41883548  0.39195687  1
  Al  Al10  1  0.22049498  0.52969401  0.14598770  1
  Al  Al11  1  0.45556327  0.42682341  0.40106442  1
  Al  Al12  1  0.11796837  0.42520086  0.89284789  1
  Al  Al13  1  0.23175129  0.52641381  0.64041157  1
  Al  Al14  1  0.79634657  0.42524737  0.32037751  1
  Al  Al15  1  0.90944064  0.53361837  0.07661441  1
  Al  Al16  1  0.40709080  0.44377242  0.89364600  1
  Al  Al17  1  0.52200741  0.55505373  0.65403549  1
  Al  Al18  1  0.11956766  0.75825856  0.32387763  1
  Al  Al19  1  0.21882949  0.88216248  0.14514296  1
  Al  Al20  1  0.78790845  0.75764854  0.84074297  1
  Al  Al21  1  0.46233342  0.75121827  0.40531774  1
  Al  Al22  1  0.11496230  0.75809453  0.81861331  1
  Al  Al23  1  0.23074867  0.87667746  0.63918222  1
  Al  Al24  1  0.80175757  0.74210254  0.31100238  1
  Al  Al25  1  0.91977239  0.84794337  0.07669753  1
  Al  Al26  1  0.41113465  0.77644300  0.89119085  1
  Al  Al27  1  0.53849120  0.88079385  0.67064065  1
  Gd  Gd28  1  0.76377483  0.09504263  0.87119251  1
  Gd  Gd29  1  0.87776305  0.21077207  0.60354102  1
  Gd  Gd30  1  0.45416216  0.08739743  0.39579308  1
  Gd  Gd31  1  0.75524656  0.43898392  0.86916215  1
  Gd  Gd32  1  0.88187316  0.54095757  0.59571034  1
  Gd  Gd33  1  0.53761398  0.54601300  0.14133309  1
  Gd  Gd34  1  0.88138364  0.87576779  0.57501204  1
  Gd  Gd35  1  0.56287359  0.87271074  0.10651572  1
  N  N36  1  0.20498680  0.21435699  0.32214733  1
  N  N37  1  0.11568214  0.09355466  0.08241912  1
  N  N38  1  0.91337956  0.19318804  0.84043679  1
  N  N39  1  0.73711062  0.10812391  0.64468382  1
  N  N40  1  0.57001867  0.22264156  0.31891476  1
  N  N41  1  0.42209516  0.12647815  0.08391187  1
  N  N42  1  0.21099089  0.21032756  0.83490668  1
  N  N43  1  0.14300318  0.08118591  0.57022345  1
  N  N44  1  0.90337014  0.19590483  0.33686497  1
  N  N45  1  0.78489939  0.08918888  0.11380036  1
  N  N46  1  0.50286284  0.23716769  0.84013935  1
  N  N47  1  0.44220394  0.09008184  0.61334503  1
  N  N48  1  0.23509678  0.52841723  0.33389154  1
  N  N49  1  0.12238292  0.42131197  0.08028157  1
  N  N50  1  0.90020283  0.54829282  0.88731908  1
  N  N51  1  0.73337929  0.45221362  0.65120379  1
  N  N52  1  0.56803704  0.53345036  0.35752295  1
  N  N53  1  0.41845264  0.42388093  0.07491641  1
  N  N54  1  0.20860881  0.53710769  0.82640436  1
  N  N55  1  0.14829846  0.40324816  0.57627320  1
  N  N56  1  0.90293299  0.53249405  0.37229061  1
  N  N57  1  0.80473397  0.42027974  0.12555076  1
  N  N58  1  0.49122216  0.56877587  0.83925128  1
  N  N59  1  0.43964451  0.42745689  0.58423245  1
  N  N60  1  0.23921862  0.86902382  0.33370148  1
  N  N61  1  0.12140136  0.75658035  0.13706648  1
  N  N62  1  0.91645333  0.83918900  0.89260272  1
  N  N63  1  0.75065661  0.77766938  0.66418545  1
  N  N64  1  0.58305420  0.83579957  0.33375881  1
  N  N65  1  0.40592409  0.78191417  0.06840183  1
  N  N66  1  0.21245354  0.88856316  0.82608013  1
  N  N67  1  0.13416248  0.74980942  0.63019792  1
  N  N68  1  0.89522432  0.87210747  0.35599435  1
  N  N69  1  0.82375052  0.73693461  0.13111788  1
  N  N70  1  0.54191809  0.88187914  0.86216540  1
  N  N71  1  0.44292379  0.76689787  0.59201151  1
