# generated using pymatgen
data_Gd2Al7N9
_symmetry_space_group_name_H-M   'P 1'
_cell_length_a   9.87588049
_cell_length_b   9.83362414
_cell_length_c   10.79852294
_cell_angle_alpha   90.18641878
_cell_angle_beta   89.36820675
_cell_angle_gamma   60.13818917
_symmetry_Int_Tables_number   1
_chemical_formula_structural   Gd2Al7N9
_chemical_formula_sum   'Gd8 Al28 N36'
_cell_volume   909.36660483
_cell_formula_units_Z   4
loop_
 _symmetry_equiv_pos_site_id
 _symmetry_equiv_pos_as_xyz
  1  'x, y, z'
loop_
 _atom_site_type_symbol
 _atom_site_label
 _atom_site_symmetry_multiplicity
 _atom_site_fract_x
 _atom_site_fract_y
 _atom_site_fract_z
 _atom_site_occupancy
  Al  Al0  1  0.11586200  0.08217586  0.31239307  1
  Al  Al1  1  0.21948707  0.21056205  0.14015754  1
  Al  Al2  1  0.53995745  0.21909169  0.13385416  1
  Al  Al3  1  0.11097099  0.08762483  0.82815565  1
  Al  Al4  1  0.23404183  0.19841492  0.66344360  1
  Al  Al5  1  0.78840643  0.09247279  0.29344078  1
  Al  Al6  1  0.90866197  0.19776368  0.07756659  1
  Al  Al7  1  0.41610640  0.11704527  0.89680018  1
  Al  Al8  1  0.52988966  0.21908884  0.65703728  1
  Al  Al9  1  0.11453655  0.43669316  0.31348791  1
  Al  Al10  1  0.21087514  0.54328361  0.06764084  1
  Al  Al11  1  0.46384857  0.42380415  0.39916782  1
  Al  Al12  1  0.11356638  0.43691855  0.82832237  1
  Al  Al13  1  0.22862513  0.53553494  0.57364568  1
  Al  Al14  1  0.80137708  0.41938185  0.30791978  1
  Al  Al15  1  0.91283832  0.53231384  0.07252048  1
  Al  Al16  1  0.41833386  0.43972655  0.88801085  1
  Al  Al17  1  0.53008778  0.54912889  0.64770323  1
  Al  Al18  1  0.12099158  0.75916446  0.31825426  1
  Al  Al19  1  0.20433846  0.87830411  0.06300843  1
  Al  Al20  1  0.78601733  0.75738163  0.83651980  1
  Al  Al21  1  0.46927481  0.74767072  0.40613802  1
  Al  Al22  1  0.11736438  0.75427463  0.82262772  1
  Al  Al23  1  0.22883457  0.86995335  0.57738413  1
  Al  Al24  1  0.79812030  0.74839291  0.30407618  1
  Al  Al25  1  0.90980104  0.85528247  0.07305209  1
  Al  Al26  1  0.42011738  0.76976880  0.88666961  1
  Al  Al27  1  0.53968429  0.87907706  0.66771623  1
  Gd  Gd28  1  0.76276963  0.09655105  0.86113366  1
  Gd  Gd29  1  0.88342897  0.20529526  0.56499509  1
  Gd  Gd30  1  0.45001263  0.09351629  0.39672563  1
  Gd  Gd31  1  0.76189828  0.44101991  0.85509134  1
  Gd  Gd32  1  0.88755383  0.53848965  0.57401420  1
  Gd  Gd33  1  0.53916020  0.54056261  0.14552689  1
  Gd  Gd34  1  0.88695687  0.87159320  0.57073862  1
  Gd  Gd35  1  0.55670001  0.87272137  0.11188218  1
  N  N36  1  0.20714078  0.21325601  0.32234470  1
  N  N37  1  0.11930584  0.08186209  0.13244472  1
  N  N38  1  0.91533507  0.19439748  0.90327062  1
  N  N39  1  0.74939279  0.10603881  0.64580077  1
  N  N40  1  0.56434149  0.22721027  0.31015680  1
  N  N41  1  0.42413447  0.12713507  0.07525078  1
  N  N42  1  0.21069318  0.21034181  0.84328620  1
  N  N43  1  0.13163049  0.07687960  0.64695962  1
  N  N44  1  0.89445193  0.20003657  0.34835811  1
  N  N45  1  0.78253767  0.08811345  0.11086967  1
  N  N46  1  0.49875259  0.23668615  0.82913610  1
  N  N47  1  0.44305983  0.08989633  0.60795714  1
  N  N48  1  0.22139917  0.54240466  0.38579728  1
  N  N49  1  0.11749866  0.43271547  0.13338238  1
  N  N50  1  0.90493550  0.54950038  0.89324362  1
  N  N51  1  0.75132715  0.43823013  0.64613570  1
  N  N52  1  0.57094454  0.53319975  0.35535035  1
  N  N53  1  0.43255222  0.41609717  0.06412572  1
  N  N54  1  0.20177076  0.55248650  0.89058353  1
  N  N55  1  0.13815546  0.42194189  0.64742769  1
  N  N56  1  0.89897792  0.53627556  0.36101389  1
  N  N57  1  0.80784035  0.41774435  0.12356301  1
  N  N58  1  0.49545626  0.56630984  0.82349097  1
  N  N59  1  0.45164099  0.41928145  0.57645938  1
  N  N60  1  0.22385613  0.87200195  0.38946817  1
  N  N61  1  0.12206836  0.75637000  0.13614291  1
  N  N62  1  0.90690452  0.84366486  0.89268997  1
  N  N63  1  0.75815238  0.77052888  0.66283789  1
  N  N64  1  0.57543466  0.84214949  0.32934517  1
  N  N65  1  0.41935568  0.76641029  0.06051178  1
  N  N66  1  0.19908051  0.88088943  0.88353463  1
  N  N67  1  0.14239335  0.74463166  0.64260175  1
  N  N68  1  0.89018802  0.87665006  0.35387413  1
  N  N69  1  0.81892562  0.74010811  0.12892138  1
  N  N70  1  0.53851967  0.88177978  0.85333584  1
  N  N71  1  0.45285315  0.76140148  0.58689279  1
