# generated using pymatgen
data_Gd2Al7N9
_symmetry_space_group_name_H-M   'P 1'
_cell_length_a   10.04930790
_cell_length_b   9.83440038
_cell_length_c   10.45459252
_cell_angle_alpha   89.96258081
_cell_angle_beta   89.98039899
_cell_angle_gamma   60.19482171
_symmetry_Int_Tables_number   1
_chemical_formula_structural   Gd2Al7N9
_chemical_formula_sum   'Gd8 Al28 N36'
_cell_volume   896.54260126
_cell_formula_units_Z   4
loop_
 _symmetry_equiv_pos_site_id
 _symmetry_equiv_pos_as_xyz
  1  'x, y, z'
loop_
 _atom_site_type_symbol
 _atom_site_label
 _atom_site_symmetry_multiplicity
 _atom_site_fract_x
 _atom_site_fract_y
 _atom_site_fract_z
 _atom_site_occupancy
  Al  Al0  1  0.11310888  0.09434433  0.30179849  1
  Al  Al1  1  0.22127045  0.20892649  0.05977730  1
  Al  Al2  1  0.53765059  0.21360192  0.12643143  1
  Al  Al3  1  0.12272874  0.08775386  0.81589887  1
  Al  Al4  1  0.22153533  0.20400677  0.56710925  1
  Al  Al5  1  0.79042135  0.09366777  0.27896057  1
  Al  Al6  1  0.91084527  0.20102854  0.06159938  1
  Al  Al7  1  0.41713074  0.10971360  0.80712119  1
  Al  Al8  1  0.53353238  0.22824002  0.63158993  1
  Al  Al9  1  0.11236386  0.42657058  0.30150270  1
  Al  Al10  1  0.20424628  0.54221821  0.05876886  1
  Al  Al11  1  0.45089683  0.42549176  0.37017051  1
  Al  Al12  1  0.12248888  0.42706314  0.81288508  1
  Al  Al13  1  0.23135963  0.53668633  0.55883498  1
  Al  Al14  1  0.79409143  0.42547857  0.29162538  1
  Al  Al15  1  0.91094349  0.53096092  0.05659124  1
  Al  Al16  1  0.41667882  0.43600666  0.88156024  1
  Al  Al17  1  0.55222859  0.54802886  0.54649559  1
  Al  Al18  1  0.11609150  0.75995541  0.30185768  1
  Al  Al19  1  0.21164960  0.87598211  0.05841269  1
  Al  Al20  1  0.79612721  0.75286332  0.81740424  1
  Al  Al21  1  0.43927521  0.76563910  0.30988020  1
  Al  Al22  1  0.11913549  0.75550998  0.81046510  1
  Al  Al23  1  0.23374888  0.86705749  0.56280556  1
  Al  Al24  1  0.79216591  0.75159691  0.28441481  1
  Al  Al25  1  0.90726077  0.85712866  0.05689848  1
  Al  Al26  1  0.42254107  0.75759770  0.80795060  1
  Al  Al27  1  0.54842320  0.87145716  0.63812865  1
  Gd  Gd28  1  0.76047224  0.10215037  0.84955213  1
  Gd  Gd29  1  0.89417338  0.19842868  0.54893402  1
  Gd  Gd30  1  0.45283055  0.08876239  0.35381422  1
  Gd  Gd31  1  0.76588642  0.44015483  0.82183513  1
  Gd  Gd32  1  0.90059328  0.53608443  0.55267833  1
  Gd  Gd33  1  0.54547377  0.53047885  0.09593662  1
  Gd  Gd34  1  0.88665376  0.87532630  0.55715884  1
  Gd  Gd35  1  0.55192218  0.87123562  0.06753863  1
  N  N36  1  0.18530953  0.22291812  0.38303575  1
  N  N37  1  0.11892836  0.09161787  0.11726524  1
  N  N38  1  0.92164341  0.19284662  0.87854857  1
  N  N39  1  0.74712191  0.11278061  0.62528133  1
  N  N40  1  0.57604272  0.22432563  0.30303487  1
  N  N41  1  0.42228888  0.11553675  0.12278289  1
  N  N42  1  0.21745102  0.20787568  0.87340367  1
  N  N43  1  0.14168280  0.07746281  0.63326843  1
  N  N44  1  0.89330898  0.20275465  0.32939848  1
  N  N45  1  0.78040041  0.09146959  0.09114653  1
  N  N46  1  0.50084634  0.23941030  0.81013991  1
  N  N47  1  0.43915555  0.09310850  0.60355737  1
  N  N48  1  0.21677393  0.54091974  0.36529514  1
  N  N49  1  0.11535538  0.42252099  0.11791463  1
  N  N50  1  0.91212062  0.54324420  0.87012060  1
  N  N51  1  0.75255497  0.44204049  0.60536186  1
  N  N52  1  0.55984885  0.54223313  0.35084174  1
  N  N53  1  0.41692473  0.41013670  0.06362845  1
  N  N54  1  0.20397765  0.55071453  0.87426250  1
  N  N55  1  0.14850087  0.41283419  0.63097098  1
  N  N56  1  0.89681278  0.53827599  0.33828938  1
  N  N57  1  0.80809239  0.41837882  0.10530000  1
  N  N58  1  0.51609352  0.55585369  0.87353476  1
  N  N59  1  0.44869626  0.42721166  0.55393483  1
  N  N60  1  0.22002622  0.87594097  0.37463756  1
  N  N61  1  0.11433033  0.75950014  0.11701830  1
  N  N62  1  0.91016777  0.84686308  0.86918122  1
  N  N63  1  0.75979273  0.76844758  0.63942854  1
  N  N64  1  0.58246380  0.83673195  0.31928867  1
  N  N65  1  0.40156641  0.77970370  0.13326854  1
  N  N66  1  0.21834491  0.87232157  0.87244291  1
  N  N67  1  0.14126459  0.74694059  0.62600068  1
  N  N68  1  0.89124413  0.87570510  0.33588679  1
  N  N69  1  0.81235858  0.74366159  0.10417246  1
  N  N70  1  0.54118312  0.87902884  0.83274236  1
  N  N71  1  0.44308986  0.75617260  0.61890139  1
