# generated using pymatgen
data_Gd2Al7N9
_symmetry_space_group_name_H-M   'P 1'
_cell_length_a   10.03878509
_cell_length_b   9.85495553
_cell_length_c   10.49208826
_cell_angle_alpha   90.01397036
_cell_angle_beta   90.04691290
_cell_angle_gamma   60.22930764
_symmetry_Int_Tables_number   1
_chemical_formula_structural   Gd2Al7N9
_chemical_formula_sum   'Gd8 Al28 N36'
_cell_volume   901.00481991
_cell_formula_units_Z   4
loop_
 _symmetry_equiv_pos_site_id
 _symmetry_equiv_pos_as_xyz
  1  'x, y, z'
loop_
 _atom_site_type_symbol
 _atom_site_label
 _atom_site_symmetry_multiplicity
 _atom_site_fract_x
 _atom_site_fract_y
 _atom_site_fract_z
 _atom_site_occupancy
  Al  Al0  1  0.11505691  0.09270326  0.30320893  1
  Al  Al1  1  0.21124017  0.21252211  0.05885261  1
  Al  Al2  1  0.53891315  0.21662762  0.12036353  1
  Al  Al3  1  0.11910014  0.09043643  0.80994878  1
  Al  Al4  1  0.22071322  0.20459703  0.56465581  1
  Al  Al5  1  0.78957827  0.09298940  0.27817572  1
  Al  Al6  1  0.91304079  0.19546682  0.06220594  1
  Al  Al7  1  0.42185761  0.11346144  0.87768811  1
  Al  Al8  1  0.52515978  0.22004007  0.63389599  1
  Al  Al9  1  0.11431361  0.42696957  0.30462114  1
  Al  Al10  1  0.20736354  0.54263437  0.05653438  1
  Al  Al11  1  0.46191142  0.42749062  0.37714741  1
  Al  Al12  1  0.12213880  0.42665274  0.80847311  1
  Al  Al13  1  0.22759443  0.53705276  0.55571930  1
  Al  Al14  1  0.79531168  0.42413925  0.28667489  1
  Al  Al15  1  0.91957935  0.52936173  0.05600466  1
  Al  Al16  1  0.41377066  0.43459634  0.87438864  1
  Al  Al17  1  0.53046489  0.54554244  0.63922567  1
  Al  Al18  1  0.12083698  0.75754822  0.30192560  1
  Al  Al19  1  0.20961986  0.87860783  0.05217418  1
  Al  Al20  1  0.79468194  0.75516959  0.81794398  1
  Al  Al21  1  0.45034225  0.75519845  0.31591080  1
  Al  Al22  1  0.11787469  0.75569650  0.80689300  1
  Al  Al23  1  0.23379847  0.86864501  0.56453151  1
  Al  Al24  1  0.80006358  0.74719540  0.28549590  1
  Al  Al25  1  0.91276383  0.85612140  0.05556107  1
  Al  Al26  1  0.41818121  0.77092045  0.82579017  1
  Al  Al27  1  0.53826861  0.88603686  0.65008031  1
  Gd  Gd28  1  0.75926109  0.10111728  0.84618020  1
  Gd  Gd29  1  0.87973649  0.20823378  0.55005887  1
  Gd  Gd30  1  0.45578097  0.08630766  0.36163300  1
  Gd  Gd31  1  0.77443060  0.43510981  0.83930457  1
  Gd  Gd32  1  0.88488723  0.54077586  0.55844234  1
  Gd  Gd33  1  0.54968071  0.52700378  0.09910681  1
  Gd  Gd34  1  0.88418196  0.87551803  0.55741636  1
  Gd  Gd35  1  0.56859188  0.86274090  0.07568924  1
  N  N36  1  0.19056315  0.22046749  0.37669849  1
  N  N37  1  0.12089617  0.08923605  0.11964733  1
  N  N38  1  0.92263777  0.18625331  0.88043954  1
  N  N39  1  0.74179678  0.11231116  0.62520155  1
  N  N40  1  0.57094691  0.22429428  0.29844408  1
  N  N41  1  0.42931727  0.11876639  0.06956647  1
  N  N42  1  0.20641494  0.21305778  0.87339103  1
  N  N43  1  0.13231242  0.08368605  0.62703894  1
  N  N44  1  0.89326696  0.20231194  0.32856420  1
  N  N45  1  0.78201042  0.09040429  0.09138997  1
  N  N46  1  0.49660344  0.23486231  0.81081507  1
  N  N47  1  0.44114589  0.09108227  0.58017554  1
  N  N48  1  0.22066718  0.54057212  0.36614309  1
  N  N49  1  0.12158134  0.42104717  0.12105656  1
  N  N50  1  0.91402773  0.54665475  0.87011535  1
  N  N51  1  0.74487037  0.44358410  0.62506273  1
  N  N52  1  0.56596533  0.53404848  0.32116380  1
  N  N53  1  0.42062378  0.41286454  0.05458572  1
  N  N54  1  0.20146382  0.55144303  0.87200947  1
  N  N55  1  0.14102654  0.41552887  0.62637215  1
  N  N56  1  0.89723119  0.53570664  0.34167108  1
  N  N57  1  0.81462983  0.41617220  0.09800191  1
  N  N58  1  0.51027792  0.55008691  0.83081398  1
  N  N59  1  0.44743917  0.42666187  0.56140849  1
  N  N60  1  0.23109178  0.86998572  0.37118953  1
  N  N61  1  0.11915117  0.75918685  0.11725827  1
  N  N62  1  0.91002298  0.84759124  0.86933605  1
  N  N63  1  0.75239608  0.77482605  0.64222729  1
  N  N64  1  0.58362908  0.83667215  0.30685955  1
  N  N65  1  0.41129923  0.77433336  0.09422168  1
  N  N66  1  0.20880681  0.87813861  0.86874537  1
  N  N67  1  0.13988366  0.74705640  0.62319959  1
  N  N68  1  0.89340688  0.87556860  0.33684691  1
  N  N69  1  0.82745929  0.73672231  0.10750401  1
  N  N70  1  0.54289965  0.88372352  0.84220580  1
  N  N71  1  0.43544661  0.76891717  0.63130437  1
