# generated using pymatgen
data_Gd2Al7N9
_symmetry_space_group_name_H-M   'P 1'
_cell_length_a   10.10027792
_cell_length_b   9.86550677
_cell_length_c   10.25436624
_cell_angle_alpha   89.96162972
_cell_angle_beta   90.76218596
_cell_angle_gamma   60.74701718
_symmetry_Int_Tables_number   1
_chemical_formula_structural   Gd2Al7N9
_chemical_formula_sum   'Gd8 Al28 N36'
_cell_volume   891.37251023
_cell_formula_units_Z   4
loop_
 _symmetry_equiv_pos_site_id
 _symmetry_equiv_pos_as_xyz
  1  'x, y, z'
loop_
 _atom_site_type_symbol
 _atom_site_label
 _atom_site_symmetry_multiplicity
 _atom_site_fract_x
 _atom_site_fract_y
 _atom_site_fract_z
 _atom_site_occupancy
  Al  Al0  1  0.12702440  0.08618401  0.39899696  1
  Al  Al1  1  0.21243994  0.21474648  0.15054200  1
  Al  Al2  1  0.53011367  0.22494888  0.15138131  1
  Al  Al3  1  0.11427676  0.09074304  0.90137358  1
  Al  Al4  1  0.22848987  0.19944110  0.65793515  1
  Al  Al5  1  0.78392483  0.09408996  0.32569580  1
  Al  Al6  1  0.91212588  0.19830201  0.15318572  1
  Al  Al7  1  0.41713365  0.11621771  0.90531864  1
  Al  Al8  1  0.52506904  0.22149707  0.67102718  1
  Al  Al9  1  0.12532215  0.42079852  0.40328043  1
  Al  Al10  1  0.21695007  0.53795874  0.15563282  1
  Al  Al11  1  0.45519105  0.42826055  0.41248514  1
  Al  Al12  1  0.11885645  0.42781325  0.90151952  1
  Al  Al13  1  0.23085250  0.53497026  0.64939187  1
  Al  Al14  1  0.79366591  0.42953891  0.33543226  1
  Al  Al15  1  0.91146539  0.53492815  0.08808556  1
  Al  Al16  1  0.40818671  0.44307925  0.90357829  1
  Al  Al17  1  0.52593175  0.55234908  0.66533332  1
  Al  Al18  1  0.13557383  0.75123131  0.40002855  1
  Al  Al19  1  0.21631945  0.87769752  0.15475314  1
  Al  Al20  1  0.78135425  0.76007007  0.84855191  1
  Al  Al21  1  0.46297688  0.75024840  0.41619993  1
  Al  Al22  1  0.11314947  0.75819123  0.90197133  1
  Al  Al23  1  0.22884290  0.87037906  0.64875652  1
  Al  Al24  1  0.79974208  0.74119982  0.32935060  1
  Al  Al25  1  0.91307821  0.85976369  0.13452694  1
  Al  Al26  1  0.41177793  0.77417113  0.90083308  1
  Al  Al27  1  0.53399506  0.88082547  0.67837372  1
  Gd  Gd28  1  0.76416116  0.09667046  0.88818422  1
  Gd  Gd29  1  0.87968226  0.20784555  0.61431073  1
  Gd  Gd30  1  0.45151302  0.08835404  0.40546042  1
  Gd  Gd31  1  0.76214389  0.43229294  0.88176779  1
  Gd  Gd32  1  0.88696738  0.53663669  0.61456207  1
  Gd  Gd33  1  0.54119356  0.54309620  0.14650260  1
  Gd  Gd34  1  0.88215685  0.87406194  0.60713558  1
  Gd  Gd35  1  0.56277189  0.87106872  0.11759329  1
  N  N36  1  0.20260762  0.21612376  0.33405175  1
  N  N37  1  0.11388264  0.09319023  0.09436520  1
  N  N38  1  0.91744163  0.18814571  0.84273065  1
  N  N39  1  0.73131110  0.11246596  0.64941149  1
  N  N40  1  0.56871630  0.22391549  0.33394288  1
  N  N41  1  0.42107057  0.12534058  0.09857692  1
  N  N42  1  0.21079397  0.21002132  0.84781865  1
  N  N43  1  0.14503254  0.07862556  0.58314141  1
  N  N44  1  0.90295717  0.19843967  0.35103731  1
  N  N45  1  0.78613270  0.09139873  0.13141277  1
  N  N46  1  0.50295453  0.23603917  0.85324718  1
  N  N47  1  0.43900239  0.09173917  0.62505499  1
  N  N48  1  0.23307245  0.53365013  0.34333618  1
  N  N49  1  0.12230494  0.42406306  0.09148533  1
  N  N50  1  0.90138933  0.54848450  0.89400369  1
  N  N51  1  0.73460111  0.45014400  0.65899218  1
  N  N52  1  0.56754303  0.53393601  0.36736375  1
  N  N53  1  0.41508587  0.42604158  0.08816347  1
  N  N54  1  0.20714229  0.54731992  0.83827022  1
  N  N55  1  0.15125144  0.40528829  0.58977043  1
  N  N56  1  0.90353825  0.53178161  0.38694847  1
  N  N57  1  0.80767119  0.42057156  0.13695650  1
  N  N58  1  0.49983815  0.56316769  0.85550468  1
  N  N59  1  0.43897602  0.42917575  0.59786455  1
  N  N60  1  0.23666871  0.86712201  0.34285584  1
  N  N61  1  0.12145910  0.75715431  0.09720441  1
  N  N62  1  0.90482940  0.84759596  0.87245240  1
  N  N63  1  0.74160888  0.77586572  0.66727557  1
  N  N64  1  0.58325678  0.83557247  0.34810332  1
  N  N65  1  0.40490172  0.78237320  0.08190309  1
  N  N66  1  0.20972443  0.87917369  0.83824098  1
  N  N67  1  0.14650886  0.74421833  0.58510754  1
  N  N68  1  0.90237505  0.86970409  0.35986438  1
  N  N69  1  0.82190129  0.73759638  0.14479282  1
  N  N70  1  0.53953837  0.88108615  0.87267665  1
  N  N71  1  0.44063014  0.76596537  0.60521167  1
