# generated using pymatgen
data_Gd2Al7N9
_symmetry_space_group_name_H-M   'P 1'
_cell_length_a   10.03948115
_cell_length_b   9.83429630
_cell_length_c   10.49978272
_cell_angle_alpha   90.04181256
_cell_angle_beta   90.07614357
_cell_angle_gamma   60.24400198
_symmetry_Int_Tables_number   1
_chemical_formula_structural   Gd2Al7N9
_chemical_formula_sum   'Gd8 Al28 N36'
_cell_volume   899.96927939
_cell_formula_units_Z   4
loop_
 _symmetry_equiv_pos_site_id
 _symmetry_equiv_pos_as_xyz
  1  'x, y, z'
loop_
 _atom_site_type_symbol
 _atom_site_label
 _atom_site_symmetry_multiplicity
 _atom_site_fract_x
 _atom_site_fract_y
 _atom_site_fract_z
 _atom_site_occupancy
  Al  Al0  1  0.11223738  0.09410720  0.30299788  1
  Al  Al1  1  0.21132140  0.21258924  0.05859359  1
  Al  Al2  1  0.54039415  0.21363288  0.11993275  1
  Al  Al3  1  0.12250485  0.08860555  0.81301915  1
  Al  Al4  1  0.22309833  0.20377153  0.56608735  1
  Al  Al5  1  0.78836732  0.09313236  0.27820425  1
  Al  Al6  1  0.91111867  0.19795529  0.06209084  1
  Al  Al7  1  0.42311775  0.11294689  0.87675054  1
  Al  Al8  1  0.52744557  0.22040233  0.63331124  1
  Al  Al9  1  0.11237019  0.42728653  0.30415174  1
  Al  Al10  1  0.20621788  0.54244011  0.05750838  1
  Al  Al11  1  0.45910759  0.42638830  0.37206002  1
  Al  Al12  1  0.12324036  0.42674053  0.80957068  1
  Al  Al13  1  0.22868842  0.53742905  0.55599313  1
  Al  Al14  1  0.78985495  0.42688024  0.28799317  1
  Al  Al15  1  0.91670108  0.52954434  0.05677196  1
  Al  Al16  1  0.41595161  0.43533757  0.87663525  1
  Al  Al17  1  0.53965617  0.54585941  0.60484766  1
  Al  Al18  1  0.11798217  0.75909537  0.30204478  1
  Al  Al19  1  0.21072540  0.87753137  0.05763096  1
  Al  Al20  1  0.79685217  0.75371112  0.81841577  1
  Al  Al21  1  0.44315343  0.75869471  0.30618854  1
  Al  Al22  1  0.11990050  0.75571997  0.80928998  1
  Al  Al23  1  0.23292678  0.86911385  0.56211001  1
  Al  Al24  1  0.79638459  0.74959378  0.28455423  1
  Al  Al25  1  0.91013372  0.85705370  0.05557666  1
  Al  Al26  1  0.42030753  0.76590433  0.81290220  1
  Al  Al27  1  0.54127780  0.88618115  0.64784210  1
  Gd  Gd28  1  0.76089565  0.10125006  0.84622516  1
  Gd  Gd29  1  0.88720308  0.20329769  0.54854329  1
  Gd  Gd30  1  0.45393319  0.08539857  0.35999986  1
  Gd  Gd31  1  0.77459384  0.43522540  0.83228999  1
  Gd  Gd32  1  0.89094422  0.54014672  0.55498067  1
  Gd  Gd33  1  0.54626340  0.53073118  0.09310746  1
  Gd  Gd34  1  0.88507975  0.87565331  0.55755065  1
  Gd  Gd35  1  0.56337845  0.85861816  0.07376598  1
  N  N36  1  0.18731708  0.22161630  0.37890745  1
  N  N37  1  0.11883837  0.09146272  0.11945805  1
  N  N38  1  0.92411921  0.18651517  0.88034374  1
  N  N39  1  0.74413955  0.11327832  0.62503667  1
  N  N40  1  0.57021024  0.22192388  0.29772440  1
  N  N41  1  0.43085326  0.11504619  0.06872452  1
  N  N42  1  0.20796307  0.21347798  0.87394670  1
  N  N43  1  0.13744939  0.08092907  0.63044541  1
  N  N44  1  0.89100821  0.20331805  0.32849244  1
  N  N45  1  0.78094828  0.09124612  0.09083705  1
  N  N46  1  0.49813814  0.23574587  0.81070148  1
  N  N47  1  0.44351132  0.09115849  0.57941906  1
  N  N48  1  0.21845658  0.54121250  0.36616524  1
  N  N49  1  0.11979613  0.42130139  0.12105100  1
  N  N50  1  0.91487588  0.54538923  0.87114978  1
  N  N51  1  0.74950134  0.44229171  0.61740036  1
  N  N52  1  0.56461787  0.53478362  0.32692169  1
  N  N53  1  0.41935291  0.41171978  0.05829784  1
  N  N54  1  0.20350581  0.55096815  0.87304631  1
  N  N55  1  0.14392678  0.41495496  0.62771273  1
  N  N56  1  0.89569730  0.53708954  0.33990846  1
  N  N57  1  0.81101191  0.41778460  0.09960163  1
  N  N58  1  0.51587516  0.55255814  0.85145983  1
  N  N59  1  0.44820264  0.42570946  0.55762861  1
  N  N60  1  0.22372696  0.87376897  0.37369037  1
  N  N61  1  0.11596486  0.75951599  0.11719952  1
  N  N62  1  0.91143725  0.84739909  0.86932242  1
  N  N63  1  0.75491242  0.77298383  0.64253226  1
  N  N64  1  0.58295057  0.83697069  0.30756561  1
  N  N65  1  0.40132848  0.77918753  0.12815944  1
  N  N66  1  0.21667679  0.87453420  0.87311947  1
  N  N67  1  0.14127153  0.74730476  0.62526852  1
  N  N68  1  0.89181936  0.87581130  0.33684898  1
  N  N69  1  0.82171101  0.73944955  0.10577861  1
  N  N70  1  0.54096670  0.88257032  0.83985827  1
  N  N71  1  0.43809891  0.76592007  0.62658039  1
