# generated using pymatgen
data_Gd2Al7N9
_symmetry_space_group_name_H-M   'P 1'
_cell_length_a   10.05027836
_cell_length_b   9.86983329
_cell_length_c   10.34212374
_cell_angle_alpha   90.14132698
_cell_angle_beta   90.75110466
_cell_angle_gamma   60.74577211
_symmetry_Int_Tables_number   1
_chemical_formula_structural   Gd2Al7N9
_chemical_formula_sum   'Gd8 Al28 N36'
_cell_volume   894.95539393
_cell_formula_units_Z   4
loop_
 _symmetry_equiv_pos_site_id
 _symmetry_equiv_pos_as_xyz
  1  'x, y, z'
loop_
 _atom_site_type_symbol
 _atom_site_label
 _atom_site_symmetry_multiplicity
 _atom_site_fract_x
 _atom_site_fract_y
 _atom_site_fract_z
 _atom_site_occupancy
  Al  Al0  1  0.12682682  0.08729562  0.39962876  1
  Al  Al1  1  0.21236229  0.21499902  0.15122839  1
  Al  Al2  1  0.53298999  0.22392841  0.14984988  1
  Al  Al3  1  0.11396225  0.09206355  0.90244055  1
  Al  Al4  1  0.22891532  0.19898906  0.65925846  1
  Al  Al5  1  0.78541964  0.08862677  0.31804812  1
  Al  Al6  1  0.91039213  0.19739331  0.15138127  1
  Al  Al7  1  0.41736365  0.11685829  0.90717447  1
  Al  Al8  1  0.52583869  0.22124799  0.67254342  1
  Al  Al9  1  0.12558710  0.41880041  0.40419002  1
  Al  Al10  1  0.21823999  0.53429722  0.16091841  1
  Al  Al11  1  0.45673278  0.42628690  0.41265905  1
  Al  Al12  1  0.11885658  0.42669510  0.90325966  1
  Al  Al13  1  0.23233617  0.52978724  0.64564657  1
  Al  Al14  1  0.79437151  0.42820636  0.33375150  1
  Al  Al15  1  0.91030438  0.53401213  0.08885123  1
  Al  Al16  1  0.40711872  0.44450331  0.90496817  1
  Al  Al17  1  0.52505601  0.55349019  0.66594980  1
  Al  Al18  1  0.12342253  0.75659305  0.35689899  1
  Al  Al19  1  0.21653867  0.88043423  0.15950287  1
  Al  Al20  1  0.78489211  0.75873050  0.85454615  1
  Al  Al21  1  0.46347839  0.75092146  0.41721660  1
  Al  Al22  1  0.11342215  0.75922635  0.84297205  1
  Al  Al23  1  0.23089257  0.87361010  0.64495830  1
  Al  Al24  1  0.80075029  0.74296492  0.32443497  1
  Al  Al25  1  0.91676514  0.85129354  0.09446873  1
  Al  Al26  1  0.41146667  0.77514745  0.90202278  1
  Al  Al27  1  0.53773327  0.88074566  0.68180847  1
  Gd  Gd28  1  0.76351963  0.09759793  0.88373188  1
  Gd  Gd29  1  0.87852787  0.20934883  0.61388669  1
  Gd  Gd30  1  0.45223643  0.08853772  0.40652057  1
  Gd  Gd31  1  0.76087889  0.43363841  0.88133539  1
  Gd  Gd32  1  0.88478392  0.54007547  0.61209425  1
  Gd  Gd33  1  0.53891982  0.54524543  0.14885207  1
  Gd  Gd34  1  0.87851375  0.87691834  0.58982140  1
  Gd  Gd35  1  0.56015908  0.87282893  0.11954503  1
  N  N36  1  0.20308682  0.21557541  0.33336929  1
  N  N37  1  0.11370301  0.09320847  0.09382196  1
  N  N38  1  0.91695975  0.18917500  0.84235697  1
  N  N39  1  0.73438228  0.11029835  0.65573419  1
  N  N40  1  0.56976632  0.22262566  0.33201350  1
  N  N41  1  0.42075128  0.12668655  0.09748871  1
  N  N42  1  0.21110829  0.21001044  0.84790925  1
  N  N43  1  0.14383620  0.08110566  0.58254029  1
  N  N44  1  0.90333873  0.19602316  0.34841212  1
  N  N45  1  0.78410944  0.09082335  0.12665306  1
  N  N46  1  0.50237253  0.23756012  0.85365083  1
  N  N47  1  0.44123497  0.09061017  0.62571446  1
  N  N48  1  0.23646162  0.52683067  0.34891425  1
  N  N49  1  0.12227316  0.42379831  0.09200117  1
  N  N50  1  0.90175940  0.54745348  0.89611784  1
  N  N51  1  0.73485834  0.45147364  0.66082905  1
  N  N52  1  0.56783886  0.53385629  0.36782003  1
  N  N53  1  0.41488969  0.42638830  0.08799242  1
  N  N54  1  0.20837305  0.54161881  0.83480310  1
  N  N55  1  0.14971044  0.40294281  0.58917278  1
  N  N56  1  0.90291790  0.53316019  0.38541485  1
  N  N57  1  0.80635501  0.41993692  0.13685296  1
  N  N58  1  0.49706581  0.56537310  0.85416599  1
  N  N59  1  0.44130549  0.42733939  0.59695200  1
  N  N60  1  0.24089352  0.86941980  0.34825322  1
  N  N61  1  0.11896691  0.75783484  0.15075781  1
  N  N62  1  0.91323606  0.84156482  0.90508660  1
  N  N63  1  0.74821270  0.77779644  0.67643018  1
  N  N64  1  0.58344728  0.83612598  0.34763412  1
  N  N65  1  0.40231607  0.78323757  0.08087317  1
  N  N66  1  0.21181842  0.88353383  0.83503551  1
  N  N67  1  0.13800824  0.74806550  0.61297843  1
  N  N68  1  0.89301600  0.87293041  0.36919469  1
  N  N69  1  0.82044834  0.73819731  0.14191253  1
  N  N70  1  0.54020827  0.88194530  0.87476777  1
  N  N71  1  0.44391337  0.76596240  0.60510431  1
