# generated using pymatgen
data_Gd2Al7N9
_symmetry_space_group_name_H-M   'P 1'
_cell_length_a   10.05484659
_cell_length_b   9.83104334
_cell_length_c   10.45554375
_cell_angle_alpha   90.01502485
_cell_angle_beta   89.99538113
_cell_angle_gamma   60.18233520
_symmetry_Int_Tables_number   1
_chemical_formula_structural   Gd2Al7N9
_chemical_formula_sum   'Gd8 Al28 N36'
_cell_volume   896.70027078
_cell_formula_units_Z   4
loop_
 _symmetry_equiv_pos_site_id
 _symmetry_equiv_pos_as_xyz
  1  'x, y, z'
loop_
 _atom_site_type_symbol
 _atom_site_label
 _atom_site_symmetry_multiplicity
 _atom_site_fract_x
 _atom_site_fract_y
 _atom_site_fract_z
 _atom_site_occupancy
  Al  Al0  1  0.11257132  0.09455649  0.30198727  1
  Al  Al1  1  0.22030985  0.20885438  0.06004342  1
  Al  Al2  1  0.53843272  0.21284590  0.12446113  1
  Al  Al3  1  0.12252087  0.08813249  0.81541871  1
  Al  Al4  1  0.22315958  0.20353771  0.56686713  1
  Al  Al5  1  0.78980722  0.09407802  0.27882699  1
  Al  Al6  1  0.91072096  0.20112195  0.06150636  1
  Al  Al7  1  0.41843753  0.10925648  0.81845394  1
  Al  Al8  1  0.53241176  0.22660458  0.63143921  1
  Al  Al9  1  0.11216886  0.42690191  0.30194300  1
  Al  Al10  1  0.20427357  0.54227771  0.05878918  1
  Al  Al11  1  0.45083731  0.42509610  0.37046420  1
  Al  Al12  1  0.12252001  0.42727243  0.81239253  1
  Al  Al13  1  0.23141551  0.53681311  0.55879807  1
  Al  Al14  1  0.79401827  0.42582999  0.29201446  1
  Al  Al15  1  0.91184357  0.53045256  0.05657026  1
  Al  Al16  1  0.41650563  0.43658248  0.88131337  1
  Al  Al17  1  0.55202926  0.54804041  0.54712068  1
  Al  Al18  1  0.11596332  0.76019394  0.30195261  1
  Al  Al19  1  0.21133452  0.87589571  0.05837932  1
  Al  Al20  1  0.79675658  0.75289644  0.81765129  1
  Al  Al21  1  0.43878358  0.76515767  0.30989574  1
  Al  Al22  1  0.11917071  0.75575824  0.81026566  1
  Al  Al23  1  0.23381296  0.86740653  0.56294830  1
  Al  Al24  1  0.79283051  0.75147427  0.28429288  1
  Al  Al25  1  0.90752649  0.85737948  0.05670157  1
  Al  Al26  1  0.42217196  0.75790462  0.80790955  1
  Al  Al27  1  0.54701710  0.87440498  0.63928359  1
  Gd  Gd28  1  0.76080888  0.10231612  0.84895021  1
  Gd  Gd29  1  0.89414044  0.19839606  0.54923160  1
  Gd  Gd30  1  0.45277763  0.08808534  0.35283880  1
  Gd  Gd31  1  0.76576892  0.44050915  0.82203417  1
  Gd  Gd32  1  0.90020562  0.53649229  0.55345611  1
  Gd  Gd33  1  0.54562621  0.52949415  0.09645215  1
  Gd  Gd34  1  0.88600325  0.87555152  0.55735927  1
  Gd  Gd35  1  0.55396494  0.86678035  0.06894093  1
  N  N36  1  0.18570948  0.22273580  0.38202282  1
  N  N37  1  0.11860011  0.09157504  0.11753462  1
  N  N38  1  0.92160438  0.19308216  0.87839439  1
  N  N39  1  0.74674933  0.11316167  0.62549404  1
  N  N40  1  0.57487406  0.22422822  0.30151497  1
  N  N41  1  0.42457310  0.11360486  0.11516467  1
  N  N42  1  0.21539030  0.20923378  0.87398582  1
  N  N43  1  0.14200938  0.07801390  0.63301145  1
  N  N44  1  0.89269590  0.20309629  0.32970842  1
  N  N45  1  0.78066072  0.09185394  0.09088641  1
  N  N46  1  0.50069581  0.23914275  0.81051804  1
  N  N47  1  0.44095135  0.09270114  0.59791092  1
  N  N48  1  0.21672944  0.54117554  0.36541732  1
  N  N49  1  0.11587701  0.42225184  0.11844132  1
  N  N50  1  0.91235327  0.54328492  0.87005189  1
  N  N51  1  0.75246512  0.44210596  0.60569274  1
  N  N52  1  0.55981732  0.54195947  0.35133287  1
  N  N53  1  0.41679833  0.41016120  0.06313251  1
  N  N54  1  0.20390131  0.55093507  0.87410543  1
  N  N55  1  0.14858770  0.41292760  0.63063911  1
  N  N56  1  0.89673541  0.53856604  0.33907176  1
  N  N57  1  0.80837470  0.41863909  0.10551537  1
  N  N58  1  0.51606432  0.55622644  0.87370117  1
  N  N59  1  0.44880866  0.42671375  0.55432051  1
  N  N60  1  0.21984557  0.87614945  0.37486694  1
  N  N61  1  0.11405357  0.75971718  0.11708485  1
  N  N62  1  0.91045588  0.84712695  0.86910984  1
  N  N63  1  0.75877997  0.76919401  0.64020464  1
  N  N64  1  0.58240698  0.83621698  0.31608206  1
  N  N65  1  0.40054822  0.77842549  0.13362660  1
  N  N66  1  0.21814662  0.87274679  0.87237741  1
  N  N67  1  0.14101012  0.74741624  0.62590637  1
  N  N68  1  0.89087581  0.87619966  0.33606273  1
  N  N69  1  0.81417425  0.74289274  0.10423794  1
  N  N70  1  0.54060647  0.87991578  0.83392461  1
  N  N71  1  0.44313882  0.75695251  0.61934437  1
