# generated using pymatgen
data_Gd2Al7N9
_symmetry_space_group_name_H-M   'P 1'
_cell_length_a   9.97643339
_cell_length_b   9.82024005
_cell_length_c   10.57887003
_cell_angle_alpha   90.06532630
_cell_angle_beta   89.84926098
_cell_angle_gamma   60.32012278
_symmetry_Int_Tables_number   1
_chemical_formula_structural   Gd2Al7N9
_chemical_formula_sum   'Gd8 Al28 N36'
_cell_volume   900.44257122
_cell_formula_units_Z   4
loop_
 _symmetry_equiv_pos_site_id
 _symmetry_equiv_pos_as_xyz
  1  'x, y, z'
loop_
 _atom_site_type_symbol
 _atom_site_label
 _atom_site_symmetry_multiplicity
 _atom_site_fract_x
 _atom_site_fract_y
 _atom_site_fract_z
 _atom_site_occupancy
  Al  Al0  1  0.11651232  0.08990905  0.30314181  1
  Al  Al1  1  0.21213373  0.21282770  0.05671155  1
  Al  Al2  1  0.54129839  0.21809151  0.11702776  1
  Al  Al3  1  0.11665741  0.09253500  0.80925377  1
  Al  Al4  1  0.22182493  0.20382345  0.56488840  1
  Al  Al5  1  0.79027791  0.09247472  0.27695321  1
  Al  Al6  1  0.91059206  0.19763963  0.06187694  1
  Al  Al7  1  0.42327510  0.11112422  0.87525109  1
  Al  Al8  1  0.52642133  0.21880014  0.63501912  1
  Al  Al9  1  0.11576594  0.42631585  0.30414397  1
  Al  Al10  1  0.21002557  0.54116579  0.05438067  1
  Al  Al11  1  0.46237955  0.42467043  0.38062712  1
  Al  Al12  1  0.12099188  0.42619489  0.80907422  1
  Al  Al13  1  0.22825299  0.53549654  0.55611015  1
  Al  Al14  1  0.79799401  0.42192301  0.29013984  1
  Al  Al15  1  0.91749269  0.52950585  0.05558272  1
  Al  Al16  1  0.41530141  0.43886890  0.87082358  1
  Al  Al17  1  0.52948641  0.54906437  0.63191872  1
  Al  Al18  1  0.12165490  0.75868763  0.30210424  1
  Al  Al19  1  0.20459849  0.88183581  0.04907205  1
  Al  Al20  1  0.79137635  0.75505979  0.81700001  1
  Al  Al21  1  0.46805635  0.74745374  0.38615803  1
  Al  Al22  1  0.11765388  0.75507155  0.80570895  1
  Al  Al23  1  0.22889395  0.87041868  0.56040613  1
  Al  Al24  1  0.80097825  0.74593657  0.28629052  1
  Al  Al25  1  0.91297203  0.85515811  0.05487771  1
  Al  Al26  1  0.41750381  0.77033244  0.86899703  1
  Al  Al27  1  0.53737931  0.88156521  0.64605704  1
  Gd  Gd28  1  0.76141706  0.09961439  0.84456800  1
  Gd  Gd29  1  0.88131917  0.20742243  0.54959327  1
  Gd  Gd30  1  0.45733694  0.08720204  0.36371485  1
  Gd  Gd31  1  0.76372382  0.44103945  0.84106394  1
  Gd  Gd32  1  0.88661226  0.53897152  0.55908766  1
  Gd  Gd33  1  0.54090549  0.53867693  0.12141439  1
  Gd  Gd34  1  0.88540891  0.87387570  0.55550478  1
  Gd  Gd35  1  0.56574756  0.86516237  0.08621668  1
  N  N36  1  0.19176379  0.21969935  0.37714355  1
  N  N37  1  0.12183657  0.08924215  0.11975320  1
  N  N38  1  0.91918057  0.19225614  0.88202946  1
  N  N39  1  0.74433779  0.11004946  0.62546627  1
  N  N40  1  0.56988384  0.22659598  0.29457133  1
  N  N41  1  0.43106344  0.12013801  0.06551616  1
  N  N42  1  0.20645145  0.21294934  0.87322315  1
  N  N43  1  0.13465968  0.08163370  0.62788872  1
  N  N44  1  0.89387175  0.20159982  0.32903797  1
  N  N45  1  0.78403900  0.08869362  0.09142368  1
  N  N46  1  0.49784809  0.23551604  0.81053180  1
  N  N47  1  0.44295630  0.08973064  0.57948212  1
  N  N48  1  0.22129397  0.54034581  0.36669497  1
  N  N49  1  0.12174500  0.42110349  0.12078476  1
  N  N50  1  0.91093966  0.54601084  0.87104003  1
  N  N51  1  0.74735755  0.44118984  0.62747382  1
  N  N52  1  0.56864776  0.53360134  0.33474336  1
  N  N53  1  0.42755459  0.41568093  0.05016698  1
  N  N54  1  0.20103048  0.55095427  0.87257938  1
  N  N55  1  0.14155382  0.41439152  0.62787706  1
  N  N56  1  0.89859668  0.53512229  0.34286296  1
  N  N57  1  0.80709317  0.41958896  0.10140477  1
  N  N58  1  0.49805399  0.56330420  0.81230833  1
  N  N59  1  0.44833370  0.42290767  0.56076705  1
  N  N60  1  0.22411201  0.87256296  0.37105468  1
  N  N61  1  0.12202888  0.75753248  0.11795364  1
  N  N62  1  0.90842382  0.84572144  0.87075118  1
  N  N63  1  0.75376188  0.77344159  0.64202746  1
  N  N64  1  0.58133944  0.83422124  0.30856299  1
  N  N65  1  0.41567163  0.77078185  0.04690723  1
  N  N66  1  0.19964524  0.88320553  0.86485543  1
  N  N67  1  0.14156151  0.74542459  0.62368261  1
  N  N68  1  0.89184279  0.87570863  0.33625122  1
  N  N69  1  0.82588949  0.73687565  0.10854198  1
  N  N70  1  0.53843929  0.88144794  0.83538840  1
  N  N71  1  0.45026950  0.76191214  0.57109585  1
