# generated using pymatgen
data_Gd2Al7N9
_symmetry_space_group_name_H-M   'P 1'
_cell_length_a   9.87587227
_cell_length_b   9.83362652
_cell_length_c   10.79852947
_cell_angle_alpha   90.18634516
_cell_angle_beta   89.36827635
_cell_angle_gamma   60.13818086
_symmetry_Int_Tables_number   1
_chemical_formula_structural   Gd2Al7N9
_chemical_formula_sum   'Gd8 Al28 N36'
_cell_volume   909.36657457
_cell_formula_units_Z   4
loop_
 _symmetry_equiv_pos_site_id
 _symmetry_equiv_pos_as_xyz
  1  'x, y, z'
loop_
 _atom_site_type_symbol
 _atom_site_label
 _atom_site_symmetry_multiplicity
 _atom_site_fract_x
 _atom_site_fract_y
 _atom_site_fract_z
 _atom_site_occupancy
  Al  Al0  1  0.11606051  0.08199703  0.30041816  1
  Al  Al1  1  0.21968547  0.21038439  0.12818565  1
  Al  Al2  1  0.54015601  0.21891375  0.12188191  1
  Al  Al3  1  0.11116859  0.08744767  0.81618046  1
  Al  Al4  1  0.23424011  0.19823717  0.65146809  1
  Al  Al5  1  0.78860427  0.09229488  0.28146957  1
  Al  Al6  1  0.90886007  0.19758545  0.06559467  1
  Al  Al7  1  0.41630355  0.11686870  0.88482870  1
  Al  Al8  1  0.53008795  0.21891100  0.64506379  1
  Al  Al9  1  0.11473508  0.43651511  0.30151512  1
  Al  Al10  1  0.21107312  0.54310563  0.05566591  1
  Al  Al11  1  0.46404546  0.42362649  0.38719457  1
  Al  Al12  1  0.11376414  0.43674007  0.81634852  1
  Al  Al13  1  0.22882315  0.53535766  0.56167443  1
  Al  Al14  1  0.80157501  0.41920341  0.29594821  1
  Al  Al15  1  0.91303656  0.53213511  0.06054987  1
  Al  Al16  1  0.41853266  0.43954818  0.87603781  1
  Al  Al17  1  0.53028605  0.54895110  0.63573080  1
  Al  Al18  1  0.12119052  0.75898554  0.30627984  1
  Al  Al19  1  0.20453699  0.87812619  0.05103242  1
  Al  Al20  1  0.78621611  0.75720349  0.82455077  1
  Al  Al21  1  0.46947341  0.74749219  0.39416361  1
  Al  Al22  1  0.11756176  0.75409719  0.81065593  1
  Al  Al23  1  0.22903294  0.86977532  0.56540828  1
  Al  Al24  1  0.79831834  0.74821448  0.29210136  1
  Al  Al25  1  0.90999882  0.85510550  0.06108217  1
  Al  Al26  1  0.42031521  0.76959116  0.87469296  1
  Al  Al27  1  0.53988297  0.87889972  0.65574537  1
  Gd  Gd28  1  0.76296810  0.09637265  0.84916106  1
  Gd  Gd29  1  0.88362652  0.20511828  0.55302276  1
  Gd  Gd30  1  0.45021143  0.09333685  0.38475251  1
  Gd  Gd31  1  0.76209634  0.44084215  0.84312007  1
  Gd  Gd32  1  0.88775007  0.53831372  0.56204162  1
  Gd  Gd33  1  0.53935765  0.54038531  0.13355413  1
  Gd  Gd34  1  0.88715472  0.87141510  0.55876597  1
  Gd  Gd35  1  0.55689681  0.87254328  0.09990824  1
  N  N36  1  0.20733904  0.21307760  0.31037170  1
  N  N37  1  0.11950507  0.08168350  0.12047068  1
  N  N38  1  0.91553362  0.19421920  0.89129826  1
  N  N39  1  0.74959134  0.10586049  0.63382806  1
  N  N40  1  0.56453918  0.22703220  0.29818452  1
  N  N41  1  0.42433244  0.12695760  0.06327864  1
  N  N42  1  0.21089164  0.21016359  0.83131101  1
  N  N43  1  0.13182896  0.07670169  0.63498434  1
  N  N44  1  0.89465086  0.19985770  0.33638573  1
  N  N45  1  0.78273576  0.08793584  0.09889821  1
  N  N46  1  0.49895092  0.23650803  0.81716294  1
  N  N47  1  0.44325872  0.08971822  0.59598362  1
  N  N48  1  0.22159755  0.54222665  0.37382467  1
  N  N49  1  0.11769757  0.43253757  0.12140961  1
  N  N50  1  0.90513445  0.54932155  0.88127277  1
  N  N51  1  0.75152566  0.43805250  0.63416433  1
  N  N52  1  0.57114288  0.53302110  0.34337768  1
  N  N53  1  0.43275083  0.41591900  0.05215254  1
  N  N54  1  0.20196937  0.55230776  0.87860919  1
  N  N55  1  0.13835256  0.42176445  0.63545378  1
  N  N56  1  0.89917609  0.53609754  0.34904078  1
  N  N57  1  0.80803830  0.41756588  0.11159128  1
  N  N58  1  0.49565422  0.56613174  0.81151740  1
  N  N59  1  0.45183932  0.41910373  0.56448634  1
  N  N60  1  0.22405553  0.87182275  0.37749313  1
  N  N61  1  0.12226744  0.75619171  0.12416889  1
  N  N62  1  0.90710317  0.84348705  0.88071997  1
  N  N63  1  0.75835132  0.77035127  0.65086836  1
  N  N64  1  0.57563286  0.84197075  0.31737081  1
  N  N65  1  0.41955426  0.76623103  0.04853531  1
  N  N66  1  0.19927832  0.88071232  0.87155929  1
  N  N67  1  0.14259108  0.74445457  0.63062915  1
  N  N68  1  0.89038654  0.87647109  0.34190055  1
  N  N69  1  0.81912284  0.73993030  0.11694761  1
  N  N70  1  0.53871731  0.88160297  0.84136401  1
  N  N71  1  0.45305206  0.76122385  0.57491918  1
