# generated using pymatgen
data_Gd2Al7N9
_symmetry_space_group_name_H-M   'P 1'
_cell_length_a   10.02899686
_cell_length_b   9.85137597
_cell_length_c   10.50286283
_cell_angle_alpha   90.02165213
_cell_angle_beta   90.00627034
_cell_angle_gamma   60.24694921
_symmetry_Int_Tables_number   1
_chemical_formula_structural   Gd2Al7N9
_chemical_formula_sum   'Gd8 Al28 N36'
_cell_volume   900.88222993
_cell_formula_units_Z   4
loop_
 _symmetry_equiv_pos_site_id
 _symmetry_equiv_pos_as_xyz
  1  'x, y, z'
loop_
 _atom_site_type_symbol
 _atom_site_label
 _atom_site_symmetry_multiplicity
 _atom_site_fract_x
 _atom_site_fract_y
 _atom_site_fract_z
 _atom_site_occupancy
  Al  Al0  1  0.11569925  0.09208440  0.30325160  1
  Al  Al1  1  0.21152985  0.21253745  0.05829555  1
  Al  Al2  1  0.53921273  0.21712328  0.12001088  1
  Al  Al3  1  0.11821175  0.09095775  0.80896061  1
  Al  Al4  1  0.22086332  0.20459578  0.56486405  1
  Al  Al5  1  0.78974598  0.09285867  0.27800368  1
  Al  Al6  1  0.91282170  0.19546811  0.06204718  1
  Al  Al7  1  0.42241506  0.11274585  0.87716145  1
  Al  Al8  1  0.52500878  0.22013504  0.63424235  1
  Al  Al9  1  0.11450082  0.42692796  0.30445951  1
  Al  Al10  1  0.20795149  0.54224138  0.05600924  1
  Al  Al11  1  0.46121397  0.42680532  0.37816717  1
  Al  Al12  1  0.12210817  0.42659768  0.80854895  1
  Al  Al13  1  0.22765473  0.53682293  0.55592845  1
  Al  Al14  1  0.79669692  0.42326795  0.28677522  1
  Al  Al15  1  0.91926136  0.52942885  0.05538669  1
  Al  Al16  1  0.41436121  0.43525829  0.87394871  1
  Al  Al17  1  0.52916853  0.54794772  0.63963045  1
  Al  Al18  1  0.12126541  0.75747896  0.30214980  1
  Al  Al19  1  0.20707008  0.88000125  0.04880462  1
  Al  Al20  1  0.79341144  0.75578472  0.81775267  1
  Al  Al21  1  0.45725333  0.75171382  0.35050344  1
  Al  Al22  1  0.11735212  0.75572477  0.80584313  1
  Al  Al23  1  0.23240733  0.86920237  0.56621933  1
  Al  Al24  1  0.80074805  0.74653320  0.28554747  1
  Al  Al25  1  0.91308275  0.85597301  0.05519755  1
  Al  Al26  1  0.41973139  0.76938936  0.85488213  1
  Al  Al27  1  0.53706345  0.88431129  0.65068776  1
  Gd  Gd28  1  0.75940855  0.10094636  0.84582913  1
  Gd  Gd29  1  0.87941671  0.20843095  0.54999591  1
  Gd  Gd30  1  0.45568774  0.08706015  0.36244772  1
  Gd  Gd31  1  0.77292388  0.43587312  0.83922917  1
  Gd  Gd32  1  0.88505019  0.54060422  0.55902287  1
  Gd  Gd33  1  0.54725398  0.53102585  0.10387270  1
  Gd  Gd34  1  0.88380146  0.87554244  0.55737668  1
  Gd  Gd35  1  0.56809888  0.86378849  0.07870793  1
  N  N36  1  0.19099463  0.22042218  0.37640835  1
  N  N37  1  0.12223117  0.08798429  0.11979134  1
  N  N38  1  0.92190254  0.18735892  0.88099724  1
  N  N39  1  0.74183595  0.11223096  0.62539966  1
  N  N40  1  0.57083037  0.22475644  0.29815870  1
  N  N41  1  0.42934218  0.11937603  0.06951831  1
  N  N42  1  0.20652208  0.21276903  0.87331956  1
  N  N43  1  0.13178779  0.08443132  0.62651234  1
  N  N44  1  0.89354441  0.20216485  0.32830134  1
  N  N45  1  0.78242350  0.08994769  0.09164547  1
  N  N46  1  0.49660554  0.23508424  0.81107467  1
  N  N47  1  0.44135441  0.09087655  0.58008286  1
  N  N48  1  0.22075261  0.54040027  0.36600027  1
  N  N49  1  0.12142145  0.42108972  0.12092307  1
  N  N50  1  0.91360336  0.54679434  0.87013471  1
  N  N51  1  0.74526567  0.44312250  0.62515343  1
  N  N52  1  0.56479292  0.53527878  0.32329206  1
  N  N53  1  0.42204308  0.41363913  0.05439077  1
  N  N54  1  0.20153687  0.55143725  0.87215291  1
  N  N55  1  0.14115031  0.41534190  0.62655250  1
  N  N56  1  0.89716914  0.53569198  0.34179912  1
  N  N57  1  0.81314685  0.41657761  0.09855352  1
  N  N58  1  0.50915346  0.55105821  0.82681504  1
  N  N59  1  0.44747455  0.42624402  0.56135958  1
  N  N60  1  0.23047388  0.87001034  0.37068033  1
  N  N61  1  0.12080995  0.75885707  0.11767088  1
  N  N62  1  0.90953983  0.84731032  0.86969109  1
  N  N63  1  0.75247757  0.77471708  0.64193077  1
  N  N64  1  0.58174696  0.83549164  0.30639719  1
  N  N65  1  0.41549662  0.77130817  0.05296136  1
  N  N66  1  0.20314429  0.88073231  0.86442006  1
  N  N67  1  0.13927665  0.74661817  0.62262082  1
  N  N68  1  0.89301354  0.87547742  0.33662859  1
  N  N69  1  0.82744081  0.73671387  0.10765660  1
  N  N70  1  0.54380582  0.88389969  0.84096947  1
  N  N71  1  0.43973721  0.76665377  0.61287176  1
