# generated using pymatgen
data_Gd2Al7N9
_symmetry_space_group_name_H-M   'P 1'
_cell_length_a   9.88888950
_cell_length_b   9.82721141
_cell_length_c   10.80442491
_cell_angle_alpha   89.99644452
_cell_angle_beta   89.44576054
_cell_angle_gamma   60.14792101
_symmetry_Int_Tables_number   1
_chemical_formula_structural   Gd2Al7N9
_chemical_formula_sum   'Gd8 Al28 N36'
_cell_volume   910.60216667
_cell_formula_units_Z   4
loop_
 _symmetry_equiv_pos_site_id
 _symmetry_equiv_pos_as_xyz
  1  'x, y, z'
loop_
 _atom_site_type_symbol
 _atom_site_label
 _atom_site_symmetry_multiplicity
 _atom_site_fract_x
 _atom_site_fract_y
 _atom_site_fract_z
 _atom_site_occupancy
  Al  Al0  1  0.12001588  0.07996017  0.31926620  1
  Al  Al1  1  0.22170104  0.20989096  0.14208993  1
  Al  Al2  1  0.54002079  0.21762758  0.13721205  1
  Al  Al3  1  0.10972955  0.09835498  0.87778063  1
  Al  Al4  1  0.22722307  0.19536768  0.66324868  1
  Al  Al5  1  0.78884177  0.08827546  0.29633106  1
  Al  Al6  1  0.89971593  0.20248636  0.09021037  1
  Al  Al7  1  0.41933239  0.11527925  0.89826864  1
  Al  Al8  1  0.52770203  0.21909362  0.66094159  1
  Al  Al9  1  0.11688089  0.43365386  0.31608227  1
  Al  Al10  1  0.21070147  0.54227557  0.06979679  1
  Al  Al11  1  0.46505867  0.42098221  0.40380315  1
  Al  Al12  1  0.11391317  0.43807420  0.82995744  1
  Al  Al13  1  0.22895185  0.53531230  0.57715565  1
  Al  Al14  1  0.80219444  0.42011198  0.31035444  1
  Al  Al15  1  0.91271143  0.53264959  0.07558526  1
  Al  Al16  1  0.41808425  0.44047434  0.89158197  1
  Al  Al17  1  0.52737627  0.55174671  0.65107548  1
  Al  Al18  1  0.12343641  0.75508284  0.32049453  1
  Al  Al19  1  0.20670321  0.87371772  0.07022739  1
  Al  Al20  1  0.78758568  0.75748726  0.83908999  1
  Al  Al21  1  0.47252824  0.74426693  0.40908298  1
  Al  Al22  1  0.11822999  0.75626440  0.82418146  1
  Al  Al23  1  0.22724214  0.87451595  0.57336631  1
  Al  Al24  1  0.80102117  0.74592195  0.30767247  1
  Al  Al25  1  0.90967121  0.85521235  0.07496560  1
  Al  Al26  1  0.41909769  0.77184511  0.89042782  1
  Al  Al27  1  0.54001452  0.87868097  0.67068454  1
  Gd  Gd28  1  0.76418427  0.09804600  0.86105847  1
  Gd  Gd29  1  0.87312386  0.21191434  0.56190447  1
  Gd  Gd30  1  0.45081600  0.09031107  0.40275679  1
  Gd  Gd31  1  0.75700081  0.44717014  0.85906418  1
  Gd  Gd32  1  0.88846548  0.53698666  0.57834017  1
  Gd  Gd33  1  0.53613630  0.54120769  0.15217965  1
  Gd  Gd34  1  0.88819847  0.87130397  0.57464178  1
  Gd  Gd35  1  0.55830536  0.87184887  0.11616451  1
  N  N36  1  0.21152950  0.20946612  0.32152907  1
  N  N37  1  0.11958748  0.08490030  0.12490606  1
  N  N38  1  0.90499848  0.20385036  0.91560982  1
  N  N39  1  0.74712767  0.10530402  0.64812271  1
  N  N40  1  0.56499321  0.22423132  0.31466750  1
  N  N41  1  0.42510033  0.12598843  0.07644494  1
  N  N42  1  0.21130770  0.20912945  0.84599567  1
  N  N43  1  0.12579160  0.08816977  0.61397507  1
  N  N44  1  0.89707793  0.19696094  0.34254290  1
  N  N45  1  0.78047945  0.08643563  0.11533241  1
  N  N46  1  0.49988201  0.23710924  0.83321264  1
  N  N47  1  0.44075411  0.09077621  0.61417585  1
  N  N48  1  0.22373701  0.53876226  0.38848380  1
  N  N49  1  0.11756335  0.43202836  0.13570239  1
  N  N50  1  0.90631217  0.54924890  0.89643294  1
  N  N51  1  0.74825553  0.44171702  0.65158765  1
  N  N52  1  0.57526429  0.52851891  0.36164241  1
  N  N53  1  0.43231516  0.41571173  0.06769696  1
  N  N54  1  0.20179174  0.55353341  0.89298538  1
  N  N55  1  0.13881603  0.42165580  0.65146063  1
  N  N56  1  0.90236795  0.53309960  0.36485334  1
  N  N57  1  0.80293637  0.42359520  0.12879677  1
  N  N58  1  0.49115695  0.57018382  0.82648983  1
  N  N59  1  0.45140516  0.41934057  0.58061135  1
  N  N60  1  0.23126817  0.86349254  0.38419350  1
  N  N61  1  0.12176815  0.75447081  0.13894825  1
  N  N62  1  0.90772654  0.84476896  0.89492413  1
  N  N63  1  0.75865846  0.76996570  0.66578976  1
  N  N64  1  0.57889867  0.83934405  0.33319094  1
  N  N65  1  0.42049852  0.76595985  0.06429896  1
  N  N66  1  0.19768392  0.88379899  0.88890527  1
  N  N67  1  0.14420396  0.74597316  0.64419147  1
  N  N68  1  0.89339576  0.87333218  0.35777077  1
  N  N69  1  0.82011480  0.73973387  0.13226577  1
  N  N70  1  0.53963762  0.88073073  0.85654685  1
  N  N71  1  0.45156960  0.76327455  0.58888599  1
