# generated using pymatgen
data_Gd2Al7N9
_symmetry_space_group_name_H-M   'P 1'
_cell_length_a   10.10053261
_cell_length_b   9.88423199
_cell_length_c   10.20631556
_cell_angle_alpha   90.09276747
_cell_angle_beta   90.67061709
_cell_angle_gamma   60.84868428
_symmetry_Int_Tables_number   1
_chemical_formula_structural   Gd2Al7N9
_chemical_formula_sum   'Gd8 Al28 N36'
_cell_volume   889.82215239
_cell_formula_units_Z   4
loop_
 _symmetry_equiv_pos_site_id
 _symmetry_equiv_pos_as_xyz
  1  'x, y, z'
loop_
 _atom_site_type_symbol
 _atom_site_label
 _atom_site_symmetry_multiplicity
 _atom_site_fract_x
 _atom_site_fract_y
 _atom_site_fract_z
 _atom_site_occupancy
  Al  Al0  1  0.12736101  0.08561602  0.40113505  1
  Al  Al1  1  0.21448623  0.21192377  0.14935166  1
  Al  Al2  1  0.52883162  0.22547206  0.15463680  1
  Al  Al3  1  0.11402449  0.09083859  0.90431570  1
  Al  Al4  1  0.22625314  0.20222772  0.66045654  1
  Al  Al5  1  0.77894407  0.09824194  0.34089430  1
  Al  Al6  1  0.91114704  0.19489118  0.15882387  1
  Al  Al7  1  0.41828416  0.11765172  0.90222669  1
  Al  Al8  1  0.52818211  0.22166266  0.66860004  1
  Al  Al9  1  0.13031729  0.41783353  0.40348715  1
  Al  Al10  1  0.21616375  0.53865396  0.15406916  1
  Al  Al11  1  0.45205607  0.42957003  0.41544041  1
  Al  Al12  1  0.10956460  0.43420817  0.90333222  1
  Al  Al13  1  0.22960048  0.53510619  0.65266632  1
  Al  Al14  1  0.78473617  0.42438577  0.34434609  1
  Al  Al15  1  0.91952370  0.52327455  0.15890842  1
  Al  Al16  1  0.41176999  0.44134661  0.90342450  1
  Al  Al17  1  0.52762468  0.55120963  0.66767825  1
  Al  Al18  1  0.13873340  0.74904813  0.40262219  1
  Al  Al19  1  0.21657888  0.87772915  0.15510934  1
  Al  Al20  1  0.78379781  0.75901947  0.83700940  1
  Al  Al21  1  0.45958484  0.75128180  0.41755149  1
  Al  Al22  1  0.11069247  0.75881142  0.90211240  1
  Al  Al23  1  0.23001263  0.86942517  0.65035015  1
  Al  Al24  1  0.79107138  0.74976366  0.33721633  1
  Al  Al25  1  0.91582657  0.85844345  0.15953941  1
  Al  Al26  1  0.41292298  0.77381111  0.90064526  1
  Al  Al27  1  0.53128802  0.88317944  0.67598964  1
  Gd  Gd28  1  0.76634796  0.09322101  0.90066116  1
  Gd  Gd29  1  0.88431680  0.20651578  0.62277951  1
  Gd  Gd30  1  0.45046615  0.08800600  0.40874212  1
  Gd  Gd31  1  0.77035767  0.43748218  0.88853286  1
  Gd  Gd32  1  0.88458344  0.53943803  0.61451400  1
  Gd  Gd33  1  0.53946007  0.54452065  0.14596317  1
  Gd  Gd34  1  0.88677645  0.87504145  0.61369494  1
  Gd  Gd35  1  0.56699501  0.87040448  0.11366981  1
  N  N36  1  0.20353734  0.21461412  0.33406747  1
  N  N37  1  0.11289545  0.09257651  0.09762985  1
  N  N38  1  0.91408439  0.18898256  0.85091406  1
  N  N39  1  0.72836139  0.11694261  0.62408799  1
  N  N40  1  0.56416694  0.22644582  0.33689700  1
  N  N41  1  0.42229041  0.12492558  0.09715473  1
  N  N42  1  0.20971068  0.21184747  0.85144751  1
  N  N43  1  0.14807773  0.07693144  0.58498271  1
  N  N44  1  0.90236408  0.19745631  0.35781525  1
  N  N45  1  0.78630172  0.08885001  0.13896880  1
  N  N46  1  0.51047963  0.23344570  0.85223255  1
  N  N47  1  0.43561152  0.09527176  0.62889484  1
  N  N48  1  0.23271546  0.53392080  0.34292574  1
  N  N49  1  0.11571260  0.42571655  0.09509960  1
  N  N50  1  0.90756859  0.54664739  0.85124211  1
  N  N51  1  0.73497117  0.44914687  0.65660237  1
  N  N52  1  0.56353124  0.53507996  0.36928684  1
  N  N53  1  0.41478891  0.42518739  0.08897614  1
  N  N54  1  0.20976869  0.54592133  0.84307093  1
  N  N55  1  0.14967699  0.40632600  0.58816683  1
  N  N56  1  0.90711519  0.52747759  0.36510965  1
  N  N57  1  0.80533660  0.41597410  0.14358587  1
  N  N58  1  0.50529300  0.56179287  0.85911505  1
  N  N59  1  0.43659791  0.43113922  0.60118520  1
  N  N60  1  0.23621210  0.86673759  0.34395397  1
  N  N61  1  0.11763914  0.75942847  0.09865671  1
  N  N62  1  0.90622444  0.84980933  0.85275631  1
  N  N63  1  0.73572047  0.78292284  0.65203399  1
  N  N64  1  0.57879216  0.83658977  0.34859666  1
  N  N65  1  0.40564836  0.78430482  0.08274821  1
  N  N66  1  0.20976333  0.87944598  0.84034410  1
  N  N67  1  0.15032883  0.74185121  0.58612959  1
  N  N68  1  0.90374252  0.86930553  0.36057045  1
  N  N69  1  0.82312068  0.73712867  0.15007283  1
  N  N70  1  0.54302421  0.87936582  0.87022123  1
  N  N71  1  0.44018839  0.76525293  0.60697209  1
