# generated using pymatgen
data_Gd2Al7N9
_symmetry_space_group_name_H-M   'P 1'
_cell_length_a   9.93261480
_cell_length_b   9.86115327
_cell_length_c   10.60127171
_cell_angle_alpha   90.18593819
_cell_angle_beta   90.28723809
_cell_angle_gamma   60.42813668
_symmetry_Int_Tables_number   1
_chemical_formula_structural   Gd2Al7N9
_chemical_formula_sum   'Gd8 Al28 N36'
_cell_volume   903.09155168
_cell_formula_units_Z   4
loop_
 _symmetry_equiv_pos_site_id
 _symmetry_equiv_pos_as_xyz
  1  'x, y, z'
loop_
 _atom_site_type_symbol
 _atom_site_label
 _atom_site_symmetry_multiplicity
 _atom_site_fract_x
 _atom_site_fract_y
 _atom_site_fract_z
 _atom_site_occupancy
  Al  Al0  1  0.12669607  0.08625489  0.38621434  1
  Al  Al1  1  0.21571220  0.21315166  0.14407338  1
  Al  Al2  1  0.53987335  0.21932241  0.13670532  1
  Al  Al3  1  0.11894811  0.09293881  0.90030423  1
  Al  Al4  1  0.22559347  0.20053914  0.64763504  1
  Al  Al5  1  0.79328054  0.09040954  0.29727361  1
  Al  Al6  1  0.90357404  0.20024345  0.08419954  1
  Al  Al7  1  0.41670028  0.11704485  0.89590260  1
  Al  Al8  1  0.52742006  0.21963093  0.66168534  1
  Al  Al9  1  0.12845619  0.41857931  0.39166143  1
  Al  Al10  1  0.22141767  0.52824289  0.14514861  1
  Al  Al11  1  0.45681022  0.42621497  0.40096013  1
  Al  Al12  1  0.11580087  0.42575681  0.89482728  1
  Al  Al13  1  0.23143846  0.52523443  0.64228909  1
  Al  Al14  1  0.80384599  0.41829195  0.31361748  1
  Al  Al15  1  0.90726788  0.53385026  0.07726596  1
  Al  Al16  1  0.40674983  0.44364147  0.89382302  1
  Al  Al17  1  0.52100620  0.55537364  0.65297819  1
  Al  Al18  1  0.11986917  0.75781825  0.32102276  1
  Al  Al19  1  0.22086927  0.88150285  0.14678913  1
  Al  Al20  1  0.78791093  0.75752168  0.84039481  1
  Al  Al21  1  0.46324820  0.75068994  0.40633617  1
  Al  Al22  1  0.11418417  0.75701751  0.81873574  1
  Al  Al23  1  0.22803472  0.87904072  0.64099034  1
  Al  Al24  1  0.80332850  0.74218168  0.30927993  1
  Al  Al25  1  0.91886475  0.84910574  0.07601903  1
  Al  Al26  1  0.40896822  0.77735917  0.89139793  1
  Al  Al27  1  0.53808524  0.88145569  0.67180370  1
  Gd  Gd28  1  0.76371271  0.09287146  0.86600868  1
  Gd  Gd29  1  0.86553738  0.21751824  0.57216596  1
  Gd  Gd30  1  0.45883720  0.08716732  0.39728575  1
  Gd  Gd31  1  0.74996938  0.44582309  0.86460009  1
  Gd  Gd32  1  0.87788105  0.54326140  0.58822448  1
  Gd  Gd33  1  0.53620176  0.54531160  0.14747722  1
  Gd  Gd34  1  0.88324994  0.87496938  0.57243374  1
  Gd  Gd35  1  0.56217027  0.87224033  0.10808122  1
  N  N36  1  0.20898249  0.21292298  0.32360546  1
  N  N37  1  0.12466324  0.08996212  0.08773165  1
  N  N38  1  0.90615270  0.19972597  0.90220840  1
  N  N39  1  0.74301540  0.10762173  0.64823952  1
  N  N40  1  0.57157297  0.22366245  0.31637447  1
  N  N41  1  0.42386017  0.12636278  0.08136645  1
  N  N42  1  0.20766326  0.21147925  0.83330356  1
  N  N43  1  0.13572804  0.08452821  0.57156089  1
  N  N44  1  0.90178497  0.19672254  0.35092742  1
  N  N45  1  0.78370436  0.08695894  0.11301643  1
  N  N46  1  0.50187538  0.23676243  0.83836978  1
  N  N47  1  0.44221949  0.09015875  0.61286711  1
  N  N48  1  0.23699489  0.52764715  0.33198479  1
  N  N49  1  0.12277106  0.42004149  0.08024840  1
  N  N50  1  0.89712278  0.55092108  0.89229918  1
  N  N51  1  0.73737959  0.44747502  0.65425483  1
  N  N52  1  0.57112705  0.53196478  0.36096030  1
  N  N53  1  0.42118227  0.42207395  0.07221212  1
  N  N54  1  0.20730064  0.53558481  0.82575525  1
  N  N55  1  0.14615723  0.40483493  0.57522950  1
  N  N56  1  0.90458701  0.53164159  0.36968332  1
  N  N57  1  0.80334758  0.42024779  0.12776323  1
  N  N58  1  0.48567098  0.57186877  0.83451570  1
  N  N59  1  0.44140729  0.42517811  0.58308591  1
  N  N60  1  0.24120540  0.86716246  0.33371438  1
  N  N61  1  0.12231841  0.75620037  0.13760579  1
  N  N62  1  0.91618266  0.83812486  0.89499485  1
  N  N63  1  0.75303954  0.77742117  0.66591540  1
  N  N64  1  0.58264249  0.83621992  0.33303342  1
  N  N65  1  0.40806844  0.77766055  0.06589552  1
  N  N66  1  0.20758462  0.89281211  0.82557601  1
  N  N67  1  0.13445752  0.74902575  0.63351366  1
  N  N68  1  0.89589594  0.87306194  0.35596969  1
  N  N69  1  0.82429260  0.73712349  0.13254285  1
  N  N70  1  0.54035008  0.88244444  0.86102885  1
  N  N71  1  0.44298702  0.76774607  0.59169143  1
