# generated using pymatgen
data_Gd2Al7N9
_symmetry_space_group_name_H-M   'P 1'
_cell_length_a   9.92637687
_cell_length_b   9.82934221
_cell_length_c   10.33777346
_cell_angle_alpha   90.13783734
_cell_angle_beta   89.91293368
_cell_angle_gamma   60.58865044
_symmetry_Int_Tables_number   1
_chemical_formula_structural   Gd2Al7N9
_chemical_formula_sum   'Gd8 Al28 N36'
_cell_volume   878.64845117
_cell_formula_units_Z   4
loop_
 _symmetry_equiv_pos_site_id
 _symmetry_equiv_pos_as_xyz
  1  'x, y, z'
loop_
 _atom_site_type_symbol
 _atom_site_label
 _atom_site_symmetry_multiplicity
 _atom_site_fract_x
 _atom_site_fract_y
 _atom_site_fract_z
 _atom_site_occupancy
  Al  Al0  1  0.12163632  0.08954820  0.39874067  1
  Al  Al1  1  0.21234719  0.21465275  0.14793996  1
  Al  Al2  1  0.53480404  0.22264755  0.15735230  1
  Al  Al3  1  0.11480753  0.08984906  0.90884800  1
  Al  Al4  1  0.23197892  0.19841342  0.66432774  1
  Al  Al5  1  0.76640139  0.10416736  0.38380547  1
  Al  Al6  1  0.90014285  0.20278962  0.17619709  1
  Al  Al7  1  0.43086220  0.11010773  0.89521162  1
  Al  Al8  1  0.54077749  0.21673189  0.66094624  1
  Al  Al9  1  0.12132506  0.42286247  0.39878928  1
  Al  Al10  1  0.21729537  0.53903400  0.15276089  1
  Al  Al11  1  0.43956187  0.43365646  0.41569909  1
  Al  Al12  1  0.11501629  0.43022797  0.91167655  1
  Al  Al13  1  0.23437054  0.53297028  0.65341500  1
  Al  Al14  1  0.76995967  0.43550379  0.40737726  1
  Al  Al15  1  0.90552728  0.53207708  0.16818209  1
  Al  Al16  1  0.42377867  0.43788858  0.89908100  1
  Al  Al17  1  0.53899845  0.54701066  0.65154477  1
  Al  Al18  1  0.12599004  0.75339376  0.40062596  1
  Al  Al19  1  0.21273099  0.87726828  0.15309436  1
  Al  Al20  1  0.80055090  0.74882752  0.91640814  1
  Al  Al21  1  0.44403003  0.76109149  0.41962508  1
  Al  Al22  1  0.11434143  0.75700798  0.90711504  1
  Al  Al23  1  0.23340869  0.86763355  0.65256854  1
  Al  Al24  1  0.77157892  0.75861596  0.40158822  1
  Al  Al25  1  0.90199331  0.86206085  0.17046067  1
  Al  Al26  1  0.42535039  0.76663837  0.89584583  1
  Al  Al27  1  0.55177735  0.87137120  0.67191967  1
  Gd  Gd28  1  0.77138979  0.09081931  0.92339445  1
  Gd  Gd29  1  0.89410958  0.19739017  0.62863149  1
  Gd  Gd30  1  0.44104508  0.09579161  0.41918278  1
  Gd  Gd31  1  0.77264179  0.43287238  0.90861233  1
  Gd  Gd32  1  0.90242444  0.53808143  0.64081671  1
  Gd  Gd33  1  0.54295067  0.54284544  0.16389152  1
  Gd  Gd34  1  0.88947428  0.87483989  0.63506044  1
  Gd  Gd35  1  0.55379406  0.87653560  0.13085339  1
  N  N36  1  0.19976905  0.21692768  0.33034047  1
  N  N37  1  0.10736703  0.09431749  0.09922700  1
  N  N38  1  0.91188767  0.18850092  0.84662751  1
  N  N39  1  0.73056316  0.11558068  0.57148316  1
  N  N40  1  0.55127859  0.23271121  0.33705181  1
  N  N41  1  0.42289063  0.12902154  0.08647899  1
  N  N42  1  0.21263369  0.21040492  0.85204810  1
  N  N43  1  0.15446309  0.07514107  0.58141420  1
  N  N44  1  0.89547453  0.20432429  0.36607929  1
  N  N45  1  0.77841938  0.09363216  0.14355603  1
  N  N46  1  0.52872763  0.22703057  0.84298789  1
  N  N47  1  0.44596007  0.08892135  0.63897919  1
  N  N48  1  0.22675714  0.53777402  0.34046646  1
  N  N49  1  0.11074622  0.43029178  0.09900674  1
  N  N50  1  0.90770684  0.54427083  0.85731827  1
  N  N51  1  0.74775613  0.44616520  0.59504341  1
  N  N52  1  0.54752077  0.54454569  0.37850181  1
  N  N53  1  0.42252995  0.42388103  0.08315049  1
  N  N54  1  0.21437189  0.54275803  0.84300336  1
  N  N55  1  0.15801269  0.39971128  0.58191898  1
  N  N56  1  0.89643248  0.53741610  0.36179790  1
  N  N57  1  0.80273758  0.41641049  0.12909847  1
  N  N58  1  0.52017073  0.55482513  0.83957190  1
  N  N59  1  0.44129056  0.42765166  0.59974578  1
  N  N60  1  0.22782701  0.86992662  0.34177163  1
  N  N61  1  0.11065411  0.76168779  0.10006607  1
  N  N62  1  0.90496612  0.84884428  0.85458726  1
  N  N63  1  0.74175579  0.77871622  0.58322347  1
  N  N64  1  0.56297165  0.84591480  0.34779113  1
  N  N65  1  0.40697301  0.77596798  0.07555316  1
  N  N66  1  0.21323671  0.87742409  0.84042784  1
  N  N67  1  0.14835445  0.74214925  0.58386895  1
  N  N68  1  0.89515005  0.86546654  0.35935160  1
  N  N69  1  0.81417647  0.74194878  0.10265131  1
  N  N70  1  0.56339106  0.86642490  0.86470184  1
  N  N71  1  0.44433778  0.76564213  0.60727788  1
