# generated using pymatgen
data_Gd2Al7N9
_symmetry_space_group_name_H-M   'P 1'
_cell_length_a   10.04093322
_cell_length_b   9.87185417
_cell_length_c   10.33655310
_cell_angle_alpha   90.16654728
_cell_angle_beta   90.15409258
_cell_angle_gamma   60.31901232
_symmetry_Int_Tables_number   1
_chemical_formula_structural   Gd2Al7N9
_chemical_formula_sum   'Gd8 Al28 N36'
_cell_volume   890.15167842
_cell_formula_units_Z   4
loop_
 _symmetry_equiv_pos_site_id
 _symmetry_equiv_pos_as_xyz
  1  'x, y, z'
loop_
 _atom_site_type_symbol
 _atom_site_label
 _atom_site_symmetry_multiplicity
 _atom_site_fract_x
 _atom_site_fract_y
 _atom_site_fract_z
 _atom_site_occupancy
  Al  Al0  1  0.11122263  0.09508544  0.30150114  1
  Al  Al1  1  0.22018254  0.20991416  0.05858174  1
  Al  Al2  1  0.54035262  0.21176217  0.12457414  1
  Al  Al3  1  0.12337344  0.08741590  0.81695530  1
  Al  Al4  1  0.22005221  0.20585299  0.56955768  1
  Al  Al5  1  0.78558872  0.09233363  0.28428752  1
  Al  Al6  1  0.90825088  0.20305577  0.06776949  1
  Al  Al7  1  0.42055362  0.10925358  0.80935145  1
  Al  Al8  1  0.54071448  0.21825980  0.62634645  1
  Al  Al9  1  0.11016322  0.42695570  0.30149254  1
  Al  Al10  1  0.21583571  0.53807364  0.05963716  1
  Al  Al11  1  0.43760686  0.43162993  0.31608802  1
  Al  Al12  1  0.12606291  0.42585103  0.81528832  1
  Al  Al13  1  0.23190522  0.53647712  0.55961194  1
  Al  Al14  1  0.78474218  0.42893770  0.29135912  1
  Al  Al15  1  0.91105238  0.53138883  0.05754318  1
  Al  Al16  1  0.41790801  0.44873853  0.80157561  1
  Al  Al17  1  0.54717808  0.54414161  0.54797682  1
  Al  Al18  1  0.11565460  0.76049842  0.30250448  1
  Al  Al19  1  0.21167213  0.87711934  0.05910622  1
  Al  Al20  1  0.79752893  0.75165168  0.81807698  1
  Al  Al21  1  0.44039152  0.76064728  0.31056482  1
  Al  Al22  1  0.12173912  0.75435898  0.81346064  1
  Al  Al23  1  0.23292363  0.86807415  0.56220247  1
  Al  Al24  1  0.79004478  0.75102768  0.28559873  1
  Al  Al25  1  0.90754005  0.85532967  0.05988649  1
  Al  Al26  1  0.42316927  0.76252827  0.80329090  1
  Al  Al27  1  0.54952285  0.87152293  0.63374719  1
  Gd  Gd28  1  0.76556298  0.09842702  0.84977642  1
  Gd  Gd29  1  0.89587044  0.19821459  0.54475496  1
  Gd  Gd30  1  0.44673836  0.08753039  0.35180381  1
  Gd  Gd31  1  0.77260022  0.43551694  0.81928953  1
  Gd  Gd32  1  0.90024625  0.53579964  0.55231628  1
  Gd  Gd33  1  0.54213090  0.53587718  0.07355108  1
  Gd  Gd34  1  0.88970856  0.87293261  0.55746501  1
  Gd  Gd35  1  0.55184384  0.87254436  0.06669894  1
  N  N36  1  0.17943313  0.22600667  0.38446606  1
  N  N37  1  0.11980121  0.09212445  0.11688960  1
  N  N38  1  0.92354105  0.19184186  0.88234820  1
  N  N39  1  0.75203008  0.11062705  0.62406886  1
  N  N40  1  0.57696809  0.21349032  0.32315164  1
  N  N41  1  0.42223252  0.11785531  0.11859210  1
  N  N42  1  0.21881894  0.20722041  0.87181814  1
  N  N43  1  0.14143914  0.07760786  0.63297132  1
  N  N44  1  0.89051394  0.20345289  0.32296519  1
  N  N45  1  0.77323887  0.09413077  0.09372801  1
  N  N46  1  0.50856867  0.23347263  0.82163672  1
  N  N47  1  0.43904675  0.09404175  0.60509566  1
  N  N48  1  0.21641368  0.54077969  0.37055828  1
  N  N49  1  0.11686824  0.42350986  0.11530405  1
  N  N50  1  0.91527093  0.54231901  0.86909469  1
  N  N51  1  0.75259036  0.44026487  0.60127252  1
  N  N52  1  0.55292814  0.53886163  0.35434694  1
  N  N53  1  0.41159478  0.42536298  0.13202927  1
  N  N54  1  0.21984132  0.54332302  0.87408923  1
  N  N55  1  0.14747366  0.41347357  0.63201633  1
  N  N56  1  0.89427168  0.53790417  0.33589436  1
  N  N57  1  0.80303842  0.42227490  0.10352346  1
  N  N58  1  0.51725425  0.55649137  0.85804871  1
  N  N59  1  0.44017036  0.43840012  0.60769029  1
  N  N60  1  0.21770414  0.87727970  0.37297612  1
  N  N61  1  0.11537462  0.75920280  0.11610639  1
  N  N62  1  0.91393550  0.84305979  0.87097439  1
  N  N63  1  0.76044490  0.76844548  0.63839101  1
  N  N64  1  0.58147839  0.83450627  0.32216144  1
  N  N65  1  0.40393932  0.77798551  0.13140083  1
  N  N66  1  0.22038694  0.87252596  0.87224183  1
  N  N67  1  0.14157067  0.74770669  0.62717662  1
  N  N68  1  0.89246629  0.87309844  0.33461462  1
  N  N69  1  0.81061477  0.74355710  0.10349924  1
  N  N70  1  0.54235009  0.87867569  0.83203996  1
  N  N71  1  0.44290822  0.75867621  0.61396172  1
