# generated using pymatgen
data_Gd2Al7N9
_symmetry_space_group_name_H-M   'P 1'
_cell_length_a   9.94011996
_cell_length_b   9.83069351
_cell_length_c   10.35871283
_cell_angle_alpha   90.29185360
_cell_angle_beta   89.81376466
_cell_angle_gamma   60.26520053
_symmetry_Int_Tables_number   1
_chemical_formula_structural   Gd2Al7N9
_chemical_formula_sum   'Gd8 Al28 N36'
_cell_volume   878.92405398
_cell_formula_units_Z   4
loop_
 _symmetry_equiv_pos_site_id
 _symmetry_equiv_pos_as_xyz
  1  'x, y, z'
loop_
 _atom_site_type_symbol
 _atom_site_label
 _atom_site_symmetry_multiplicity
 _atom_site_fract_x
 _atom_site_fract_y
 _atom_site_fract_z
 _atom_site_occupancy
  Al  Al0  1  0.10595160  0.09651549  0.29639866  1
  Al  Al1  1  0.21797642  0.21023825  0.05034244  1
  Al  Al2  1  0.52679506  0.21852805  0.05278918  1
  Al  Al3  1  0.12894166  0.08441218  0.81482732  1
  Al  Al4  1  0.22574338  0.20362192  0.56846500  1
  Al  Al5  1  0.77007205  0.09977169  0.28213818  1
  Al  Al6  1  0.90266991  0.20224816  0.06666031  1
  Al  Al7  1  0.43529574  0.10178120  0.79489968  1
  Al  Al8  1  0.55540250  0.21390187  0.55544825  1
  Al  Al9  1  0.10372614  0.43110624  0.29725885  1
  Al  Al10  1  0.21629245  0.53692579  0.05776917  1
  Al  Al11  1  0.43668518  0.42962620  0.31261477  1
  Al  Al12  1  0.12676825  0.42566909  0.81381759  1
  Al  Al13  1  0.23516465  0.53327488  0.56046363  1
  Al  Al14  1  0.77857773  0.43076455  0.28742006  1
  Al  Al15  1  0.90478110  0.53624177  0.05542214  1
  Al  Al16  1  0.42785281  0.43745479  0.79906714  1
  Al  Al17  1  0.54922438  0.53972777  0.54671407  1
  Al  Al18  1  0.11087364  0.76318811  0.29893971  1
  Al  Al19  1  0.21502807  0.87787616  0.05766269  1
  Al  Al20  1  0.78690400  0.75684293  0.80731684  1
  Al  Al21  1  0.43654048  0.76269936  0.31826839  1
  Al  Al22  1  0.12723122  0.75094816  0.81442484  1
  Al  Al23  1  0.23339509  0.86663446  0.56157822  1
  Al  Al24  1  0.78205398  0.75643133  0.29291592  1
  Al  Al25  1  0.90127205  0.85912364  0.05782392  1
  Al  Al26  1  0.43594676  0.76438443  0.79180446  1
  Al  Al27  1  0.55788082  0.86511594  0.56240176  1
  Gd  Gd28  1  0.77248995  0.09412659  0.83424115  1
  Gd  Gd29  1  0.90258219  0.19479508  0.53623704  1
  Gd  Gd30  1  0.43175345  0.10116392  0.32767399  1
  Gd  Gd31  1  0.77799278  0.43046389  0.81583712  1
  Gd  Gd32  1  0.90497305  0.53058014  0.54830188  1
  Gd  Gd33  1  0.53634782  0.54205732  0.06849321  1
  Gd  Gd34  1  0.89850469  0.86764633  0.55362657  1
  Gd  Gd35  1  0.55155210  0.87397063  0.05160739  1
  N  N36  1  0.17182267  0.22991598  0.38361648  1
  N  N37  1  0.11867681  0.09340908  0.11370726  1
  N  N38  1  0.92765768  0.18715622  0.88293596  1
  N  N39  1  0.75608263  0.10845665  0.61787900  1
  N  N40  1  0.57078430  0.21947957  0.36951731  1
  N  N41  1  0.42258457  0.11844731  0.11161459  1
  N  N42  1  0.22601321  0.20394045  0.86463899  1
  N  N43  1  0.14485589  0.07573335  0.63142132  1
  N  N44  1  0.88346344  0.20597007  0.31501278  1
  N  N45  1  0.76396584  0.09775242  0.09247409  1
  N  N46  1  0.51253415  0.23017833  0.86788257  1
  N  N47  1  0.44679996  0.09520200  0.59812222  1
  N  N48  1  0.21213766  0.54289714  0.36946464  1
  N  N49  1  0.11379323  0.42453865  0.11172206  1
  N  N50  1  0.91211005  0.54699927  0.86742266  1
  N  N51  1  0.75597898  0.43528738  0.59784140  1
  N  N52  1  0.55056457  0.53907809  0.35182057  1
  N  N53  1  0.41645510  0.41725141  0.13186676  1
  N  N54  1  0.22532496  0.53946513  0.87297431  1
  N  N55  1  0.14977961  0.41181900  0.63165317  1
  N  N56  1  0.88729812  0.54040086  0.33274552  1
  N  N57  1  0.79707006  0.42474574  0.09975512  1
  N  N58  1  0.52094473  0.55695700  0.85188058  1
  N  N59  1  0.44586181  0.42885164  0.60917590  1
  N  N60  1  0.20931113  0.88097279  0.37294238  1
  N  N61  1  0.11513383  0.75983000  0.11310389  1
  N  N62  1  0.91341537  0.83992983  0.86944698  1
  N  N63  1  0.76077129  0.76773988  0.62679250  1
  N  N64  1  0.57453783  0.84136177  0.36985552  1
  N  N65  1  0.40735925  0.78498622  0.13972344  1
  N  N66  1  0.23019985  0.86911881  0.87091803  1
  N  N67  1  0.14765089  0.74333740  0.62907193  1
  N  N68  1  0.88563944  0.87814520  0.33294818  1
  N  N69  1  0.80213018  0.74826879  0.11120740  1
  N  N70  1  0.55265170  0.87513345  0.83429327  1
  N  N71  1  0.44649902  0.75724365  0.60390741  1
