# generated using pymatgen
data_Gd2Al7N9
_symmetry_space_group_name_H-M   'P 1'
_cell_length_a   9.97757316
_cell_length_b   9.86491745
_cell_length_c   10.29503939
_cell_angle_alpha   90.05221182
_cell_angle_beta   89.88109726
_cell_angle_gamma   60.51521663
_symmetry_Int_Tables_number   1
_chemical_formula_structural   Gd2Al7N9
_chemical_formula_sum   'Gd8 Al28 N36'
_cell_volume   882.07679132
_cell_formula_units_Z   4
loop_
 _symmetry_equiv_pos_site_id
 _symmetry_equiv_pos_as_xyz
  1  'x, y, z'
loop_
 _atom_site_type_symbol
 _atom_site_label
 _atom_site_symmetry_multiplicity
 _atom_site_fract_x
 _atom_site_fract_y
 _atom_site_fract_z
 _atom_site_occupancy
  Al  Al0  1  0.12254458  0.08958303  0.39699988  1
  Al  Al1  1  0.21482869  0.21247895  0.14519072  1
  Al  Al2  1  0.53388538  0.22341790  0.15460594  1
  Al  Al3  1  0.11370541  0.09097268  0.90694619  1
  Al  Al4  1  0.23037384  0.19967838  0.66103953  1
  Al  Al5  1  0.76628419  0.10757129  0.38100054  1
  Al  Al6  1  0.90184859  0.20210823  0.17304423  1
  Al  Al7  1  0.42700304  0.11455037  0.89350835  1
  Al  Al8  1  0.53804318  0.21758703  0.65811833  1
  Al  Al9  1  0.12693821  0.41907128  0.39802736  1
  Al  Al10  1  0.21591669  0.53984496  0.14953363  1
  Al  Al11  1  0.43953240  0.43399888  0.41372419  1
  Al  Al12  1  0.11140614  0.43378209  0.90756084  1
  Al  Al13  1  0.23407226  0.53330681  0.65167043  1
  Al  Al14  1  0.76880851  0.43224302  0.40613625  1
  Al  Al15  1  0.91199014  0.52319644  0.17134216  1
  Al  Al16  1  0.42199064  0.43863797  0.89687560  1
  Al  Al17  1  0.53690054  0.54734009  0.64939808  1
  Al  Al18  1  0.13168682  0.75248962  0.39988529  1
  Al  Al19  1  0.21532453  0.87683475  0.15059285  1
  Al  Al20  1  0.78365259  0.75893771  0.85798447  1
  Al  Al21  1  0.44577056  0.76110570  0.41645919  1
  Al  Al22  1  0.11069515  0.75848978  0.90322742  1
  Al  Al23  1  0.23175661  0.86792151  0.65021031  1
  Al  Al24  1  0.78247754  0.75280809  0.35927564  1
  Al  Al25  1  0.90828023  0.86398267  0.17369615  1
  Al  Al26  1  0.42149072  0.76565672  0.89438108  1
  Al  Al27  1  0.54284929  0.87510790  0.66654582  1
  Gd  Gd28  1  0.77017991  0.09134709  0.92068943  1
  Gd  Gd29  1  0.89225935  0.19558632  0.62838728  1
  Gd  Gd30  1  0.44511615  0.09371278  0.41422155  1
  Gd  Gd31  1  0.77246030  0.43559388  0.90490027  1
  Gd  Gd32  1  0.90193948  0.53326196  0.62574377  1
  Gd  Gd33  1  0.54428435  0.54061617  0.16073589  1
  Gd  Gd34  1  0.88869707  0.87549051  0.61827034  1
  Gd  Gd35  1  0.56255717  0.87137571  0.12197057  1
  N  N36  1  0.20272334  0.21495139  0.32840681  1
  N  N37  1  0.10913386  0.09374840  0.09750025  1
  N  N38  1  0.91037894  0.19027008  0.84748501  1
  N  N39  1  0.72616098  0.11912113  0.56857778  1
  N  N40  1  0.55207739  0.23431598  0.33396935  1
  N  N41  1  0.42547007  0.12639511  0.08543773  1
  N  N42  1  0.21056349  0.21219795  0.84999151  1
  N  N43  1  0.15165064  0.07648957  0.58061433  1
  N  N44  1  0.89635130  0.20420103  0.36377729  1
  N  N45  1  0.78065913  0.09275471  0.14227211  1
  N  N46  1  0.52680185  0.22765579  0.84112174  1
  N  N47  1  0.44259441  0.09073210  0.63500824  1
  N  N48  1  0.22699288  0.53795848  0.33782979  1
  N  N49  1  0.11175815  0.42852525  0.09545324  1
  N  N50  1  0.90562235  0.54738240  0.84953923  1
  N  N51  1  0.74436112  0.44292763  0.59421705  1
  N  N52  1  0.54735541  0.54452931  0.37593527  1
  N  N53  1  0.42127077  0.42416195  0.08110115  1
  N  N54  1  0.21286801  0.54417284  0.84164512  1
  N  N55  1  0.16173081  0.39923943  0.58059473  1
  N  N56  1  0.90186173  0.52694955  0.36821085  1
  N  N57  1  0.80425700  0.41573903  0.12695182  1
  N  N58  1  0.51906544  0.55491193  0.83860666  1
  N  N59  1  0.44032663  0.42830703  0.59825464  1
  N  N60  1  0.23010909  0.86992371  0.33966745  1
  N  N61  1  0.11121782  0.76301882  0.09641838  1
  N  N62  1  0.90254004  0.85236030  0.84715882  1
  N  N63  1  0.74081636  0.77743395  0.60471837  1
  N  N64  1  0.56493694  0.84483685  0.34661210  1
  N  N65  1  0.40964649  0.77469793  0.07471444  1
  N  N66  1  0.21128970  0.87846488  0.83890934  1
  N  N67  1  0.15207164  0.74006168  0.58285135  1
  N  N68  1  0.90218516  0.86991544  0.36500127  1
  N  N69  1  0.81851519  0.73901871  0.15515356  1
  N  N70  1  0.55720562  0.86957093  0.86164452  1
  N  N71  1  0.44147485  0.76603126  0.60460191  1
