# generated using pymatgen
data_Gd2Al7N9
_symmetry_space_group_name_H-M   'P 1'
_cell_length_a   10.01012334
_cell_length_b   9.86624356
_cell_length_c   10.44824049
_cell_angle_alpha   90.19058139
_cell_angle_beta   90.56893397
_cell_angle_gamma   60.67495318
_symmetry_Int_Tables_number   1
_chemical_formula_structural   Gd2Al7N9
_chemical_formula_sum   'Gd8 Al28 N36'
_cell_volume   899.61507706
_cell_formula_units_Z   4
loop_
 _symmetry_equiv_pos_site_id
 _symmetry_equiv_pos_as_xyz
  1  'x, y, z'
loop_
 _atom_site_type_symbol
 _atom_site_label
 _atom_site_symmetry_multiplicity
 _atom_site_fract_x
 _atom_site_fract_y
 _atom_site_fract_z
 _atom_site_occupancy
  Al  Al0  1  0.12629564  0.08666446  0.39694517  1
  Al  Al1  1  0.21319268  0.21447775  0.14980378  1
  Al  Al2  1  0.53537279  0.22212914  0.14753854  1
  Al  Al3  1  0.11396970  0.09409408  0.90075587  1
  Al  Al4  1  0.22875042  0.19917456  0.65733236  1
  Al  Al5  1  0.78584137  0.08808640  0.31440943  1
  Al  Al6  1  0.90943437  0.19815792  0.14926493  1
  Al  Al7  1  0.41840146  0.11681001  0.90458601  1
  Al  Al8  1  0.52687474  0.22063623  0.67072244  1
  Al  Al9  1  0.12543961  0.41935134  0.40161601  1
  Al  Al10  1  0.22002880  0.53021511  0.15564003  1
  Al  Al11  1  0.45476198  0.42727647  0.41078416  1
  Al  Al12  1  0.11811778  0.42560049  0.90259304  1
  Al  Al13  1  0.23177799  0.52665781  0.64992650  1
  Al  Al14  1  0.79406332  0.42777404  0.33144275  1
  Al  Al15  1  0.90892149  0.53403463  0.08621625  1
  Al  Al16  1  0.40782534  0.44340977  0.90354034  1
  Al  Al17  1  0.52241073  0.55488868  0.66424193  1
  Al  Al18  1  0.11897341  0.75876604  0.33324819  1
  Al  Al19  1  0.21772409  0.88280718  0.15379316  1
  Al  Al20  1  0.78662880  0.75829001  0.85073928  1
  Al  Al21  1  0.46161426  0.75156630  0.41489570  1
  Al  Al22  1  0.11479727  0.75832457  0.82827743  1
  Al  Al23  1  0.23071850  0.87660026  0.64874046  1
  Al  Al24  1  0.80107661  0.74250021  0.32111702  1
  Al  Al25  1  0.91861867  0.84897184  0.08657367  1
  Al  Al26  1  0.41217114  0.77597335  0.90096665  1
  Al  Al27  1  0.53824274  0.88067358  0.68033898  1
  Gd  Gd28  1  0.76584585  0.09572532  0.88021827  1
  Gd  Gd29  1  0.87865540  0.21002853  0.61346368  1
  Gd  Gd30  1  0.45249553  0.08812850  0.40599864  1
  Gd  Gd31  1  0.75809140  0.43531255  0.87847170  1
  Gd  Gd32  1  0.88266111  0.54042700  0.60722174  1
  Gd  Gd33  1  0.53767067  0.54624080  0.14990094  1
  Gd  Gd34  1  0.88073992  0.87551935  0.58488664  1
  Gd  Gd35  1  0.56214532  0.87331378  0.11677245  1
  N  N36  1  0.20366762  0.21514965  0.33074791  1
  N  N37  1  0.11320286  0.09487490  0.09080090  1
  N  N38  1  0.91685249  0.19086201  0.83906985  1
  N  N39  1  0.73649031  0.10802906  0.65334720  1
  N  N40  1  0.56889153  0.22266057  0.32893577  1
  N  N41  1  0.42141743  0.12693426  0.09327202  1
  N  N42  1  0.21151517  0.21055486  0.84472450  1
  N  N43  1  0.14431462  0.08067666  0.57877403  1
  N  N44  1  0.90309234  0.19597192  0.34493472  1
  N  N45  1  0.78433315  0.09013427  0.12387883  1
  N  N46  1  0.50461267  0.23652494  0.85025694  1
  N  N47  1  0.44203633  0.09017601  0.62365755  1
  N  N48  1  0.23431836  0.52893254  0.34354077  1
  N  N49  1  0.12178894  0.42214804  0.08964304  1
  N  N50  1  0.89992234  0.54809163  0.89651965  1
  N  N51  1  0.73315514  0.45236928  0.66038210  1
  N  N52  1  0.56703413  0.53396190  0.36660480  1
  N  N53  1  0.41784813  0.42426450  0.08483669  1
  N  N54  1  0.20922875  0.53711668  0.83610561  1
  N  N55  1  0.14895882  0.40292813  0.58568167  1
  N  N56  1  0.90193981  0.53338060  0.38341802  1
  N  N57  1  0.80481219  0.42064276  0.13590924  1
  N  N58  1  0.49376134  0.56741590  0.85016201  1
  N  N59  1  0.43938838  0.42791905  0.59412446  1
  N  N60  1  0.23869939  0.86945336  0.34256361  1
  N  N61  1  0.12042227  0.75716999  0.14647324  1
  N  N62  1  0.91586837  0.83973295  0.90218571  1
  N  N63  1  0.75010556  0.77756188  0.67410841  1
  N  N64  1  0.58236757  0.83647226  0.34381909  1
  N  N65  1  0.40511421  0.78278906  0.07808691  1
  N  N66  1  0.21356649  0.88762788  0.83576831  1
  N  N67  1  0.13362806  0.75016880  0.63995020  1
  N  N68  1  0.89482419  0.87212584  0.36586580  1
  N  N69  1  0.82308513  0.73735057  0.14101301  1
  N  N70  1  0.54223531  0.88169907  0.87211071  1
  N  N71  1  0.44261712  0.76670345  0.60175763  1
