# generated using pymatgen
data_Gd2Al7N9
_symmetry_space_group_name_H-M   'P 1'
_cell_length_a   10.00502044
_cell_length_b   9.84415725
_cell_length_c   10.34292820
_cell_angle_alpha   89.95198553
_cell_angle_beta   89.97752281
_cell_angle_gamma   60.21211348
_symmetry_Int_Tables_number   1
_chemical_formula_structural   Gd2Al7N9
_chemical_formula_sum   'Gd8 Al28 N36'
_cell_volume   884.08660035
_cell_formula_units_Z   4
loop_
 _symmetry_equiv_pos_site_id
 _symmetry_equiv_pos_as_xyz
  1  'x, y, z'
loop_
 _atom_site_type_symbol
 _atom_site_label
 _atom_site_symmetry_multiplicity
 _atom_site_fract_x
 _atom_site_fract_y
 _atom_site_fract_z
 _atom_site_occupancy
  Al  Al0  1  0.10765287  0.09515804  0.30039205  1
  Al  Al1  1  0.21768378  0.20933090  0.05639337  1
  Al  Al2  1  0.52539712  0.21727266  0.05954897  1
  Al  Al3  1  0.12622050  0.08658468  0.81718747  1
  Al  Al4  1  0.22455546  0.20554676  0.57103867  1
  Al  Al5  1  0.77192319  0.09938141  0.28602343  1
  Al  Al6  1  0.90379252  0.20255998  0.06921655  1
  Al  Al7  1  0.42655731  0.11381910  0.80696866  1
  Al  Al8  1  0.55554130  0.21608474  0.56034155  1
  Al  Al9  1  0.10752871  0.42813582  0.30180976  1
  Al  Al10  1  0.21621121  0.53653387  0.06159048  1
  Al  Al11  1  0.43751069  0.42765670  0.31755666  1
  Al  Al12  1  0.12552494  0.42686595  0.81609070  1
  Al  Al13  1  0.23423286  0.53476880  0.56249146  1
  Al  Al14  1  0.78162742  0.43080924  0.29080042  1
  Al  Al15  1  0.90921596  0.53291880  0.05822121  1
  Al  Al16  1  0.42522743  0.43877751  0.80293073  1
  Al  Al17  1  0.54844068  0.54303865  0.54958419  1
  Al  Al18  1  0.11312872  0.76154904  0.30219870  1
  Al  Al19  1  0.21159579  0.87635596  0.05913193  1
  Al  Al20  1  0.79723493  0.75336221  0.81721206  1
  Al  Al21  1  0.43918771  0.76031079  0.31141140  1
  Al  Al22  1  0.12472474  0.75247237  0.81507148  1
  Al  Al23  1  0.23473057  0.86765731  0.56261258  1
  Al  Al24  1  0.78616199  0.75369587  0.28625073  1
  Al  Al25  1  0.90358053  0.85955173  0.06097451  1
  Al  Al26  1  0.42591471  0.76128636  0.80160343  1
  Al  Al27  1  0.55093762  0.87505039  0.63121191  1
  Gd  Gd28  1  0.76963449  0.09746129  0.83906785  1
  Gd  Gd29  1  0.90141282  0.19769100  0.54178486  1
  Gd  Gd30  1  0.43840242  0.09296671  0.33554101  1
  Gd  Gd31  1  0.77527337  0.43453240  0.81967814  1
  Gd  Gd32  1  0.90096645  0.53604852  0.55115493  1
  Gd  Gd33  1  0.54020935  0.53325691  0.07329941  1
  Gd  Gd34  1  0.89475189  0.87065000  0.55538632  1
  Gd  Gd35  1  0.55150375  0.86945830  0.06214708  1
  N  N36  1  0.17562379  0.22626656  0.38622335  1
  N  N37  1  0.11824032  0.09180420  0.11667518  1
  N  N38  1  0.92548247  0.18986650  0.88399650  1
  N  N39  1  0.75588664  0.11010954  0.62229648  1
  N  N40  1  0.57391734  0.21690031  0.37426002  1
  N  N41  1  0.42211682  0.11589637  0.11524494  1
  N  N42  1  0.22126955  0.20700695  0.87000952  1
  N  N43  1  0.14537976  0.07658261  0.63379931  1
  N  N44  1  0.88555998  0.20494859  0.32027473  1
  N  N45  1  0.76413675  0.09934879  0.09590497  1
  N  N46  1  0.51065926  0.23288175  0.87460077  1
  N  N47  1  0.44436888  0.10088838  0.60920434  1
  N  N48  1  0.21443346  0.54137586  0.37254552  1
  N  N49  1  0.11595595  0.42268074  0.11595289  1
  N  N50  1  0.91511844  0.54399479  0.87044029  1
  N  N51  1  0.75473712  0.43865952  0.60148818  1
  N  N52  1  0.55130844  0.53818448  0.35490755  1
  N  N53  1  0.41506252  0.41529533  0.13698150  1
  N  N54  1  0.22346419  0.54059384  0.87517164  1
  N  N55  1  0.14710707  0.41430652  0.63326168  1
  N  N56  1  0.89149186  0.53905305  0.33508838  1
  N  N57  1  0.80038578  0.42395506  0.10290441  1
  N  N58  1  0.51940060  0.55446052  0.85738542  1
  N  N59  1  0.44475524  0.43125398  0.61271780  1
  N  N60  1  0.21452932  0.87820546  0.37361072  1
  N  N61  1  0.11445658  0.75873559  0.11634986  1
  N  N62  1  0.91505091  0.84342514  0.87232987  1
  N  N63  1  0.76313998  0.76899570  0.63722210  1
  N  N64  1  0.57740595  0.83751748  0.32534115  1
  N  N65  1  0.40414068  0.77592621  0.13253792  1
  N  N66  1  0.22328708  0.87124835  0.87293413  1
  N  N67  1  0.14539810  0.74593327  0.62912072  1
  N  N68  1  0.88805725  0.87590655  0.33366845  1
  N  N69  1  0.80825550  0.74520993  0.10452174  1
  N  N70  1  0.54544414  0.87884603  0.82995097  1
  N  N71  1  0.44552922  0.75889311  0.61294329  1
