# generated using pymatgen
data_Gd2Al7N9
_symmetry_space_group_name_H-M   'P 1'
_cell_length_a   9.95227084
_cell_length_b   9.85583406
_cell_length_c   10.60301272
_cell_angle_alpha   90.26738296
_cell_angle_beta   90.22130697
_cell_angle_gamma   60.45107206
_symmetry_Int_Tables_number   1
_chemical_formula_structural   Gd2Al7N9
_chemical_formula_sum   'Gd8 Al28 N36'
_cell_volume   904.74494039
_cell_formula_units_Z   4
loop_
 _symmetry_equiv_pos_site_id
 _symmetry_equiv_pos_as_xyz
  1  'x, y, z'
loop_
 _atom_site_type_symbol
 _atom_site_label
 _atom_site_symmetry_multiplicity
 _atom_site_fract_x
 _atom_site_fract_y
 _atom_site_fract_z
 _atom_site_occupancy
  Al  Al0  1  0.12726918  0.08480255  0.38550098  1
  Al  Al1  1  0.21552722  0.21314909  0.14454532  1
  Al  Al2  1  0.53990595  0.21931997  0.13750678  1
  Al  Al3  1  0.11922377  0.09237537  0.90020889  1
  Al  Al4  1  0.22566182  0.19975764  0.64743684  1
  Al  Al5  1  0.79411671  0.08949110  0.29711025  1
  Al  Al6  1  0.90379419  0.20010004  0.08394326  1
  Al  Al7  1  0.41608726  0.11766655  0.89545483  1
  Al  Al8  1  0.52798078  0.21827103  0.66076019  1
  Al  Al9  1  0.12833213  0.41973047  0.38970439  1
  Al  Al10  1  0.21785874  0.53492095  0.11506674  1
  Al  Al11  1  0.45849914  0.42604458  0.40052984  1
  Al  Al12  1  0.11344881  0.42530186  0.89357407  1
  Al  Al13  1  0.23278816  0.52834420  0.62189271  1
  Al  Al14  1  0.80444926  0.41800707  0.31353093  1
  Al  Al15  1  0.90510440  0.53457508  0.07669330  1
  Al  Al16  1  0.41074664  0.44258376  0.89073835  1
  Al  Al17  1  0.52357007  0.55479328  0.65226251  1
  Al  Al18  1  0.12249152  0.75201287  0.31892041  1
  Al  Al19  1  0.22075701  0.88148952  0.14600833  1
  Al  Al20  1  0.78605237  0.75897748  0.83929775  1
  Al  Al21  1  0.46304561  0.75062510  0.40578417  1
  Al  Al22  1  0.11401477  0.75552203  0.82073181  1
  Al  Al23  1  0.22833091  0.87807915  0.64191393  1
  Al  Al24  1  0.80286299  0.74259035  0.30839909  1
  Al  Al25  1  0.91509593  0.85217470  0.07505489  1
  Al  Al26  1  0.40895713  0.77691712  0.89048273  1
  Al  Al27  1  0.53741451  0.88169340  0.67087193  1
  Gd  Gd28  1  0.76292795  0.09455185  0.86501487  1
  Gd  Gd29  1  0.86646864  0.21644734  0.57129583  1
  Gd  Gd30  1  0.45837534  0.08754133  0.39637461  1
  Gd  Gd31  1  0.75046829  0.44527243  0.86421718  1
  Gd  Gd32  1  0.87795727  0.54340213  0.58748813  1
  Gd  Gd33  1  0.53652617  0.54575667  0.14894329  1
  Gd  Gd34  1  0.88397669  0.87405255  0.57176724  1
  Gd  Gd35  1  0.56090661  0.87267128  0.10721830  1
  N  N36  1  0.20895757  0.21261990  0.32369915  1
  N  N37  1  0.12464250  0.08984557  0.08759289  1
  N  N38  1  0.90705419  0.19933945  0.90218163  1
  N  N39  1  0.74342797  0.10680412  0.64706156  1
  N  N40  1  0.57250176  0.22308477  0.31636163  1
  N  N41  1  0.42325811  0.12733727  0.08121799  1
  N  N42  1  0.20761005  0.21107455  0.83268113  1
  N  N43  1  0.13613218  0.08296187  0.57120315  1
  N  N44  1  0.90251299  0.19616081  0.35031914  1
  N  N45  1  0.78374043  0.08704299  0.11282010  1
  N  N46  1  0.50170459  0.23602411  0.83646359  1
  N  N47  1  0.44162764  0.09012631  0.61163251  1
  N  N48  1  0.23761729  0.53104856  0.34695135  1
  N  N49  1  0.11974952  0.41867791  0.07956703  1
  N  N50  1  0.89527295  0.55219532  0.89129064  1
  N  N51  1  0.73929046  0.44638313  0.65364954  1
  N  N52  1  0.57329271  0.53127440  0.36173956  1
  N  N53  1  0.42635552  0.42015983  0.07003966  1
  N  N54  1  0.20569169  0.54105549  0.84536751  1
  N  N55  1  0.14527124  0.40416034  0.57575163  1
  N  N56  1  0.90470339  0.53196691  0.36876796  1
  N  N57  1  0.80260832  0.42035525  0.12754870  1
  N  N58  1  0.48798807  0.57170410  0.83226219  1
  N  N59  1  0.44620422  0.42284732  0.58293778  1
  N  N60  1  0.24132840  0.86567823  0.33178610  1
  N  N61  1  0.12062578  0.75657709  0.13443145  1
  N  N62  1  0.91263123  0.84094197  0.89380944  1
  N  N63  1  0.75184574  0.77824758  0.66461025  1
  N  N64  1  0.58207017  0.83627679  0.33195297  1
  N  N65  1  0.40769486  0.77679695  0.06501225  1
  N  N66  1  0.20755610  0.89217430  0.82570503  1
  N  N67  1  0.13469644  0.74734447  0.63576707  1
  N  N68  1  0.89693122  0.87199374  0.35482884  1
  N  N69  1  0.82255430  0.73820207  0.13140300  1
  N  N70  1  0.53906339  0.88315424  0.86017529  1
  N  N71  1  0.44259280  0.76739694  0.59103126  1
