# generated using pymatgen
data_Gd2Al7N9
_symmetry_space_group_name_H-M   'P 1'
_cell_length_a   9.95377382
_cell_length_b   9.85559357
_cell_length_c   10.60517685
_cell_angle_alpha   90.27028653
_cell_angle_beta   90.22239807
_cell_angle_gamma   60.44949039
_symmetry_Int_Tables_number   1
_chemical_formula_structural   Gd2Al7N9
_chemical_formula_sum   'Gd8 Al28 N36'
_cell_volume   905.02981307
_cell_formula_units_Z   4
loop_
 _symmetry_equiv_pos_site_id
 _symmetry_equiv_pos_as_xyz
  1  'x, y, z'
loop_
 _atom_site_type_symbol
 _atom_site_label
 _atom_site_symmetry_multiplicity
 _atom_site_fract_x
 _atom_site_fract_y
 _atom_site_fract_z
 _atom_site_occupancy
  Al  Al0  1  0.12727842  0.08472817  0.38551268  1
  Al  Al1  1  0.21554358  0.21312221  0.14465794  1
  Al  Al2  1  0.53989016  0.21930083  0.13765455  1
  Al  Al3  1  0.11923138  0.09232551  0.90024717  1
  Al  Al4  1  0.22568115  0.19967305  0.64753288  1
  Al  Al5  1  0.79417735  0.08942484  0.29713090  1
  Al  Al6  1  0.90380668  0.20009409  0.08394468  1
  Al  Al7  1  0.41607875  0.11767179  0.89549102  1
  Al  Al8  1  0.52796625  0.21823084  0.66082040  1
  Al  Al9  1  0.12815077  0.41970238  0.38958425  1
  Al  Al10  1  0.21705399  0.53613793  0.10873418  1
  Al  Al11  1  0.45890511  0.42589834  0.40055943  1
  Al  Al12  1  0.11316707  0.42509986  0.89367140  1
  Al  Al13  1  0.23288757  0.52907910  0.61583494  1
  Al  Al14  1  0.80445508  0.41799380  0.31352245  1
  Al  Al15  1  0.90499389  0.53454887  0.07677722  1
  Al  Al16  1  0.41129757  0.44239276  0.89063660  1
  Al  Al17  1  0.52366803  0.55478142  0.65236781  1
  Al  Al18  1  0.12277815  0.75137697  0.31885958  1
  Al  Al19  1  0.22076711  0.88148105  0.14607842  1
  Al  Al20  1  0.78601939  0.75904381  0.83930034  1
  Al  Al21  1  0.46301829  0.75062872  0.40576897  1
  Al  Al22  1  0.11422197  0.75510854  0.82094406  1
  Al  Al23  1  0.22837656  0.87802588  0.64205078  1
  Al  Al24  1  0.80287514  0.74260638  0.30839461  1
  Al  Al25  1  0.91491160  0.85233931  0.07507667  1
  Al  Al26  1  0.40892456  0.77692516  0.89047282  1
  Al  Al27  1  0.53739558  0.88170348  0.67088954  1
  Gd  Gd28  1  0.76288565  0.09463901  0.86503860  1
  Gd  Gd29  1  0.86644526  0.21644689  0.57128189  1
  Gd  Gd30  1  0.45838929  0.08751805  0.39639059  1
  Gd  Gd31  1  0.75047158  0.44525652  0.86424607  1
  Gd  Gd32  1  0.87788421  0.54343233  0.58751365  1
  Gd  Gd33  1  0.53650985  0.54581076  0.14905218  1
  Gd  Gd34  1  0.88398495  0.87403974  0.57182112  1
  Gd  Gd35  1  0.56086985  0.87265177  0.10722124  1
  N  N36  1  0.20900351  0.21254804  0.32377422  1
  N  N37  1  0.12464372  0.08979772  0.08761541  1
  N  N38  1  0.90709778  0.19932621  0.90221325  1
  N  N39  1  0.74345460  0.10674881  0.64707929  1
  N  N40  1  0.57255014  0.22301122  0.31642109  1
  N  N41  1  0.42326093  0.12733889  0.08122332  1
  N  N42  1  0.20762848  0.21103896  0.83269305  1
  N  N43  1  0.13611340  0.08286409  0.57123080  1
  N  N44  1  0.90252187  0.19615579  0.35034729  1
  N  N45  1  0.78379286  0.08700702  0.11286441  1
  N  N46  1  0.50162220  0.23602948  0.83637391  1
  N  N47  1  0.44159341  0.09013779  0.61162209  1
  N  N48  1  0.23741173  0.53178845  0.35118256  1
  N  N49  1  0.11943587  0.41834634  0.07986011  1
  N  N50  1  0.89514529  0.55223933  0.89126928  1
  N  N51  1  0.73934711  0.44636433  0.65368282  1
  N  N52  1  0.57340765  0.53125306  0.36176312  1
  N  N53  1  0.42701792  0.41982499  0.07017160  1
  N  N54  1  0.20515702  0.54230098  0.85085051  1
  N  N55  1  0.14505751  0.40394526  0.57602138  1
  N  N56  1  0.90465752  0.53196572  0.36878118  1
  N  N57  1  0.80254214  0.42035031  0.12756483  1
  N  N58  1  0.48808805  0.57172461  0.83216404  1
  N  N59  1  0.44696564  0.42244982  0.58304411  1
  N  N60  1  0.24133091  0.86562774  0.33174552  1
  N  N61  1  0.12063215  0.75639806  0.13457426  1
  N  N62  1  0.91240504  0.84116306  0.89377802  1
  N  N63  1  0.75179871  0.77831431  0.66459889  1
  N  N64  1  0.58206359  0.83626316  0.33193789  1
  N  N65  1  0.40761464  0.77679968  0.06496676  1
  N  N66  1  0.20753540  0.89216354  0.82568062  1
  N  N67  1  0.13489765  0.74680359  0.63624633  1
  N  N68  1  0.89695579  0.87195780  0.35486721  1
  N  N69  1  0.82250830  0.73822748  0.13138914  1
  N  N70  1  0.53902240  0.88316998  0.86015997  1
  N  N71  1  0.44255702  0.76736076  0.59102570  1
