# generated using pymatgen
data_Gd2Al7N9
_symmetry_space_group_name_H-M   'P 1'
_cell_length_a   9.88998114
_cell_length_b   9.82710766
_cell_length_c   10.80435967
_cell_angle_alpha   89.99567739
_cell_angle_beta   89.44818926
_cell_angle_gamma   60.15403521
_symmetry_Int_Tables_number   1
_chemical_formula_structural   Gd2Al7N9
_chemical_formula_sum   'Gd8 Al28 N36'
_cell_volume   910.74392032
_cell_formula_units_Z   4
loop_
 _symmetry_equiv_pos_site_id
 _symmetry_equiv_pos_as_xyz
  1  'x, y, z'
loop_
 _atom_site_type_symbol
 _atom_site_label
 _atom_site_symmetry_multiplicity
 _atom_site_fract_x
 _atom_site_fract_y
 _atom_site_fract_z
 _atom_site_occupancy
  Al  Al0  1  0.12049194  0.08052184  0.32610950  1
  Al  Al1  1  0.22158856  0.20971576  0.14204541  1
  Al  Al2  1  0.53994955  0.21762150  0.13717724  1
  Al  Al3  1  0.11077816  0.09932994  0.88919702  1
  Al  Al4  1  0.22646810  0.19474557  0.66284941  1
  Al  Al5  1  0.78904598  0.08796171  0.29619737  1
  Al  Al6  1  0.89836682  0.20329690  0.09020272  1
  Al  Al7  1  0.41920094  0.11530151  0.89802173  1
  Al  Al8  1  0.52743924  0.21906262  0.66103945  1
  Al  Al9  1  0.11689394  0.43368039  0.31595437  1
  Al  Al10  1  0.21070807  0.54213304  0.06970457  1
  Al  Al11  1  0.46511419  0.42091656  0.40384589  1
  Al  Al12  1  0.11403628  0.43777852  0.82979210  1
  Al  Al13  1  0.22897142  0.53517956  0.57720381  1
  Al  Al14  1  0.80229182  0.42023685  0.31023949  1
  Al  Al15  1  0.91277595  0.53266677  0.07555946  1
  Al  Al16  1  0.41801700  0.44049388  0.89157433  1
  Al  Al17  1  0.52720606  0.55184578  0.65116861  1
  Al  Al18  1  0.12349174  0.75482766  0.32034687  1
  Al  Al19  1  0.20724561  0.87267153  0.07034335  1
  Al  Al20  1  0.78778148  0.75734807  0.83911828  1
  Al  Al21  1  0.47295943  0.74396123  0.40919144  1
  Al  Al22  1  0.11831251  0.75642520  0.82418990  1
  Al  Al23  1  0.22736559  0.87432905  0.57309363  1
  Al  Al24  1  0.80108889  0.74588445  0.30766742  1
  Al  Al25  1  0.90968778  0.85515692  0.07482664  1
  Al  Al26  1  0.41886318  0.77194900  0.89025995  1
  Al  Al27  1  0.54013751  0.87865921  0.67075957  1
  Gd  Gd28  1  0.76407899  0.09796658  0.86090870  1
  Gd  Gd29  1  0.87178671  0.21264829  0.56185995  1
  Gd  Gd30  1  0.45108802  0.09019012  0.40299115  1
  Gd  Gd31  1  0.75671530  0.44757470  0.85895777  1
  Gd  Gd32  1  0.88862632  0.53684182  0.57838400  1
  Gd  Gd33  1  0.53606373  0.54121298  0.15229824  1
  Gd  Gd34  1  0.88826712  0.87125919  0.57471850  1
  Gd  Gd35  1  0.55835745  0.87188517  0.11602693  1
  N  N36  1  0.21173801  0.20905679  0.32098481  1
  N  N37  1  0.11976856  0.08664179  0.11786144  1
  N  N38  1  0.90335730  0.20475629  0.91522680  1
  N  N39  1  0.74683254  0.10508332  0.64816840  1
  N  N40  1  0.56521008  0.22411914  0.31471359  1
  N  N41  1  0.42504106  0.12604457  0.07638126  1
  N  N42  1  0.21098306  0.20843866  0.84546845  1
  N  N43  1  0.12612508  0.08945446  0.60616615  1
  N  N44  1  0.89759322  0.19663029  0.34197136  1
  N  N45  1  0.78048379  0.08637288  0.11543027  1
  N  N46  1  0.49967174  0.23719919  0.83324623  1
  N  N47  1  0.44068019  0.09071416  0.61431647  1
  N  N48  1  0.22385072  0.53853774  0.38841104  1
  N  N49  1  0.11761262  0.43197809  0.13577679  1
  N  N50  1  0.90654916  0.54911416  0.89652020  1
  N  N51  1  0.74792808  0.44223218  0.65161046  1
  N  N52  1  0.57560744  0.52823822  0.36177257  1
  N  N53  1  0.43228971  0.41574174  0.06774271  1
  N  N54  1  0.20176138  0.55345402  0.89295034  1
  N  N55  1  0.13890929  0.42146207  0.65142206  1
  N  N56  1  0.90252556  0.53298888  0.36483559  1
  N  N57  1  0.80269489  0.42392575  0.12896341  1
  N  N58  1  0.49093163  0.57024906  0.82648018  1
  N  N59  1  0.45143066  0.41928360  0.58059044  1
  N  N60  1  0.23210446  0.86219699  0.38364375  1
  N  N61  1  0.12168834  0.75442949  0.13899123  1
  N  N62  1  0.90785082  0.84466054  0.89497099  1
  N  N63  1  0.75875290  0.76986717  0.66581358  1
  N  N64  1  0.57902141  0.83933472  0.33328253  1
  N  N65  1  0.42072757  0.76578332  0.06429944  1
  N  N66  1  0.19763886  0.88384727  0.88862433  1
  N  N67  1  0.14427836  0.74596355  0.64408645  1
  N  N68  1  0.89355785  0.87323597  0.35778866  1
  N  N69  1  0.82015090  0.73974305  0.13230899  1
  N  N70  1  0.53974498  0.88062056  0.85661718  1
  N  N71  1  0.45153734  0.76328434  0.58895157  1
