# generated using pymatgen
data_Gd2Al7N9
_symmetry_space_group_name_H-M   'P 1'
_cell_length_a   9.95135019
_cell_length_b   9.81462770
_cell_length_c   10.61826355
_cell_angle_alpha   90.09724540
_cell_angle_beta   89.75886161
_cell_angle_gamma   60.30069260
_symmetry_Int_Tables_number   1
_chemical_formula_structural   Gd2Al7N9
_chemical_formula_sum   'Gd8 Al28 N36'
_cell_volume   900.82400890
_cell_formula_units_Z   4
loop_
 _symmetry_equiv_pos_site_id
 _symmetry_equiv_pos_as_xyz
  1  'x, y, z'
loop_
 _atom_site_type_symbol
 _atom_site_label
 _atom_site_symmetry_multiplicity
 _atom_site_fract_x
 _atom_site_fract_y
 _atom_site_fract_z
 _atom_site_occupancy
  Al  Al0  1  0.11679724  0.08988305  0.30364047  1
  Al  Al1  1  0.21249455  0.21284287  0.05684424  1
  Al  Al2  1  0.54225763  0.21819530  0.11655298  1
  Al  Al3  1  0.11579508  0.09334387  0.81023858  1
  Al  Al4  1  0.22234435  0.20340123  0.56588385  1
  Al  Al5  1  0.79051343  0.09258221  0.27704592  1
  Al  Al6  1  0.90987589  0.19842030  0.06247524  1
  Al  Al7  1  0.42368789  0.11109857  0.87540979  1
  Al  Al8  1  0.52736752  0.21815099  0.63570234  1
  Al  Al9  1  0.11616125  0.42615594  0.30470569  1
  Al  Al10  1  0.21061601  0.54063399  0.05444012  1
  Al  Al11  1  0.46255410  0.42437971  0.38186685  1
  Al  Al12  1  0.12008588  0.42619907  0.81005995  1
  Al  Al13  1  0.22846020  0.53492969  0.55717480  1
  Al  Al14  1  0.79805724  0.42175736  0.29149091  1
  Al  Al15  1  0.91687843  0.52935646  0.05649264  1
  Al  Al16  1  0.41531915  0.43939861  0.87047410  1
  Al  Al17  1  0.52930545  0.54923655  0.63135649  1
  Al  Al18  1  0.12153760  0.75867582  0.30255725  1
  Al  Al19  1  0.20435061  0.88210822  0.04952401  1
  Al  Al20  1  0.79074347  0.75491619  0.81749058  1
  Al  Al21  1  0.46827879  0.74781712  0.38755961  1
  Al  Al22  1  0.11754265  0.75476558  0.80656345  1
  Al  Al23  1  0.22893636  0.87032903  0.56109609  1
  Al  Al24  1  0.80097809  0.74574026  0.28669394  1
  Al  Al25  1  0.91310272  0.85478076  0.05543234  1
  Al  Al26  1  0.41655776  0.77107274  0.86906239  1
  Al  Al27  1  0.53778809  0.88128916  0.64652960  1
  Gd  Gd28  1  0.76229936  0.09899302  0.84459468  1
  Gd  Gd29  1  0.88192190  0.20704638  0.55001968  1
  Gd  Gd30  1  0.45838287  0.08737402  0.36494250  1
  Gd  Gd31  1  0.76081124  0.44258311  0.84203071  1
  Gd  Gd32  1  0.88688360  0.53821039  0.55954537  1
  Gd  Gd33  1  0.53888798  0.54034322  0.12523758  1
  Gd  Gd34  1  0.88629969  0.87281571  0.55523853  1
  Gd  Gd35  1  0.56542951  0.86559730  0.08711223  1
  N  N36  1  0.19225865  0.21954094  0.37828895  1
  N  N37  1  0.12192058  0.08953099  0.12059231  1
  N  N38  1  0.91793935  0.19416945  0.88348621  1
  N  N39  1  0.74591566  0.10863340  0.62631320  1
  N  N40  1  0.56937356  0.22777147  0.29369668  1
  N  N41  1  0.43192294  0.12045044  0.06429981  1
  N  N42  1  0.20624141  0.21312522  0.87399457  1
  N  N43  1  0.13503555  0.08130659  0.62927188  1
  N  N44  1  0.89397446  0.20153293  0.33014847  1
  N  N45  1  0.78486865  0.08817203  0.09212862  1
  N  N46  1  0.49832842  0.23557687  0.81039718  1
  N  N47  1  0.44403316  0.08915702  0.57975769  1
  N  N48  1  0.22123569  0.54052012  0.36791131  1
  N  N49  1  0.12201499  0.42090447  0.12165232  1
  N  N50  1  0.90953463  0.54607404  0.87259184  1
  N  N51  1  0.74782456  0.44042981  0.62910628  1
  N  N52  1  0.56923278  0.53348223  0.33770297  1
  N  N53  1  0.42930386  0.41569642  0.04903289  1
  N  N54  1  0.20044013  0.55074724  0.87352845  1
  N  N55  1  0.14161073  0.41398326  0.62926249  1
  N  N56  1  0.89864279  0.53523414  0.34387928  1
  N  N57  1  0.80550115  0.42030396  0.10343266  1
  N  N58  1  0.49500445  0.56553530  0.80999755  1
  N  N59  1  0.44901428  0.42165421  0.56096685  1
  N  N60  1  0.22366427  0.87271518  0.37204346  1
  N  N61  1  0.12278637  0.75688932  0.11890259  1
  N  N62  1  0.90795907  0.84513519  0.87221579  1
  N  N63  1  0.75481870  0.77256327  0.64289439  1
  N  N64  1  0.58053396  0.83463894  0.30841646  1
  N  N65  1  0.41618873  0.77028670  0.04609901  1
  N  N66  1  0.19796989  0.88428124  0.86614431  1
  N  N67  1  0.14212048  0.74488444  0.62496019  1
  N  N68  1  0.89122384  0.87606458  0.33666092  1
  N  N69  1  0.82597617  0.73662437  0.10974651  1
  N  N70  1  0.53806368  0.88156410  0.83502886  1
  N  N71  1  0.45079498  0.76211146  0.57084923  1
