# generated using pymatgen
data_Gd2Al7N9
_symmetry_space_group_name_H-M   'P 1'
_cell_length_a   9.88547515
_cell_length_b   9.82682210
_cell_length_c   10.80110285
_cell_angle_alpha   90.01220839
_cell_angle_beta   89.44210947
_cell_angle_gamma   60.13394502
_symmetry_Int_Tables_number   1
_chemical_formula_structural   Gd2Al7N9
_chemical_formula_sum   'Gd8 Al28 N36'
_cell_volume   909.84200461
_cell_formula_units_Z   4
loop_
 _symmetry_equiv_pos_site_id
 _symmetry_equiv_pos_as_xyz
  1  'x, y, z'
loop_
 _atom_site_type_symbol
 _atom_site_label
 _atom_site_symmetry_multiplicity
 _atom_site_fract_x
 _atom_site_fract_y
 _atom_site_fract_z
 _atom_site_occupancy
  Al  Al0  1  0.11880248  0.07984136  0.31435378  1
  Al  Al1  1  0.22118491  0.20959512  0.14203924  1
  Al  Al2  1  0.54014556  0.21772528  0.13715599  1
  Al  Al3  1  0.10769219  0.09495028  0.84838365  1
  Al  Al4  1  0.22971092  0.19763948  0.66460784  1
  Al  Al5  1  0.78878906  0.08908713  0.29641814  1
  Al  Al6  1  0.90361803  0.20051726  0.08771140  1
  Al  Al7  1  0.41841428  0.11572017  0.89882849  1
  Al  Al8  1  0.52818518  0.21926208  0.66084092  1
  Al  Al9  1  0.11673423  0.43384155  0.31627893  1
  Al  Al10  1  0.21072285  0.54256930  0.07003943  1
  Al  Al11  1  0.46490123  0.42129846  0.40359263  1
  Al  Al12  1  0.11380857  0.43797197  0.83057212  1
  Al  Al13  1  0.22887464  0.53567911  0.57689321  1
  Al  Al14  1  0.80211290  0.41970913  0.31048310  1
  Al  Al15  1  0.91280799  0.53246236  0.07557927  1
  Al  Al16  1  0.41816811  0.44038631  0.89152216  1
  Al  Al17  1  0.52773708  0.55142679  0.65120933  1
  Al  Al18  1  0.12299732  0.75597093  0.32069599  1
  Al  Al19  1  0.20514216  0.87676884  0.06851246  1
  Al  Al20  1  0.78707507  0.75778374  0.83919626  1
  Al  Al21  1  0.47183231  0.74496474  0.40919695  1
  Al  Al22  1  0.11826751  0.75584347  0.82459674  1
  Al  Al23  1  0.22730543  0.87375215  0.57569057  1
  Al  Al24  1  0.80082019  0.74603190  0.30756881  1
  Al  Al25  1  0.90985012  0.85522646  0.07520563  1
  Al  Al26  1  0.41898451  0.77180421  0.89052157  1
  Al  Al27  1  0.53982857  0.87879669  0.67082753  1
  Gd  Gd28  1  0.76412397  0.09814358  0.86205297  1
  Gd  Gd29  1  0.87536845  0.21058138  0.56339874  1
  Gd  Gd30  1  0.45104755  0.09055614  0.40177767  1
  Gd  Gd31  1  0.75797517  0.44583949  0.85966988  1
  Gd  Gd32  1  0.88782202  0.53763243  0.57819318  1
  Gd  Gd33  1  0.53640613  0.54121400  0.15159353  1
  Gd  Gd34  1  0.88795777  0.87136481  0.57446699  1
  Gd  Gd35  1  0.55809083  0.87174888  0.11604907  1
  N  N36  1  0.21069905  0.21011124  0.32323461  1
  N  N37  1  0.11939627  0.08277234  0.13268649  1
  N  N38  1  0.90963388  0.20088980  0.91338540  1
  N  N39  1  0.74760474  0.10591160  0.64793044  1
  N  N40  1  0.56485175  0.22463617  0.31446260  1
  N  N41  1  0.42503991  0.12595666  0.07699931  1
  N  N42  1  0.21142375  0.21024529  0.84620842  1
  N  N43  1  0.12519356  0.08435680  0.63572223  1
  N  N44  1  0.89622990  0.19766473  0.34523643  1
  N  N45  1  0.78092580  0.08677364  0.11496865  1
  N  N46  1  0.49997456  0.23693352  0.83306422  1
  N  N47  1  0.44097732  0.09073901  0.61320685  1
  N  N48  1  0.22349547  0.53947545  0.38852665  1
  N  N49  1  0.11767417  0.43186997  0.13585500  1
  N  N50  1  0.90582501  0.54958690  0.89628370  1
  N  N51  1  0.74884622  0.44066994  0.65135179  1
  N  N52  1  0.57431387  0.52941335  0.36125649  1
  N  N53  1  0.43240098  0.41566566  0.06761654  1
  N  N54  1  0.20180745  0.55343282  0.89311050  1
  N  N55  1  0.13835402  0.42244037  0.65101783  1
  N  N56  1  0.90194665  0.53338172  0.36486268  1
  N  N57  1  0.80388786  0.42223138  0.12822207  1
  N  N58  1  0.49185423  0.56967923  0.82654044  1
  N  N59  1  0.45139043  0.41946534  0.58054882  1
  N  N60  1  0.22890566  0.86677000  0.38717930  1
  N  N61  1  0.12212046  0.75495897  0.13892577  1
  N  N62  1  0.90749416  0.84479303  0.89488320  1
  N  N63  1  0.75837418  0.77034485  0.66568678  1
  N  N64  1  0.57857273  0.83936101  0.33306079  1
  N  N65  1  0.41981660  0.76639213  0.06428766  1
  N  N66  1  0.19761955  0.88376508  0.88829479  1
  N  N67  1  0.14384745  0.74583149  0.64444735  1
  N  N68  1  0.89293200  0.87371579  0.35772393  1
  N  N69  1  0.82011471  0.73966115  0.13220805  1
  N  N70  1  0.53943843  0.88099806  0.85640986  1
  N  N71  1  0.45160291  0.76336234  0.58908466  1
