# generated using pymatgen
data_Gd2Al7N9
_symmetry_space_group_name_H-M   'P 1'
_cell_length_a   9.89427265
_cell_length_b   9.83586006
_cell_length_c   10.76204609
_cell_angle_alpha   90.21249969
_cell_angle_beta   89.20830021
_cell_angle_gamma   60.18312471
_symmetry_Int_Tables_number   1
_chemical_formula_structural   Gd2Al7N9
_chemical_formula_sum   'Gd8 Al28 N36'
_cell_volume   908.54487498
_cell_formula_units_Z   4
loop_
 _symmetry_equiv_pos_site_id
 _symmetry_equiv_pos_as_xyz
  1  'x, y, z'
loop_
 _atom_site_type_symbol
 _atom_site_label
 _atom_site_symmetry_multiplicity
 _atom_site_fract_x
 _atom_site_fract_y
 _atom_site_fract_z
 _atom_site_occupancy
  Al  Al0  1  0.11536995  0.08359343  0.29403525  1
  Al  Al1  1  0.21860702  0.21089898  0.11698857  1
  Al  Al2  1  0.53945881  0.21917428  0.11701031  1
  Al  Al3  1  0.11234274  0.08696758  0.81339223  1
  Al  Al4  1  0.23620485  0.19723921  0.64919023  1
  Al  Al5  1  0.78719680  0.09265532  0.27689863  1
  Al  Al6  1  0.90733526  0.19848582  0.06119949  1
  Al  Al7  1  0.41988205  0.11462163  0.87863808  1
  Al  Al8  1  0.53205616  0.21849072  0.63949361  1
  Al  Al9  1  0.11386033  0.43549343  0.29518895  1
  Al  Al10  1  0.21027340  0.54402442  0.05120922  1
  Al  Al11  1  0.46279203  0.42394808  0.38147494  1
  Al  Al12  1  0.11475321  0.43634694  0.81355128  1
  Al  Al13  1  0.22947086  0.53453774  0.55756510  1
  Al  Al14  1  0.79943730  0.42034949  0.29098548  1
  Al  Al15  1  0.91137641  0.53312553  0.05554012  1
  Al  Al16  1  0.41899646  0.43936054  0.87141164  1
  Al  Al17  1  0.53167535  0.54787708  0.62972743  1
  Al  Al18  1  0.12019298  0.75949569  0.30188905  1
  Al  Al19  1  0.20391544  0.87819111  0.04632497  1
  Al  Al20  1  0.78678251  0.75660880  0.81904290  1
  Al  Al21  1  0.46831977  0.74815011  0.38893910  1
  Al  Al22  1  0.11783757  0.75389342  0.80576532  1
  Al  Al23  1  0.22949877  0.86972019  0.56155445  1
  Al  Al24  1  0.79712357  0.74898133  0.28791923  1
  Al  Al25  1  0.90911614  0.85559952  0.05617547  1
  Al  Al26  1  0.42089477  0.76914015  0.86986477  1
  Al  Al27  1  0.54156346  0.87700377  0.64989908  1
  Gd  Gd28  1  0.76418515  0.09617989  0.84397147  1
  Gd  Gd29  1  0.88761580  0.20294077  0.54730117  1
  Gd  Gd30  1  0.44732079  0.09488877  0.38044618  1
  Gd  Gd31  1  0.76337761  0.44019197  0.83652855  1
  Gd  Gd32  1  0.89180838  0.53572000  0.55679458  1
  Gd  Gd33  1  0.53896645  0.54086858  0.12721751  1
  Gd  Gd34  1  0.88806434  0.87074934  0.55391807  1
  Gd  Gd35  1  0.55624887  0.87301021  0.09600670  1
  N  N36  1  0.20584181  0.21380464  0.30516310  1
  N  N37  1  0.11847663  0.08286901  0.11365725  1
  N  N38  1  0.91571321  0.19449361  0.88625829  1
  N  N39  1  0.75109367  0.10611060  0.62766672  1
  N  N40  1  0.56363008  0.22661036  0.29366640  1
  N  N41  1  0.42555052  0.12631972  0.05735740  1
  N  N42  1  0.21232362  0.20951520  0.83069736  1
  N  N43  1  0.13403165  0.07626746  0.63212626  1
  N  N44  1  0.89357896  0.20049173  0.32986543  1
  N  N45  1  0.78184904  0.08842470  0.09363057  1
  N  N46  1  0.50105224  0.23616969  0.81220940  1
  N  N47  1  0.44472620  0.08883205  0.59277298  1
  N  N48  1  0.22025226  0.54195840  0.36876652  1
  N  N49  1  0.11632744  0.43271550  0.11449280  1
  N  N50  1  0.90535910  0.54920789  0.87592535  1
  N  N51  1  0.75271595  0.43712135  0.62644069  1
  N  N52  1  0.56908451  0.53402071  0.33742602  1
  N  N53  1  0.43110671  0.41652814  0.04834550  1
  N  N54  1  0.20283642  0.55255499  0.87387845  1
  N  N55  1  0.14077513  0.41989925  0.63258889  1
  N  N56  1  0.89817191  0.53640129  0.34328348  1
  N  N57  1  0.80672758  0.41852986  0.10610431  1
  N  N58  1  0.49755451  0.56503043  0.80697046  1
  N  N59  1  0.45187507  0.41898431  0.55931367  1
  N  N60  1  0.22248711  0.87340291  0.37270643  1
  N  N61  1  0.12073634  0.75714606  0.11945853  1
  N  N62  1  0.90732259  0.84325768  0.87501280  1
  N  N63  1  0.75960016  0.76834610  0.64461526  1
  N  N64  1  0.57474814  0.84309973  0.31364508  1
  N  N65  1  0.41827672  0.76774599  0.04445582  1
  N  N66  1  0.20011412  0.87970172  0.86670156  1
  N  N67  1  0.14300186  0.74408888  0.62564517  1
  N  N68  1  0.88957096  0.87689589  0.33710552  1
  N  N69  1  0.81789877  0.74080281  0.11205175  1
  N  N70  1  0.54044413  0.87992435  0.83600252  1
  N  N71  1  0.45294011  0.76069069  0.57013036  1
