# generated using pymatgen
data_Gd2Al7N9
_symmetry_space_group_name_H-M   'P 1'
_cell_length_a   9.88470748
_cell_length_b   9.82676794
_cell_length_c   10.79976042
_cell_angle_alpha   90.01770736
_cell_angle_beta   89.44109452
_cell_angle_gamma   60.13115790
_symmetry_Int_Tables_number   1
_chemical_formula_structural   Gd2Al7N9
_chemical_formula_sum   'Gd8 Al28 N36'
_cell_volume   909.62704528
_cell_formula_units_Z   4
loop_
 _symmetry_equiv_pos_site_id
 _symmetry_equiv_pos_as_xyz
  1  'x, y, z'
loop_
 _atom_site_type_symbol
 _atom_site_label
 _atom_site_symmetry_multiplicity
 _atom_site_fract_x
 _atom_site_fract_y
 _atom_site_fract_z
 _atom_site_occupancy
  Al  Al0  1  0.11852600  0.07995072  0.31416942  1
  Al  Al1  1  0.22103745  0.20953119  0.14203546  1
  Al  Al2  1  0.54016939  0.21776564  0.13713110  1
  Al  Al3  1  0.10756036  0.09408142  0.84331112  1
  Al  Al4  1  0.23024253  0.19812379  0.66494011  1
  Al  Al5  1  0.78883429  0.08928648  0.29641300  1
  Al  Al6  1  0.90437223  0.20017298  0.08684435  1
  Al  Al7  1  0.41807580  0.11587643  0.89892905  1
  Al  Al8  1  0.52827388  0.21930444  0.66082173  1
  Al  Al9  1  0.11668041  0.43391955  0.31632122  1
  Al  Al10  1  0.21073416  0.54262752  0.07009704  1
  Al  Al11  1  0.46487328  0.42139293  0.40353135  1
  Al  Al12  1  0.11379636  0.43784986  0.83072615  1
  Al  Al13  1  0.22885109  0.53575516  0.57682213  1
  Al  Al14  1  0.80211277  0.41960047  0.31050039  1
  Al  Al15  1  0.91285416  0.53241759  0.07556984  1
  Al  Al16  1  0.41817200  0.44035684  0.89149570  1
  Al  Al17  1  0.52781984  0.55133316  0.65127291  1
  Al  Al18  1  0.12286622  0.75620620  0.32074082  1
  Al  Al19  1  0.20484190  0.87731740  0.06800819  1
  Al  Al20  1  0.78696497  0.75783428  0.83923795  1
  Al  Al21  1  0.47169140  0.74513620  0.40927823  1
  Al  Al22  1  0.11828168  0.75574236  0.82473165  1
  Al  Al23  1  0.22733294  0.87351116  0.57638734  1
  Al  Al24  1  0.80075923  0.74606950  0.30753583  1
  Al  Al25  1  0.90991076  0.85521191  0.07524620  1
  Al  Al26  1  0.41889772  0.77180251  0.89047670  1
  Al  Al27  1  0.53979696  0.87884169  0.67089676  1
  Gd  Gd28  1  0.76406749  0.09813037  0.86231941  1
  Gd  Gd29  1  0.87588723  0.21027228  0.56388006  1
  Gd  Gd30  1  0.45115284  0.09061609  0.40153275  1
  Gd  Gd31  1  0.75823805  0.44549928  0.85979614  1
  Gd  Gd32  1  0.88765317  0.53779999  0.57815073  1
  Gd  Gd33  1  0.53648489  0.54122348  0.15142627  1
  Gd  Gd34  1  0.88789256  0.87138698  0.57442909  1
  Gd  Gd35  1  0.55804900  0.87172037  0.11594810  1
  N  N36  1  0.21048588  0.21023278  0.32358621  1
  N  N37  1  0.11935041  0.08258616  0.13341026  1
  N  N38  1  0.91060724  0.20018773  0.91249604  1
  N  N39  1  0.74767723  0.10604804  0.64788201  1
  N  N40  1  0.56487756  0.22474547  0.31439644  1
  N  N41  1  0.42500496  0.12596473  0.07715739  1
  N  N42  1  0.21132728  0.21037037  0.84615656  1
  N  N43  1  0.12522076  0.08349705  0.63993389  1
  N  N44  1  0.89609254  0.19781052  0.34592285  1
  N  N45  1  0.78108534  0.08687521  0.11485023  1
  N  N46  1  0.49992354  0.23690149  0.83302408  1
  N  N47  1  0.44102194  0.09071052  0.61294949  1
  N  N48  1  0.22343960  0.53965334  0.38851369  1
  N  N49  1  0.11771393  0.43183077  0.13591622  1
  N  N50  1  0.90573368  0.54965195  0.89626478  1
  N  N51  1  0.74894865  0.44047448  0.65126399  1
  N  N52  1  0.57408935  0.52964962  0.36115161  1
  N  N53  1  0.43241779  0.41566500  0.06760676  1
  N  N54  1  0.20180003  0.55336750  0.89314732  1
  N  N55  1  0.13822801  0.42261330  0.65087799  1
  N  N56  1  0.90184015  0.53345302  0.36484423  1
  N  N57  1  0.80414152  0.42187033  0.12804786  1
  N  N58  1  0.49203534  0.56951286  0.82656799  1
  N  N59  1  0.45138095  0.41949614  0.58052107  1
  N  N60  1  0.22833560  0.86749645  0.38795516  1
  N  N61  1  0.12219802  0.75510937  0.13892786  1
  N  N62  1  0.90745713  0.84475996  0.89489037  1
  N  N63  1  0.75829980  0.77044974  0.66566759  1
  N  N64  1  0.57848951  0.83937439  0.33303638  1
  N  N65  1  0.41965302  0.76649201  0.06426942  1
  N  N66  1  0.19759602  0.88375495  0.88800274  1
  N  N67  1  0.14374203  0.74576838  0.64452191  1
  N  N68  1  0.89281147  0.87382799  0.35769784  1
  N  N69  1  0.82012357  0.73964299  0.13219643  1
  N  N70  1  0.53939372  0.88106074  0.85640342  1
  N  N71  1  0.45159247  0.76339027  0.58920212  1
