# generated using pymatgen
data_Gd2Al7N9
_symmetry_space_group_name_H-M   'P 1'
_cell_length_a   9.90704757
_cell_length_b   9.83425379
_cell_length_c   10.69367618
_cell_angle_alpha   90.37689163
_cell_angle_beta   90.13355297
_cell_angle_gamma   60.40026927
_symmetry_Int_Tables_number   1
_chemical_formula_structural   Gd2Al7N9
_chemical_formula_sum   'Gd8 Al28 N36'
_cell_volume   905.88123657
_cell_formula_units_Z   4
loop_
 _symmetry_equiv_pos_site_id
 _symmetry_equiv_pos_as_xyz
  1  'x, y, z'
loop_
 _atom_site_type_symbol
 _atom_site_label
 _atom_site_symmetry_multiplicity
 _atom_site_fract_x
 _atom_site_fract_y
 _atom_site_fract_z
 _atom_site_occupancy
  Al  Al0  1  0.12741519  0.08445431  0.38761404  1
  Al  Al1  1  0.21908247  0.20727311  0.14413414  1
  Al  Al2  1  0.54045853  0.21973432  0.13842282  1
  Al  Al3  1  0.11856373  0.09067955  0.90222647  1
  Al  Al4  1  0.22609345  0.19488530  0.65477156  1
  Al  Al5  1  0.79483244  0.08879112  0.29747950  1
  Al  Al6  1  0.90153775  0.20113854  0.08238279  1
  Al  Al7  1  0.41522662  0.11770742  0.89681745  1
  Al  Al8  1  0.52466541  0.21979953  0.66126446  1
  Al  Al9  1  0.11746068  0.43204673  0.31695248  1
  Al  Al10  1  0.21053015  0.54323321  0.07194867  1
  Al  Al11  1  0.46697841  0.42138985  0.40150476  1
  Al  Al12  1  0.11343471  0.43349331  0.82905626  1
  Al  Al13  1  0.22817814  0.53205700  0.57233670  1
  Al  Al14  1  0.80386296  0.41698681  0.31091081  1
  Al  Al15  1  0.91397663  0.53164836  0.07663417  1
  Al  Al16  1  0.41638603  0.44107393  0.89297981  1
  Al  Al17  1  0.52429846  0.55247099  0.65194304  1
  Al  Al18  1  0.12089317  0.75183996  0.32011438  1
  Al  Al19  1  0.21938345  0.88079177  0.14718024  1
  Al  Al20  1  0.78933590  0.75557315  0.84012892  1
  Al  Al21  1  0.46229490  0.75081639  0.40600209  1
  Al  Al22  1  0.11723250  0.75199629  0.82258140  1
  Al  Al23  1  0.22872508  0.87531240  0.64375492  1
  Al  Al24  1  0.79966146  0.74618296  0.30622656  1
  Al  Al25  1  0.91428389  0.85356737  0.07487367  1
  Al  Al26  1  0.40996700  0.77636540  0.88989292  1
  Al  Al27  1  0.53963645  0.87879249  0.67123307  1
  Gd  Gd28  1  0.75955750  0.09563381  0.86518240  1
  Gd  Gd29  1  0.86433793  0.21493652  0.57138026  1
  Gd  Gd30  1  0.45734605  0.08862478  0.39907718  1
  Gd  Gd31  1  0.75550392  0.44591687  0.86157718  1
  Gd  Gd32  1  0.88313789  0.53938963  0.57733818  1
  Gd  Gd33  1  0.53685915  0.54742856  0.14817538  1
  Gd  Gd34  1  0.88564706  0.87150252  0.57501970  1
  Gd  Gd35  1  0.55910183  0.87331032  0.10796668  1
  N  N36  1  0.21153131  0.20776714  0.32457693  1
  N  N37  1  0.12326914  0.08931286  0.08761191  1
  N  N38  1  0.90493648  0.19928709  0.90265209  1
  N  N39  1  0.74245763  0.10444814  0.64987761  1
  N  N40  1  0.57153211  0.22276932  0.31568950  1
  N  N41  1  0.42364047  0.12826244  0.07881473  1
  N  N42  1  0.20915489  0.20525573  0.83804476  1
  N  N43  1  0.13531239  0.08217461  0.57261103  1
  N  N44  1  0.90180661  0.19660606  0.35231359  1
  N  N45  1  0.78437442  0.08656694  0.11435181  1
  N  N46  1  0.49614135  0.23908862  0.83428658  1
  N  N47  1  0.44037682  0.08931426  0.61229689  1
  N  N48  1  0.22638148  0.53759432  0.38534560  1
  N  N49  1  0.11884639  0.42971137  0.13544501  1
  N  N50  1  0.90695350  0.54722825  0.89538732  1
  N  N51  1  0.74261561  0.44631340  0.65222126  1
  N  N52  1  0.57377453  0.53143418  0.35996321  1
  N  N53  1  0.43185279  0.41835069  0.07145781  1
  N  N54  1  0.20142824  0.55114476  0.89287284  1
  N  N55  1  0.13621273  0.41875782  0.64421432  1
  N  N56  1  0.90287806  0.53347551  0.36259184  1
  N  N57  1  0.80416284  0.42010314  0.12625379  1
  N  N58  1  0.49005598  0.57022045  0.83027183  1
  N  N59  1  0.45053665  0.41842599  0.57993987  1
  N  N60  1  0.24100530  0.86480421  0.33244389  1
  N  N61  1  0.12069491  0.75418178  0.13907706  1
  N  N62  1  0.91210525  0.84262302  0.89368233  1
  N  N63  1  0.75587301  0.77093067  0.66547921  1
  N  N64  1  0.57946552  0.83809256  0.33148322  1
  N  N65  1  0.40549058  0.77752788  0.06287966  1
  N  N66  1  0.20785145  0.89112362  0.82567745  1
  N  N67  1  0.13934374  0.73864692  0.64097818  1
  N  N68  1  0.89481498  0.87301422  0.35784009  1
  N  N69  1  0.82018653  0.74029350  0.12964775  1
  N  N70  1  0.54161290  0.88084299  0.85974948  1
  N  N71  1  0.44324045  0.76550372  0.59049325  1
