# generated using pymatgen
data_Gd2Al7N9
_symmetry_space_group_name_H-M   'P 1'
_cell_length_a   9.98827560
_cell_length_b   9.84980223
_cell_length_c   10.32861934
_cell_angle_alpha   90.05450050
_cell_angle_beta   89.90007464
_cell_angle_gamma   60.55017519
_symmetry_Int_Tables_number   1
_chemical_formula_structural   Gd2Al7N9
_chemical_formula_sum   'Gd8 Al28 N36'
_cell_volume   884.85158613
_cell_formula_units_Z   4
loop_
 _symmetry_equiv_pos_site_id
 _symmetry_equiv_pos_as_xyz
  1  'x, y, z'
loop_
 _atom_site_type_symbol
 _atom_site_label
 _atom_site_symmetry_multiplicity
 _atom_site_fract_x
 _atom_site_fract_y
 _atom_site_fract_z
 _atom_site_occupancy
  Al  Al0  1  0.12177557  0.09009625  0.39790308  1
  Al  Al1  1  0.21503604  0.21182293  0.14591663  1
  Al  Al2  1  0.53468888  0.22299323  0.15486893  1
  Al  Al3  1  0.11321532  0.09156049  0.90655596  1
  Al  Al4  1  0.22991667  0.20053638  0.66064871  1
  Al  Al5  1  0.76616032  0.10782979  0.38103536  1
  Al  Al6  1  0.90237895  0.20148196  0.17269430  1
  Al  Al7  1  0.42516828  0.11504007  0.89648186  1
  Al  Al8  1  0.53720156  0.21676389  0.65777744  1
  Al  Al9  1  0.12762919  0.41923504  0.39871982  1
  Al  Al10  1  0.21695654  0.53928811  0.14925665  1
  Al  Al11  1  0.44000416  0.43405522  0.41427863  1
  Al  Al12  1  0.11040296  0.43464132  0.90679374  1
  Al  Al13  1  0.23428647  0.53339670  0.65254216  1
  Al  Al14  1  0.76848227  0.43173360  0.40553785  1
  Al  Al15  1  0.91481880  0.52045672  0.16916439  1
  Al  Al16  1  0.42219579  0.43832784  0.89659728  1
  Al  Al17  1  0.53650786  0.54801212  0.65016325  1
  Al  Al18  1  0.13353400  0.75189052  0.40007531  1
  Al  Al19  1  0.21612739  0.87680675  0.15115751  1
  Al  Al20  1  0.77970977  0.76152949  0.83398281  1
  Al  Al21  1  0.44770697  0.76097721  0.41598631  1
  Al  Al22  1  0.10938388  0.75917187  0.90268116  1
  Al  Al23  1  0.23117285  0.86813287  0.65054537  1
  Al  Al24  1  0.78707888  0.75022830  0.34292588  1
  Al  Al25  1  0.91051556  0.86438290  0.17193345  1
  Al  Al26  1  0.41956974  0.76690526  0.89632231  1
  Al  Al27  1  0.53372154  0.88024217  0.67214976  1
  Gd  Gd28  1  0.77007042  0.09077319  0.91971472  1
  Gd  Gd29  1  0.89090450  0.19551112  0.62966217  1
  Gd  Gd30  1  0.44559750  0.09288857  0.41092672  1
  Gd  Gd31  1  0.77261867  0.43722601  0.90543474  1
  Gd  Gd32  1  0.90141804  0.53180420  0.62359147  1
  Gd  Gd33  1  0.54513195  0.53921394  0.16097315  1
  Gd  Gd34  1  0.88877272  0.87398008  0.61445749  1
  Gd  Gd35  1  0.56642518  0.86897347  0.11533206  1
  N  N36  1  0.20171763  0.21544697  0.32873049  1
  N  N37  1  0.10929334  0.09367295  0.09722525  1
  N  N38  1  0.90977743  0.19148724  0.84771786  1
  N  N39  1  0.72572727  0.11786989  0.56804440  1
  N  N40  1  0.55286343  0.23469787  0.33369850  1
  N  N41  1  0.42581678  0.12548804  0.08832639  1
  N  N42  1  0.21071707  0.21234054  0.84962815  1
  N  N43  1  0.14941716  0.07766952  0.58128061  1
  N  N44  1  0.89620110  0.20390319  0.36327042  1
  N  N45  1  0.78129240  0.09189107  0.14170546  1
  N  N46  1  0.52565062  0.22663197  0.84055149  1
  N  N47  1  0.44087368  0.09179815  0.63033570  1
  N  N48  1  0.22782102  0.53758490  0.33766876  1
  N  N49  1  0.11346866  0.42744357  0.09499327  1
  N  N50  1  0.90653360  0.54648648  0.84890902  1
  N  N51  1  0.74322952  0.44281038  0.59271498  1
  N  N52  1  0.54745204  0.54461165  0.37541940  1
  N  N53  1  0.42197648  0.42329045  0.08056341  1
  N  N54  1  0.21340472  0.54419162  0.84181025  1
  N  N55  1  0.16099313  0.40064067  0.58108695  1
  N  N56  1  0.90214335  0.52718248  0.36979521  1
  N  N57  1  0.80505331  0.41560455  0.12744461  1
  N  N58  1  0.51873266  0.55590751  0.83861107  1
  N  N59  1  0.44046454  0.42832793  0.59837506  1
  N  N60  1  0.23087099  0.87047255  0.33995929  1
  N  N61  1  0.11254337  0.76257240  0.09650312  1
  N  N62  1  0.90355769  0.85342774  0.84603289  1
  N  N63  1  0.74067991  0.77730682  0.64811719  1
  N  N64  1  0.57067807  0.84215455  0.34734993  1
  N  N65  1  0.41031339  0.77375794  0.07675360  1
  N  N66  1  0.21092744  0.87868854  0.83902582  1
  N  N67  1  0.15228831  0.74011000  0.58282980  1
  N  N68  1  0.90257945  0.86927339  0.36535809  1
  N  N69  1  0.82221426  0.73709883  0.15756119  1
  N  N70  1  0.54732600  0.87594820  0.86621893  1
  N  N71  1  0.44070988  0.76696072  0.60344785  1
