# generated using pymatgen
data_Gd2Al7N9
_symmetry_space_group_name_H-M   'P 1'
_cell_length_a   9.92694119
_cell_length_b   9.82944802
_cell_length_c   10.33787471
_cell_angle_alpha   90.13582657
_cell_angle_beta   89.91023800
_cell_angle_gamma   60.58282698
_symmetry_Int_Tables_number   1
_chemical_formula_structural   Gd2Al7N9
_chemical_formula_sum   'Gd8 Al28 N36'
_cell_volume   878.66609353
_cell_formula_units_Z   4
loop_
 _symmetry_equiv_pos_site_id
 _symmetry_equiv_pos_as_xyz
  1  'x, y, z'
loop_
 _atom_site_type_symbol
 _atom_site_label
 _atom_site_symmetry_multiplicity
 _atom_site_fract_x
 _atom_site_fract_y
 _atom_site_fract_z
 _atom_site_occupancy
  Al  Al0  1  0.12155039  0.08962423  0.40320610  1
  Al  Al1  1  0.21226353  0.21472087  0.15240800  1
  Al  Al2  1  0.53474247  0.22266603  0.16185003  1
  Al  Al3  1  0.11473743  0.08995164  0.91331423  1
  Al  Al4  1  0.23191648  0.19848692  0.66879574  1
  Al  Al5  1  0.76633375  0.10420271  0.38829528  1
  Al  Al6  1  0.90007022  0.20285678  0.18067316  1
  Al  Al7  1  0.43079969  0.11014928  0.89970888  1
  Al  Al8  1  0.54070040  0.21675853  0.66540313  1
  Al  Al9  1  0.12126456  0.42294021  0.40326656  1
  Al  Al10  1  0.21723567  0.53908128  0.15723048  1
  Al  Al11  1  0.43948765  0.43369941  0.42019534  1
  Al  Al12  1  0.11495354  0.43033423  0.91612414  1
  Al  Al13  1  0.23429267  0.53305125  0.65790618  1
  Al  Al14  1  0.76988849  0.43554424  0.41180657  1
  Al  Al15  1  0.90547169  0.53215778  0.17267874  1
  Al  Al16  1  0.42372924  0.43793016  0.90354811  1
  Al  Al17  1  0.53894088  0.54703298  0.65600992  1
  Al  Al18  1  0.12590065  0.75346937  0.40509645  1
  Al  Al19  1  0.21266514  0.87731897  0.15756665  1
  Al  Al20  1  0.80048489  0.74895453  0.92086115  1
  Al  Al21  1  0.44395455  0.76112976  0.42410432  1
  Al  Al22  1  0.11426696  0.75711528  0.91161243  1
  Al  Al23  1  0.23332672  0.86770702  0.65703476  1
  Al  Al24  1  0.77149489  0.75869282  0.40604641  1
  Al  Al25  1  0.90190967  0.86213757  0.17490863  1
  Al  Al26  1  0.42528039  0.76667484  0.90029628  1
  Al  Al27  1  0.55168679  0.87142380  0.67637551  1
  Gd  Gd28  1  0.77129455  0.09102441  0.92786401  1
  Gd  Gd29  1  0.89403756  0.19743981  0.63311373  1
  Gd  Gd30  1  0.44094003  0.09583007  0.42362036  1
  Gd  Gd31  1  0.77260129  0.43305891  0.91311788  1
  Gd  Gd32  1  0.90231810  0.53811058  0.64521175  1
  Gd  Gd33  1  0.54286417  0.54286163  0.16837370  1
  Gd  Gd34  1  0.88938236  0.87486566  0.63957771  1
  Gd  Gd35  1  0.55372523  0.87652993  0.13530590  1
  N  N36  1  0.19965917  0.21701512  0.33480252  1
  N  N37  1  0.10729509  0.09438331  0.10369359  1
  N  N38  1  0.91181403  0.18869607  0.85111220  1
  N  N39  1  0.73052706  0.11560482  0.57597988  1
  N  N40  1  0.55120510  0.23273724  0.34154974  1
  N  N41  1  0.42283012  0.12904010  0.09098134  1
  N  N42  1  0.21258068  0.21048064  0.85652099  1
  N  N43  1  0.15439311  0.07522847  0.58587791  1
  N  N44  1  0.89539997  0.20436177  0.37054198  1
  N  N45  1  0.77833366  0.09372077  0.14802330  1
  N  N46  1  0.52863224  0.22706257  0.84744561  1
  N  N47  1  0.44588103  0.08897371  0.64340317  1
  N  N48  1  0.22669209  0.53783498  0.34493955  1
  N  N49  1  0.11067398  0.43036529  0.10346040  1
  N  N50  1  0.90767123  0.54441751  0.86170829  1
  N  N51  1  0.74767597  0.44619347  0.59945788  1
  N  N52  1  0.54743262  0.54458523  0.38297596  1
  N  N53  1  0.42247328  0.42389244  0.08761854  1
  N  N54  1  0.21431446  0.54286252  0.84749115  1
  N  N55  1  0.15794428  0.39980101  0.58639751  1
  N  N56  1  0.89637255  0.53748209  0.36627898  1
  N  N57  1  0.80266642  0.41650775  0.13361836  1
  N  N58  1  0.52014810  0.55483632  0.84404181  1
  N  N59  1  0.44120983  0.42770609  0.60423512  1
  N  N60  1  0.22775092  0.86998911  0.34624529  1
  N  N61  1  0.11059089  0.76175022  0.10455182  1
  N  N62  1  0.90487212  0.84903155  0.85911974  1
  N  N63  1  0.74166523  0.77877981  0.58767601  1
  N  N64  1  0.56289446  0.84593805  0.35224367  1
  N  N65  1  0.40689759  0.77597981  0.08000923  1
  N  N66  1  0.21315537  0.87751324  0.84489558  1
  N  N67  1  0.14825638  0.74224499  0.58834285  1
  N  N68  1  0.89506440  0.86552783  0.36380417  1
  N  N69  1  0.81411017  0.74202274  0.10710658  1
  N  N70  1  0.56331251  0.86647441  0.86916237  1
  N  N71  1  0.44425610  0.76568831  0.61175568  1
