# generated using pymatgen
data_Gd2Al7N9
_symmetry_space_group_name_H-M   'P 1'
_cell_length_a   9.90598478
_cell_length_b   9.82856798
_cell_length_c   10.76102121
_cell_angle_alpha   90.18720972
_cell_angle_beta   89.77499031
_cell_angle_gamma   60.32686024
_symmetry_Int_Tables_number   1
_chemical_formula_structural   Gd2Al7N9
_chemical_formula_sum   'Gd8 Al28 N36'
_cell_volume   910.29441140
_cell_formula_units_Z   4
loop_
 _symmetry_equiv_pos_site_id
 _symmetry_equiv_pos_as_xyz
  1  'x, y, z'
loop_
 _atom_site_type_symbol
 _atom_site_label
 _atom_site_symmetry_multiplicity
 _atom_site_fract_x
 _atom_site_fract_y
 _atom_site_fract_z
 _atom_site_occupancy
  Al  Al0  1  0.12406270  0.08754209  0.38759086  1
  Al  Al1  1  0.21874489  0.20601062  0.14546907  1
  Al  Al2  1  0.53933082  0.21898573  0.13809449  1
  Al  Al3  1  0.11141029  0.10117437  0.90157708  1
  Al  Al4  1  0.22608079  0.19521179  0.65642541  1
  Al  Al5  1  0.79402963  0.08842435  0.29675753  1
  Al  Al6  1  0.89856863  0.20377919  0.08323085  1
  Al  Al7  1  0.41501610  0.11691792  0.89790769  1
  Al  Al8  1  0.52378037  0.21977984  0.66167945  1
  Al  Al9  1  0.11781844  0.43255720  0.31698096  1
  Al  Al10  1  0.21089194  0.54146447  0.07086604  1
  Al  Al11  1  0.46589411  0.42103517  0.40294422  1
  Al  Al12  1  0.11499911  0.43546735  0.82736974  1
  Al  Al13  1  0.22879460  0.53427843  0.57441055  1
  Al  Al14  1  0.80512599  0.41676011  0.31092961  1
  Al  Al15  1  0.91527910  0.53096437  0.07569355  1
  Al  Al16  1  0.41660013  0.44102219  0.89259098  1
  Al  Al17  1  0.52533183  0.55243904  0.65315962  1
  Al  Al18  1  0.12517285  0.75603432  0.32058660  1
  Al  Al19  1  0.20705532  0.87558100  0.06984518  1
  Al  Al20  1  0.79063356  0.75538681  0.83948696  1
  Al  Al21  1  0.47112627  0.74456946  0.40994260  1
  Al  Al22  1  0.11824999  0.75560206  0.82437591  1
  Al  Al23  1  0.23023053  0.86697883  0.57788397  1
  Al  Al24  1  0.80154604  0.74496097  0.30673577  1
  Al  Al25  1  0.91160047  0.85423230  0.07524079  1
  Al  Al26  1  0.41690804  0.77316422  0.88793373  1
  Al  Al27  1  0.54125246  0.87913961  0.67186011  1
  Gd  Gd28  1  0.75874691  0.09668420  0.86403911  1
  Gd  Gd29  1  0.85955109  0.21810846  0.56920022  1
  Gd  Gd30  1  0.45651166  0.08808093  0.39986444  1
  Gd  Gd31  1  0.75411069  0.44988212  0.86149615  1
  Gd  Gd32  1  0.88650216  0.53782191  0.57794166  1
  Gd  Gd33  1  0.53683448  0.54372429  0.15199191  1
  Gd  Gd34  1  0.88695886  0.87186926  0.57419460  1
  Gd  Gd35  1  0.55948613  0.87214216  0.11230585  1
  N  N36  1  0.21172397  0.20658700  0.32438481  1
  N  N37  1  0.11986738  0.09464014  0.08766260  1
  N  N38  1  0.89913347  0.20475998  0.90431650  1
  N  N39  1  0.74192134  0.10383630  0.65015283  1
  N  N40  1  0.56943191  0.22341703  0.31495859  1
  N  N41  1  0.42300066  0.12727913  0.07837706  1
  N  N42  1  0.20965671  0.20548038  0.83718368  1
  N  N43  1  0.12916039  0.09203766  0.57498072  1
  N  N44  1  0.90105520  0.19602187  0.35103112  1
  N  N45  1  0.78303758  0.08698702  0.11477724  1
  N  N46  1  0.49502585  0.23880301  0.83383250  1
  N  N47  1  0.44023341  0.08961722  0.61182725  1
  N  N48  1  0.22540293  0.53796621  0.38696903  1
  N  N49  1  0.11914486  0.42977560  0.13709729  1
  N  N50  1  0.90907473  0.54699586  0.89550323  1
  N  N51  1  0.74402516  0.44702989  0.65338378  1
  N  N52  1  0.57644474  0.52827171  0.36231184  1
  N  N53  1  0.43209756  0.41716638  0.06970026  1
  N  N54  1  0.20136346  0.55227908  0.89307795  1
  N  N55  1  0.13821290  0.42119453  0.64748343  1
  N  N56  1  0.90344944  0.53256098  0.36424158  1
  N  N57  1  0.80381540  0.42172987  0.12770969  1
  N  N58  1  0.48986279  0.56964995  0.82804954  1
  N  N59  1  0.45125071  0.41904241  0.58054924  1
  N  N60  1  0.23650427  0.85696877  0.38717869  1
  N  N61  1  0.12261340  0.75594764  0.13847683  1
  N  N62  1  0.90977350  0.84356516  0.89497760  1
  N  N63  1  0.75876986  0.77017785  0.66553984  1
  N  N64  1  0.58009368  0.83695934  0.33226743  1
  N  N65  1  0.41886255  0.76810782  0.06305313  1
  N  N66  1  0.19877625  0.88489908  0.87889548  1
  N  N67  1  0.14249984  0.74420554  0.64356471  1
  N  N68  1  0.89477461  0.87287255  0.35696764  1
  N  N69  1  0.82125416  0.73878524  0.13096786  1
  N  N70  1  0.54126407  0.88097019  0.85773384  1
  N  N71  1  0.45106653  0.76360616  0.59296932  1
