# generated using pymatgen
data_Gd2Al7N9
_symmetry_space_group_name_H-M   'P 1'
_cell_length_a   9.87586698
_cell_length_b   9.83362431
_cell_length_c   10.79855611
_cell_angle_alpha   90.18639900
_cell_angle_beta   89.36812913
_cell_angle_gamma   60.13807759
_symmetry_Int_Tables_number   1
_chemical_formula_structural   Gd2Al7N9
_chemical_formula_sum   'Gd8 Al28 N36'
_cell_volume   909.36713563
_cell_formula_units_Z   4
loop_
 _symmetry_equiv_pos_site_id
 _symmetry_equiv_pos_as_xyz
  1  'x, y, z'
loop_
 _atom_site_type_symbol
 _atom_site_label
 _atom_site_symmetry_multiplicity
 _atom_site_fract_x
 _atom_site_fract_y
 _atom_site_fract_z
 _atom_site_occupancy
  Al  Al0  1  0.11589710  0.08214474  0.31026570  1
  Al  Al1  1  0.21952241  0.21053114  0.13802916  1
  Al  Al2  1  0.53999394  0.21905915  0.13172517  1
  Al  Al3  1  0.11100557  0.08759437  0.82603154  1
  Al  Al4  1  0.23407680  0.19838347  0.66131645  1
  Al  Al5  1  0.78843993  0.09244200  0.29131608  1
  Al  Al6  1  0.90869600  0.19773271  0.07544368  1
  Al  Al7  1  0.41614252  0.11701338  0.89467157  1
  Al  Al8  1  0.52992552  0.21905714  0.65490791  1
  Al  Al9  1  0.11457143  0.43666191  0.31136203  1
  Al  Al10  1  0.21091028  0.54325197  0.06551203  1
  Al  Al11  1  0.46388090  0.42377379  0.39703849  1
  Al  Al12  1  0.11360085  0.43688700  0.82619751  1
  Al  Al13  1  0.22866059  0.53550361  0.57152088  1
  Al  Al14  1  0.80141032  0.41935160  0.30579585  1
  Al  Al15  1  0.91287267  0.53228245  0.07039616  1
  Al  Al16  1  0.41837005  0.43969463  0.88588398  1
  Al  Al17  1  0.53012345  0.54909688  0.64557389  1
  Al  Al18  1  0.12102581  0.75913303  0.31612555  1
  Al  Al19  1  0.20437444  0.87827214  0.06088207  1
  Al  Al20  1  0.78605179  0.75735047  0.83439403  1
  Al  Al21  1  0.46930806  0.74764022  0.40400880  1
  Al  Al22  1  0.11739898  0.75424379  0.82050241  1
  Al  Al23  1  0.22886994  0.86992174  0.57525679  1
  Al  Al24  1  0.79815422  0.74836212  0.30194892  1
  Al  Al25  1  0.90983529  0.85525216  0.07092626  1
  Al  Al26  1  0.42015225  0.76973718  0.88454082  1
  Al  Al27  1  0.53972000  0.87904511  0.66558781  1
  Gd  Gd28  1  0.76280593  0.09651993  0.85900536  1
  Gd  Gd29  1  0.88346595  0.20526265  0.56286809  1
  Gd  Gd30  1  0.45004740  0.09348506  0.39459808  1
  Gd  Gd31  1  0.76193334  0.44098874  0.85296385  1
  Gd  Gd32  1  0.88758973  0.53845803  0.57188761  1
  Gd  Gd33  1  0.53919573  0.54053058  0.14340008  1
  Gd  Gd34  1  0.88699341  0.87156029  0.56861136  1
  Gd  Gd35  1  0.55673442  0.87269004  0.10975467  1
  N  N36  1  0.20717589  0.21322470  0.32021677  1
  N  N37  1  0.11934190  0.08183012  0.13031836  1
  N  N38  1  0.91536946  0.19436737  0.90114765  1
  N  N39  1  0.74942945  0.10600631  0.64367302  1
  N  N40  1  0.56437451  0.22717982  0.30802814  1
  N  N41  1  0.42417003  0.12710366  0.07312146  1
  N  N42  1  0.21072833  0.21031055  0.84115917  1
  N  N43  1  0.13166604  0.07684748  0.64483453  1
  N  N44  1  0.89448646  0.20000527  0.34623186  1
  N  N45  1  0.78257297  0.08808192  0.10874466  1
  N  N46  1  0.49878842  0.23665463  0.82700693  1
  N  N47  1  0.44309516  0.08986477  0.60582903  1
  N  N48  1  0.22143277  0.54237421  0.38367122  1
  N  N49  1  0.11753414  0.43268467  0.13125615  1
  N  N50  1  0.90496972  0.54946935  0.89111947  1
  N  N51  1  0.75136353  0.43819770  0.64400848  1
  N  N52  1  0.57097787  0.53316897  0.35322297  1
  N  N53  1  0.43258844  0.41606518  0.06199759  1
  N  N54  1  0.20180614  0.55245485  0.88845619  1
  N  N55  1  0.13819052  0.42191082  0.64530248  1
  N  N56  1  0.89901210  0.53624503  0.35888795  1
  N  N57  1  0.80787569  0.41771309  0.12143959  1
  N  N58  1  0.49549093  0.56627840  0.82136150  1
  N  N59  1  0.45167683  0.41924938  0.57433015  1
  N  N60  1  0.22389018  0.87197078  0.38734062  1
  N  N61  1  0.12210388  0.75633813  0.13401557  1
  N  N62  1  0.90693863  0.84363393  0.89056475  1
  N  N63  1  0.75818882  0.77049679  0.66071201  1
  N  N64  1  0.57546806  0.84211868  0.32721662  1
  N  N65  1  0.41939235  0.76637705  0.05838270  1
  N  N66  1  0.19911473  0.88085852  0.88140883  1
  N  N67  1  0.14242899  0.74460045  0.64047645  1
  N  N68  1  0.89022205  0.87661887  0.35174735  1
  N  N69  1  0.81896025  0.74007738  0.12679520  1
  N  N70  1  0.53855411  0.88174845  0.85120730  1
  N  N71  1  0.45288906  0.76136979  0.58476368  1
