# generated using pymatgen
data_Gd2Al7N9
_symmetry_space_group_name_H-M   'P 1'
_cell_length_a   9.97040234
_cell_length_b   9.86310038
_cell_length_c   10.28951995
_cell_angle_alpha   90.05060301
_cell_angle_beta   89.86693146
_cell_angle_gamma   60.51060302
_symmetry_Int_Tables_number   1
_chemical_formula_structural   Gd2Al7N9
_chemical_formula_sum   'Gd8 Al28 N36'
_cell_volume   880.76721181
_cell_formula_units_Z   4
loop_
 _symmetry_equiv_pos_site_id
 _symmetry_equiv_pos_as_xyz
  1  'x, y, z'
loop_
 _atom_site_type_symbol
 _atom_site_label
 _atom_site_symmetry_multiplicity
 _atom_site_fract_x
 _atom_site_fract_y
 _atom_site_fract_z
 _atom_site_occupancy
  Al  Al0  1  0.12264317  0.08949058  0.39685549  1
  Al  Al1  1  0.21473062  0.21271792  0.14511840  1
  Al  Al2  1  0.53397295  0.22339003  0.15453596  1
  Al  Al3  1  0.11385811  0.09084840  0.90706717  1
  Al  Al4  1  0.23067379  0.19928129  0.66116191  1
  Al  Al5  1  0.76648135  0.10712430  0.38073099  1
  Al  Al6  1  0.90174688  0.20221940  0.17304635  1
  Al  Al7  1  0.42756637  0.11420786  0.89315125  1
  Al  Al8  1  0.53833408  0.21764121  0.65814132  1
  Al  Al9  1  0.12633884  0.41943202  0.39772474  1
  Al  Al10  1  0.21588374  0.53987244  0.14948519  1
  Al  Al11  1  0.43949876  0.43394213  0.41350116  1
  Al  Al12  1  0.11189208  0.43331739  0.90775865  1
  Al  Al13  1  0.23383640  0.53342781  0.65162168  1
  Al  Al14  1  0.76912742  0.43246150  0.40594451  1
  Al  Al15  1  0.91074298  0.52510604  0.17134757  1
  Al  Al16  1  0.42208387  0.43863697  0.89693865  1
  Al  Al17  1  0.53707775  0.54713450  0.64925423  1
  Al  Al18  1  0.13092582  0.75265584  0.39958816  1
  Al  Al19  1  0.21517547  0.87676258  0.15045121  1
  Al  Al20  1  0.78716253  0.75695735  0.87762949  1
  Al  Al21  1  0.44520530  0.76108432  0.41636883  1
  Al  Al22  1  0.11116819  0.75838919  0.90336407  1
  Al  Al23  1  0.23204720  0.86800690  0.65021677  1
  Al  Al24  1  0.77811592  0.75486895  0.37569403  1
  Al  Al25  1  0.90718729  0.86327199  0.17360981  1
  Al  Al26  1  0.42212056  0.76549162  0.89391029  1
  Al  Al27  1  0.54715711  0.87295301  0.66488490  1
  Gd  Gd28  1  0.77021945  0.09134002  0.92088273  1
  Gd  Gd29  1  0.89272453  0.19562639  0.62821864  1
  Gd  Gd30  1  0.44490216  0.09376493  0.41456103  1
  Gd  Gd31  1  0.77244228  0.43531985  0.90494677  1
  Gd  Gd32  1  0.90118724  0.53540888  0.62734653  1
  Gd  Gd33  1  0.54421213  0.54093355  0.16071787  1
  Gd  Gd34  1  0.88802299  0.87506305  0.62022815  1
  Gd  Gd35  1  0.56107228  0.87218568  0.12417415  1
  N  N36  1  0.20274241  0.21502912  0.32847358  1
  N  N37  1  0.10917805  0.09374046  0.09755128  1
  N  N38  1  0.91044909  0.19007711  0.84743868  1
  N  N39  1  0.72688555  0.11868700  0.56878761  1
  N  N40  1  0.55199939  0.23411984  0.33410376  1
  N  N41  1  0.42530890  0.12683943  0.08486473  1
  N  N42  1  0.21071263  0.21202782  0.84994455  1
  N  N43  1  0.15217295  0.07622944  0.58047636  1
  N  N44  1  0.89642630  0.20419761  0.36392407  1
  N  N45  1  0.78049231  0.09303408  0.14235875  1
  N  N46  1  0.52704296  0.22781653  0.84107762  1
  N  N47  1  0.44358716  0.08999399  0.63563317  1
  N  N48  1  0.22700119  0.53792514  0.33791834  1
  N  N49  1  0.11161487  0.42858185  0.09560393  1
  N  N50  1  0.90562703  0.54763210  0.84948393  1
  N  N51  1  0.74505856  0.44327647  0.59443523  1
  N  N52  1  0.54746863  0.54439969  0.37612250  1
  N  N53  1  0.42134790  0.42425219  0.08114386  1
  N  N54  1  0.21288090  0.54413323  0.84153790  1
  N  N55  1  0.16067276  0.39941378  0.58070040  1
  N  N56  1  0.90137334  0.52838438  0.36662253  1
  N  N57  1  0.80418652  0.41574793  0.12689608  1
  N  N58  1  0.51919421  0.55465994  0.83840045  1
  N  N59  1  0.44016319  0.42830755  0.59811417  1
  N  N60  1  0.22982438  0.86980802  0.33968374  1
  N  N61  1  0.11116217  0.76306818  0.09647704  1
  N  N62  1  0.90239309  0.85167017  0.84702688  1
  N  N63  1  0.74013486  0.77798842  0.58456428  1
  N  N64  1  0.56297487  0.84544436  0.34519986  1
  N  N65  1  0.40945530  0.77466854  0.07407835  1
  N  N66  1  0.21142540  0.87843931  0.83878591  1
  N  N67  1  0.15113402  0.74076532  0.58283918  1
  N  N68  1  0.90154067  0.86896224  0.36381857  1
  N  N69  1  0.81772905  0.73959372  0.14258246  1
  N  N70  1  0.56047403  0.86761207  0.86017683  1
  N  N71  1  0.44222260  0.76579794  0.60482760  1
