# generated using pymatgen
data_Gd2Al7N9
_symmetry_space_group_name_H-M   'P 1'
_cell_length_a   9.93987745
_cell_length_b   9.83071329
_cell_length_c   10.35886520
_cell_angle_alpha   90.29136851
_cell_angle_beta   89.81277904
_cell_angle_gamma   60.26549690
_symmetry_Int_Tables_number   1
_chemical_formula_structural   Gd2Al7N9
_chemical_formula_sum   'Gd8 Al28 N36'
_cell_volume   878.91985502
_cell_formula_units_Z   4
loop_
 _symmetry_equiv_pos_site_id
 _symmetry_equiv_pos_as_xyz
  1  'x, y, z'
loop_
 _atom_site_type_symbol
 _atom_site_label
 _atom_site_symmetry_multiplicity
 _atom_site_fract_x
 _atom_site_fract_y
 _atom_site_fract_z
 _atom_site_occupancy
  Al  Al0  1  0.10607529  0.09638418  0.28718741  1
  Al  Al1  1  0.21811524  0.21011213  0.04113901  1
  Al  Al2  1  0.52694442  0.21838906  0.04358012  1
  Al  Al3  1  0.12912342  0.08425565  0.80563558  1
  Al  Al4  1  0.22590038  0.20348712  0.55928293  1
  Al  Al5  1  0.77019786  0.09962947  0.27292624  1
  Al  Al6  1  0.90280333  0.20211124  0.05746850  1
  Al  Al7  1  0.43547874  0.10163219  0.78568885  1
  Al  Al8  1  0.55558047  0.21375689  0.54622127  1
  Al  Al9  1  0.10383567  0.43098058  0.28804881  1
  Al  Al10  1  0.21643208  0.53679184  0.04856398  1
  Al  Al11  1  0.43681432  0.42949194  0.30339873  1
  Al  Al12  1  0.12694397  0.42552584  0.80461464  1
  Al  Al13  1  0.23533636  0.53312703  0.55125832  1
  Al  Al14  1  0.77869169  0.43064162  0.27820165  1
  Al  Al15  1  0.90490638  0.53611740  0.04620493  1
  Al  Al16  1  0.42803874  0.43729633  0.78984535  1
  Al  Al17  1  0.54938947  0.53959082  0.53749885  1
  Al  Al18  1  0.11099547  0.76305511  0.28973323  1
  Al  Al19  1  0.21516596  0.87774006  0.04846247  1
  Al  Al20  1  0.78706838  0.75670625  0.79810390  1
  Al  Al21  1  0.43666543  0.76256560  0.30905960  1
  Al  Al22  1  0.12742209  0.75079062  0.80522047  1
  Al  Al23  1  0.23356515  0.86649341  0.55238087  1
  Al  Al24  1  0.78217259  0.75630680  0.28370630  1
  Al  Al25  1  0.90140508  0.85898915  0.04860683  1
  Al  Al26  1  0.43613525  0.76423274  0.78259320  1
  Al  Al27  1  0.55804577  0.86498329  0.55318000  1
  Gd  Gd28  1  0.77267138  0.09397629  0.82501674  1
  Gd  Gd29  1  0.90277136  0.19467248  0.52700374  1
  Gd  Gd30  1  0.43185750  0.10104338  0.31848063  1
  Gd  Gd31  1  0.77818044  0.43029765  0.80661991  1
  Gd  Gd32  1  0.90513878  0.53045967  0.53908341  1
  Gd  Gd33  1  0.53647626  0.54193039  0.05926225  1
  Gd  Gd34  1  0.89869530  0.86751402  0.54442010  1
  Gd  Gd35  1  0.55166856  0.87385618  0.04240693  1
  N  N36  1  0.17191118  0.22980124  0.37443813  1
  N  N37  1  0.11882191  0.09327366  0.10450283  1
  N  N38  1  0.92783675  0.18699801  0.87374955  1
  N  N39  1  0.75626948  0.10833255  0.60865237  1
  N  N40  1  0.57090868  0.21934248  0.36029441  1
  N  N41  1  0.42271356  0.11833090  0.10242561  1
  N  N42  1  0.22618946  0.20379498  0.85543817  1
  N  N43  1  0.14502942  0.07558298  0.62223638  1
  N  N44  1  0.88358234  0.20584018  0.30578026  1
  N  N45  1  0.76410606  0.09760497  0.08326137  1
  N  N46  1  0.51271637  0.23002606  0.85867316  1
  N  N47  1  0.44696845  0.09506471  0.58891324  1
  N  N48  1  0.21225829  0.54276491  0.36025995  1
  N  N49  1  0.11391919  0.42441250  0.10251272  1
  N  N50  1  0.91227597  0.54686000  0.85820924  1
  N  N51  1  0.75615102  0.43515935  0.58862324  1
  N  N52  1  0.55068798  0.53894754  0.34261177  1
  N  N53  1  0.41659328  0.41711704  0.12265510  1
  N  N54  1  0.22550873  0.53931251  0.86377410  1
  N  N55  1  0.14994630  0.41168021  0.62245776  1
  N  N56  1  0.88740856  0.54027762  0.32353055  1
  N  N57  1  0.79719765  0.42461419  0.09053537  1
  N  N58  1  0.52113277  0.55680024  0.84265095  1
  N  N59  1  0.44603805  0.42870028  0.59995771  1
  N  N60  1  0.20942769  0.88084783  0.36374514  1
  N  N61  1  0.11526366  0.75969747  0.10389964  1
  N  N62  1  0.91359511  0.83978064  0.86023455  1
  N  N63  1  0.76093862  0.76762473  0.61757854  1
  N  N64  1  0.57465419  0.84124136  0.36064062  1
  N  N65  1  0.40748979  0.78484732  0.13052102  1
  N  N66  1  0.23038635  0.86896257  0.86172436  1
  N  N67  1  0.14784617  0.74317688  0.61987625  1
  N  N68  1  0.88576347  0.87800846  0.32374701  1
  N  N69  1  0.80225295  0.74814348  0.10199103  1
  N  N70  1  0.55282898  0.87499076  0.82509207  1
  N  N71  1  0.44667298  0.75710490  0.59470012  1
