# generated using pymatgen
data_Gd2Al7N9
_symmetry_space_group_name_H-M   'P 1'
_cell_length_a   9.93299871
_cell_length_b   9.83957272
_cell_length_c   10.68628372
_cell_angle_alpha   90.38000786
_cell_angle_beta   90.19376932
_cell_angle_gamma   60.38655942
_symmetry_Int_Tables_number   1
_chemical_formula_structural   Gd2Al7N9
_chemical_formula_sum   'Gd8 Al28 N36'
_cell_volume   907.99389332
_cell_formula_units_Z   4
loop_
 _symmetry_equiv_pos_site_id
 _symmetry_equiv_pos_as_xyz
  1  'x, y, z'
loop_
 _atom_site_type_symbol
 _atom_site_label
 _atom_site_symmetry_multiplicity
 _atom_site_fract_x
 _atom_site_fract_y
 _atom_site_fract_z
 _atom_site_occupancy
  Al  Al0  1  0.12758187  0.08394373  0.38695704  1
  Al  Al1  1  0.21654421  0.21203991  0.14365872  1
  Al  Al2  1  0.54050166  0.21930304  0.13846164  1
  Al  Al3  1  0.11870580  0.09128445  0.90103546  1
  Al  Al4  1  0.22384140  0.20116236  0.64940983  1
  Al  Al5  1  0.79527152  0.08856571  0.29749830  1
  Al  Al6  1  0.90254976  0.20054348  0.08252130  1
  Al  Al7  1  0.41617165  0.11709564  0.89534444  1
  Al  Al8  1  0.52577268  0.21931675  0.66100122  1
  Al  Al9  1  0.12359756  0.42054506  0.37607748  1
  Al  Al10  1  0.21269057  0.54550335  0.07321244  1
  Al  Al11  1  0.46897450  0.42113276  0.40118497  1
  Al  Al12  1  0.11215791  0.42465527  0.89549678  1
  Al  Al13  1  0.23179088  0.53347410  0.56881854  1
  Al  Al14  1  0.80421204  0.41650294  0.31133076  1
  Al  Al15  1  0.90516656  0.53498715  0.08041160  1
  Al  Al16  1  0.41618497  0.44138490  0.89211321  1
  Al  Al17  1  0.52431449  0.55255088  0.65202100  1
  Al  Al18  1  0.12166172  0.75181885  0.31895181  1
  Al  Al19  1  0.21955419  0.88146660  0.14652919  1
  Al  Al20  1  0.78742174  0.75783937  0.83963487  1
  Al  Al21  1  0.46282121  0.75086392  0.40615682  1
  Al  Al22  1  0.11678808  0.75156002  0.82121873  1
  Al  Al23  1  0.22921785  0.87550175  0.64316012  1
  Al  Al24  1  0.80078667  0.74630922  0.30705220  1
  Al  Al25  1  0.91403442  0.85379425  0.07468260  1
  Al  Al26  1  0.40924600  0.77677230  0.88978372  1
  Al  Al27  1  0.53864928  0.87991043  0.67149273  1
  Gd  Gd28  1  0.76039081  0.09576970  0.86507043  1
  Gd  Gd29  1  0.86596774  0.21440420  0.57162451  1
  Gd  Gd30  1  0.45790072  0.08824137  0.39971078  1
  Gd  Gd31  1  0.75288669  0.44567836  0.86175711  1
  Gd  Gd32  1  0.87722113  0.54277710  0.57983581  1
  Gd  Gd33  1  0.53615001  0.54780962  0.14902515  1
  Gd  Gd34  1  0.88603507  0.87167931  0.57501270  1
  Gd  Gd35  1  0.55849304  0.87366672  0.10801219  1
  N  N36  1  0.21074569  0.20994224  0.32217260  1
  N  N37  1  0.12400271  0.08937471  0.08707948  1
  N  N38  1  0.90580703  0.19933646  0.90272018  1
  N  N39  1  0.74319658  0.10476954  0.64954955  1
  N  N40  1  0.57250507  0.22185947  0.31611995  1
  N  N41  1  0.42419314  0.12765922  0.07900399  1
  N  N42  1  0.20677448  0.21132391  0.83473928  1
  N  N43  1  0.13641739  0.08098634  0.57172348  1
  N  N44  1  0.90242534  0.19624458  0.35214209  1
  N  N45  1  0.78489020  0.08649576  0.11427250  1
  N  N46  1  0.49737821  0.23877066  0.83444653  1
  N  N47  1  0.44097036  0.08902834  0.61325980  1
  N  N48  1  0.23249666  0.53991816  0.38089394  1
  N  N49  1  0.11919242  0.41954272  0.08897180  1
  N  N50  1  0.89619130  0.55296533  0.89641551  1
  N  N51  1  0.74162936  0.44499662  0.65312060  1
  N  N52  1  0.57534488  0.53127840  0.36057843  1
  N  N53  1  0.43215761  0.41831401  0.07166165  1
  N  N54  1  0.20253297  0.55266177  0.89064632  1
  N  N55  1  0.14078807  0.40540769  0.58143901  1
  N  N56  1  0.90336021  0.53324748  0.36198188  1
  N  N57  1  0.80215678  0.41969079  0.12767841  1
  N  N58  1  0.48915510  0.57097674  0.83014358  1
  N  N59  1  0.45204774  0.41853688  0.58027910  1
  N  N60  1  0.24167707  0.86521896  0.33157132  1
  N  N61  1  0.12005994  0.75510442  0.13853175  1
  N  N62  1  0.91201296  0.84253229  0.89348087  1
  N  N63  1  0.75413790  0.77464961  0.66589414  1
  N  N64  1  0.58027026  0.83812046  0.33227884  1
  N  N65  1  0.40539665  0.77740485  0.06282792  1
  N  N66  1  0.20767012  0.89174772  0.82493150  1
  N  N67  1  0.13978990  0.73811994  0.64006877  1
  N  N68  1  0.89601385  0.87268619  0.35800046  1
  N  N69  1  0.81974709  0.74167230  0.13142142  1
  N  N70  1  0.53973097  0.88228823  0.85982277  1
  N  N71  1  0.44368151  0.76531537  0.59047312  1
