# generated using pymatgen
data_Gd2Al7N9
_symmetry_space_group_name_H-M   'P 1'
_cell_length_a   9.87586471
_cell_length_b   9.83362629
_cell_length_c   10.79855797
_cell_angle_alpha   90.18637461
_cell_angle_beta   89.36815388
_cell_angle_gamma   60.13805878
_symmetry_Int_Tables_number   1
_chemical_formula_structural   Gd2Al7N9
_chemical_formula_sum   'Gd8 Al28 N36'
_cell_volume   909.36710479
_cell_formula_units_Z   4
loop_
 _symmetry_equiv_pos_site_id
 _symmetry_equiv_pos_as_xyz
  1  'x, y, z'
loop_
 _atom_site_type_symbol
 _atom_site_label
 _atom_site_symmetry_multiplicity
 _atom_site_fract_x
 _atom_site_fract_y
 _atom_site_fract_z
 _atom_site_occupancy
  Al  Al0  1  0.11592020  0.08212348  0.30887101  1
  Al  Al1  1  0.21954542  0.21051069  0.13663727  1
  Al  Al2  1  0.54001704  0.21903874  0.13033317  1
  Al  Al3  1  0.11102848  0.08757404  0.82463623  1
  Al  Al4  1  0.23410024  0.19836291  0.65992181  1
  Al  Al5  1  0.78846295  0.09242146  0.28992356  1
  Al  Al6  1  0.90871915  0.19771202  0.07405023  1
  Al  Al7  1  0.41616470  0.11699387  0.89328015  1
  Al  Al8  1  0.52994868  0.21903652  0.65351491  1
  Al  Al9  1  0.11459451  0.43664147  0.30996870  1
  Al  Al10  1  0.21093316  0.54323138  0.06411810  1
  Al  Al11  1  0.46390356  0.42375327  0.39564573  1
  Al  Al12  1  0.11362389  0.43686611  0.82480338  1
  Al  Al13  1  0.22868348  0.53548346  0.57012855  1
  Al  Al14  1  0.80143336  0.41933068  0.30440291  1
  Al  Al15  1  0.91289589  0.53226130  0.06900405  1
  Al  Al16  1  0.41839350  0.43967368  0.88449090  1
  Al  Al17  1  0.53014659  0.54907637  0.64418150  1
  Al  Al18  1  0.12104937  0.75911190  0.31473181  1
  Al  Al19  1  0.20439749  0.87825159  0.05948654  1
  Al  Al20  1  0.78607556  0.75732967  0.83300362  1
  Al  Al21  1  0.46933168  0.74761911  0.40261507  1
  Al  Al22  1  0.11742155  0.75422337  0.81910980  1
  Al  Al23  1  0.22889311  0.86990110  0.57386183  1
  Al  Al24  1  0.79817711  0.74834132  0.30055431  1
  Al  Al25  1  0.90985811  0.85523227  0.06953505  1
  Al  Al26  1  0.42017525  0.76971660  0.88314554  1
  Al  Al27  1  0.53974344  0.87902492  0.66419660  1
  Gd  Gd28  1  0.76282918  0.09649899  0.85761235  1
  Gd  Gd29  1  0.88348870  0.20524260  0.56147482  1
  Gd  Gd30  1  0.45007056  0.09346358  0.39320474  1
  Gd  Gd31  1  0.76195675  0.44096812  0.85157118  1
  Gd  Gd32  1  0.88761157  0.53843880  0.57049442  1
  Gd  Gd33  1  0.53921820  0.54051041  0.14200696  1
  Gd  Gd34  1  0.88701583  0.87153981  0.56721833  1
  Gd  Gd35  1  0.55675663  0.87266915  0.10836054  1
  N  N36  1  0.20719843  0.21320402  0.31882386  1
  N  N37  1  0.11936552  0.08180918  0.12892412  1
  N  N38  1  0.91539292  0.19434642  0.89975404  1
  N  N39  1  0.74945279  0.10598575  0.64228013  1
  N  N40  1  0.56439745  0.22715902  0.30663599  1
  N  N41  1  0.42419288  0.12708339  0.07172974  1
  N  N42  1  0.21075171  0.21028968  0.83976471  1
  N  N43  1  0.13168944  0.07682706  0.64343950  1
  N  N44  1  0.89450994  0.19998421  0.34483867  1
  N  N45  1  0.78259581  0.08806183  0.10735215  1
  N  N46  1  0.49881160  0.23663370  0.82561414  1
  N  N47  1  0.44311902  0.08984385  0.60443563  1
  N  N48  1  0.22145602  0.54235352  0.38227819  1
  N  N49  1  0.11755750  0.43266409  0.12986316  1
  N  N50  1  0.90499357  0.54944805  0.88972728  1
  N  N51  1  0.75138680  0.43817736  0.64261583  1
  N  N52  1  0.57100114  0.53314787  0.35182991  1
  N  N53  1  0.43261152  0.41604439  0.06060469  1
  N  N54  1  0.20182955  0.55243372  0.88706240  1
  N  N55  1  0.13821299  0.42189047  0.64390845  1
  N  N56  1  0.89903497  0.53622456  0.35749433  1
  N  N57  1  0.80789861  0.41769218  0.12004665  1
  N  N58  1  0.49551431  0.56625735  0.81996837  1
  N  N59  1  0.45169988  0.41922904  0.57293742  1
  N  N60  1  0.22391395  0.87194948  0.38594627  1
  N  N61  1  0.12212739  0.75631747  0.13262181  1
  N  N62  1  0.90696217  0.84361347  0.88917347  1
  N  N63  1  0.75821240  0.77047636  0.65932139  1
  N  N64  1  0.57549110  0.84209759  0.32582253  1
  N  N65  1  0.41941529  0.76635570  0.05698755  1
  N  N66  1  0.19913776  0.88083826  0.88001375  1
  N  N67  1  0.14245148  0.74458050  0.63908321  1
  N  N68  1  0.89024524  0.87659774  0.35035363  1
  N  N69  1  0.81898271  0.74005686  0.12540116  1
  N  N70  1  0.53857695  0.88172851  0.84981553  1
  N  N71  1  0.45291257  0.76134938  0.58337046  1
