# generated using pymatgen
data_Gd2Al7N9
_symmetry_space_group_name_H-M   'P 1'
_cell_length_a   9.89037718
_cell_length_b   9.82694019
_cell_length_c   10.80464903
_cell_angle_alpha   89.99677435
_cell_angle_beta   89.45017935
_cell_angle_gamma   60.15709168
_symmetry_Int_Tables_number   1
_chemical_formula_structural   Gd2Al7N9
_chemical_formula_sum   'Gd8 Al28 N36'
_cell_volume   910.81743447
_cell_formula_units_Z   4
loop_
 _symmetry_equiv_pos_site_id
 _symmetry_equiv_pos_as_xyz
  1  'x, y, z'
loop_
 _atom_site_type_symbol
 _atom_site_label
 _atom_site_symmetry_multiplicity
 _atom_site_fract_x
 _atom_site_fract_y
 _atom_site_fract_z
 _atom_site_occupancy
  Al  Al0  1  0.12070502  0.08097233  0.33105572  1
  Al  Al1  1  0.22142627  0.20950773  0.14203240  1
  Al  Al2  1  0.53990884  0.21762423  0.13714877  1
  Al  Al3  1  0.11120167  0.09973031  0.89394397  1
  Al  Al4  1  0.22619589  0.19455257  0.66265588  1
  Al  Al5  1  0.78919196  0.08782069  0.29611424  1
  Al  Al6  1  0.89790458  0.20361570  0.09001059  1
  Al  Al7  1  0.41904213  0.11534421  0.89791234  1
  Al  Al8  1  0.52729660  0.21905684  0.66110327  1
  Al  Al9  1  0.11689772  0.43370300  0.31587944  1
  Al  Al10  1  0.21071294  0.54206166  0.06966552  1
  Al  Al11  1  0.46513171  0.42090106  0.40385319  1
  Al  Al12  1  0.11410623  0.43758591  0.82972271  1
  Al  Al13  1  0.22897898  0.53512279  0.57720381  1
  Al  Al14  1  0.80236142  0.42027381  0.31017092  1
  Al  Al15  1  0.91283243  0.53265455  0.07554521  1
  Al  Al16  1  0.41798052  0.44050041  0.89157054  1
  Al  Al17  1  0.52711550  0.55189401  0.65124907  1
  Al  Al18  1  0.12350139  0.75474189  0.32025770  1
  Al  Al19  1  0.20743813  0.87233777  0.07028751  1
  Al  Al20  1  0.78786999  0.75728075  0.83914573  1
  Al  Al21  1  0.47318389  0.74381070  0.40926406  1
  Al  Al22  1  0.11837072  0.75648811  0.82423213  1
  Al  Al23  1  0.22749813  0.87404385  0.57307091  1
  Al  Al24  1  0.80112187  0.74586511  0.30765213  1
  Al  Al25  1  0.90971743  0.85512215  0.07475884  1
  Al  Al26  1  0.41870248  0.77201100  0.89016971  1
  Al  Al27  1  0.54020995  0.87864958  0.67082099  1
  Gd  Gd28  1  0.76398835  0.09792497  0.86090446  1
  Gd  Gd29  1  0.87093806  0.21309756  0.56195640  1
  Gd  Gd30  1  0.45131112  0.09012796  0.40305121  1
  Gd  Gd31  1  0.75658614  0.44775064  0.85895354  1
  Gd  Gd32  1  0.88867235  0.53680764  0.57839343  1
  Gd  Gd33  1  0.53603626  0.54121766  0.15233332  1
  Gd  Gd34  1  0.88829205  0.87123018  0.57474811  1
  Gd  Gd35  1  0.55836105  0.87190724  0.11594052  1
  N  N36  1  0.21180345  0.20881349  0.32078463  1
  N  N37  1  0.11990713  0.08762176  0.11360921  1
  N  N38  1  0.90263661  0.20512474  0.91480065  1
  N  N39  1  0.74667098  0.10497952  0.64819473  1
  N  N40  1  0.56534085  0.22407740  0.31472511  1
  N  N41  1  0.42498463  0.12608342  0.07638217  1
  N  N42  1  0.21080269  0.20808486  0.84507461  1
  N  N43  1  0.12631190  0.09000310  0.60253994  1
  N  N44  1  0.89786896  0.19647041  0.34186056  1
  N  N45  1  0.78053025  0.08635819  0.11547141  1
  N  N46  1  0.49953665  0.23724549  0.83325369  1
  N  N47  1  0.44065374  0.09066770  0.61431956  1
  N  N48  1  0.22390808  0.53844543  0.38837174  1
  N  N49  1  0.11766262  0.43191294  0.13584317  1
  N  N50  1  0.90666843  0.54905113  0.89656419  1
  N  N51  1  0.74775560  0.44249862  0.65162243  1
  N  N52  1  0.57576081  0.52811928  0.36183107  1
  N  N53  1  0.43228465  0.41575729  0.06776214  1
  N  N54  1  0.20174415  0.55338927  0.89293710  1
  N  N55  1  0.13892698  0.42140969  0.65134946  1
  N  N56  1  0.90259859  0.53293701  0.36482965  1
  N  N57  1  0.80262065  0.42401935  0.12903264  1
  N  N58  1  0.49083341  0.57025391  0.82647234  1
  N  N59  1  0.45145513  0.41925145  0.58056996  1
  N  N60  1  0.23250573  0.86154309  0.38356548  1
  N  N61  1  0.12167391  0.75444770  0.13901336  1
  N  N62  1  0.90791405  0.84459145  0.89499876  1
  N  N63  1  0.75879903  0.76983068  0.66582131  1
  N  N64  1  0.57907884  0.83932400  0.33333330  1
  N  N65  1  0.42081809  0.76570152  0.06429576  1
  N  N66  1  0.19761432  0.88385436  0.88837408  1
  N  N67  1  0.14429620  0.74594995  0.64404032  1
  N  N68  1  0.89362973  0.87320190  0.35780197  1
  N  N69  1  0.82017268  0.73974256  0.13233293  1
  N  N70  1  0.53980150  0.88056907  0.85664314  1
  N  N71  1  0.45153020  0.76329550  0.58901358  1
