# generated using pymatgen
data_Gd2Al7N9
_symmetry_space_group_name_H-M   'P 1'
_cell_length_a   9.99702683
_cell_length_b   9.87087466
_cell_length_c   10.46583083
_cell_angle_alpha   90.19098712
_cell_angle_beta   90.44464963
_cell_angle_gamma   60.66996885
_symmetry_Int_Tables_number   1
_chemical_formula_structural   Gd2Al7N9
_chemical_formula_sum   'Gd8 Al28 N36'
_cell_volume   900.34763718
_cell_formula_units_Z   4
loop_
 _symmetry_equiv_pos_site_id
 _symmetry_equiv_pos_as_xyz
  1  'x, y, z'
loop_
 _atom_site_type_symbol
 _atom_site_label
 _atom_site_symmetry_multiplicity
 _atom_site_fract_x
 _atom_site_fract_y
 _atom_site_fract_z
 _atom_site_occupancy
  Al  Al0  1  0.12457681  0.08762825  0.38734735  1
  Al  Al1  1  0.21394020  0.21370417  0.14268799  1
  Al  Al2  1  0.53627544  0.22170380  0.13803564  1
  Al  Al3  1  0.11903666  0.09176485  0.89630701  1
  Al  Al4  1  0.22849511  0.19939587  0.64744651  1
  Al  Al5  1  0.79092962  0.09137063  0.30131772  1
  Al  Al6  1  0.90470087  0.19899198  0.08999538  1
  Al  Al7  1  0.41698531  0.11727477  0.89563742  1
  Al  Al8  1  0.52705096  0.22065786  0.66083748  1
  Al  Al9  1  0.12651186  0.41894601  0.39182402  1
  Al  Al10  1  0.22064892  0.52958284  0.14601439  1
  Al  Al11  1  0.45579062  0.42676832  0.40048289  1
  Al  Al12  1  0.11763618  0.42534882  0.89327989  1
  Al  Al13  1  0.23187644  0.52617346  0.64064507  1
  Al  Al14  1  0.80070624  0.41955740  0.31738121  1
  Al  Al15  1  0.90925430  0.53321453  0.07680527  1
  Al  Al16  1  0.40665948  0.44407035  0.89396225  1
  Al  Al17  1  0.52222846  0.55478649  0.65333260  1
  Al  Al18  1  0.11930802  0.75834009  0.32367366  1
  Al  Al19  1  0.21961791  0.88195118  0.14658899  1
  Al  Al20  1  0.78870547  0.75716198  0.84053709  1
  Al  Al21  1  0.46258363  0.75094881  0.40514026  1
  Al  Al22  1  0.11471220  0.75762587  0.81867998  1
  Al  Al23  1  0.23046076  0.87677082  0.63918833  1
  Al  Al24  1  0.80204388  0.74205202  0.31056116  1
  Al  Al25  1  0.91971223  0.84802947  0.07688292  1
  Al  Al26  1  0.41028034  0.77683573  0.89141799  1
  Al  Al27  1  0.53858065  0.88094325  0.67060122  1
  Gd  Gd28  1  0.76127714  0.09301393  0.86916392  1
  Gd  Gd29  1  0.87337797  0.21309036  0.58640653  1
  Gd  Gd30  1  0.45526538  0.08747084  0.39526281  1
  Gd  Gd31  1  0.75183243  0.44412510  0.86693365  1
  Gd  Gd32  1  0.88156499  0.54133725  0.59368918  1
  Gd  Gd33  1  0.53818910  0.54542657  0.14264080  1
  Gd  Gd34  1  0.88178872  0.87590274  0.57397624  1
  Gd  Gd35  1  0.56276178  0.87267901  0.10687282  1
  N  N36  1  0.20562034  0.21423020  0.32337278  1
  N  N37  1  0.12143657  0.09082220  0.08530219  1
  N  N38  1  0.90917847  0.19609346  0.88403151  1
  N  N39  1  0.73975006  0.10865723  0.64688419  1
  N  N40  1  0.57081376  0.22287323  0.31838188  1
  N  N41  1  0.42226869  0.12661705  0.08375436  1
  N  N42  1  0.21006809  0.21048680  0.83416743  1
  N  N43  1  0.14066807  0.08229192  0.57262821  1
  N  N44  1  0.90049880  0.19752039  0.35319944  1
  N  N45  1  0.78428091  0.08848171  0.11316337  1
  N  N46  1  0.50144282  0.23771763  0.83968347  1
  N  N47  1  0.44272245  0.09007072  0.61287625  1
  N  N48  1  0.23525255  0.52834888  0.33381931  1
  N  N49  1  0.12255499  0.42087125  0.08035562  1
  N  N50  1  0.90027357  0.54873658  0.88771032  1
  N  N51  1  0.73580387  0.44916360  0.65227810  1
  N  N52  1  0.56829324  0.53335948  0.35795489  1
  N  N53  1  0.41885013  0.42371298  0.07461665  1
  N  N54  1  0.20844262  0.53688228  0.82626109  1
  N  N55  1  0.14780488  0.40366951  0.57638709  1
  N  N56  1  0.90321356  0.53208362  0.37142759  1
  N  N57  1  0.80510939  0.41902284  0.12561633  1
  N  N58  1  0.48924385  0.57004672  0.83807107  1
  N  N59  1  0.44037060  0.42684655  0.58398094  1
  N  N60  1  0.23927230  0.86890482  0.33477254  1
  N  N61  1  0.12168651  0.75650392  0.13722522  1
  N  N62  1  0.91680156  0.83843343  0.89298616  1
  N  N63  1  0.75116937  0.77768005  0.66423958  1
  N  N64  1  0.58297753  0.83592559  0.33356538  1
  N  N65  1  0.40654239  0.78078327  0.06813433  1
  N  N66  1  0.21099384  0.88966249  0.82553710  1
  N  N67  1  0.13404459  0.74958361  0.63047738  1
  N  N68  1  0.89527397  0.87274738  0.35555637  1
  N  N69  1  0.82367355  0.73672519  0.13094880  1
  N  N70  1  0.54154276  0.88212989  0.86181162  1
  N  N71  1  0.44334146  0.76673853  0.59202585  1
