# generated using pymatgen
data_Gd2Al7N9
_symmetry_space_group_name_H-M   'P 1'
_cell_length_a   10.08116874
_cell_length_b   9.87843864
_cell_length_c   10.21285918
_cell_angle_alpha   90.09084155
_cell_angle_beta   90.58979368
_cell_angle_gamma   60.86176883
_symmetry_Int_Tables_number   1
_chemical_formula_structural   Gd2Al7N9
_chemical_formula_sum   'Gd8 Al28 N36'
_cell_volume   888.29454655
_cell_formula_units_Z   4
loop_
 _symmetry_equiv_pos_site_id
 _symmetry_equiv_pos_as_xyz
  1  'x, y, z'
loop_
 _atom_site_type_symbol
 _atom_site_label
 _atom_site_symmetry_multiplicity
 _atom_site_fract_x
 _atom_site_fract_y
 _atom_site_fract_z
 _atom_site_occupancy
  Al  Al0  1  0.12740902  0.08595400  0.40110619  1
  Al  Al1  1  0.21482830  0.21179241  0.14903923  1
  Al  Al2  1  0.52950945  0.22523209  0.15555101  1
  Al  Al3  1  0.11342696  0.09080133  0.90474967  1
  Al  Al4  1  0.22616981  0.20255172  0.66071175  1
  Al  Al5  1  0.77557314  0.10026426  0.35704427  1
  Al  Al6  1  0.91008047  0.19401633  0.16243903  1
  Al  Al7  1  0.41968377  0.11739961  0.90050272  1
  Al  Al8  1  0.53164345  0.22026915  0.66413555  1
  Al  Al9  1  0.13056809  0.41776637  0.40315530  1
  Al  Al10  1  0.21624863  0.53864332  0.15364325  1
  Al  Al11  1  0.45136604  0.43017142  0.41552212  1
  Al  Al12  1  0.10939951  0.43432301  0.90372503  1
  Al  Al13  1  0.22962479  0.53498690  0.65277470  1
  Al  Al14  1  0.78457710  0.42449297  0.34502797  1
  Al  Al15  1  0.91918219  0.52341944  0.15927676  1
  Al  Al16  1  0.41315346  0.44036000  0.90220745  1
  Al  Al17  1  0.52776304  0.55139042  0.66735819  1
  Al  Al18  1  0.13819176  0.74918664  0.40257131  1
  Al  Al19  1  0.21634352  0.87792817  0.15515182  1
  Al  Al20  1  0.78309617  0.75931724  0.83707797  1
  Al  Al21  1  0.45920454  0.75170755  0.41741849  1
  Al  Al22  1  0.11035508  0.75897148  0.90245192  1
  Al  Al23  1  0.23003494  0.86941526  0.65040886  1
  Al  Al24  1  0.79123604  0.74963338  0.33784412  1
  Al  Al25  1  0.91538445  0.85980632  0.16361474  1
  Al  Al26  1  0.41309459  0.77381247  0.90082822  1
  Al  Al27  1  0.53119612  0.88300411  0.67597564  1
  Gd  Gd28  1  0.76726687  0.09188273  0.91036322  1
  Gd  Gd29  1  0.88491549  0.20498432  0.62358249  1
  Gd  Gd30  1  0.45126869  0.08799112  0.40994915  1
  Gd  Gd31  1  0.77037692  0.43676980  0.88894828  1
  Gd  Gd32  1  0.88456883  0.53932882  0.61443206  1
  Gd  Gd33  1  0.53912200  0.54437925  0.14671847  1
  Gd  Gd34  1  0.88756253  0.87497725  0.61486969  1
  Gd  Gd35  1  0.56702066  0.87074378  0.11409824  1
  N  N36  1  0.20436193  0.21433329  0.33380778  1
  N  N37  1  0.11193755  0.09294317  0.09785663  1
  N  N38  1  0.91258273  0.18695221  0.85041813  1
  N  N39  1  0.72535150  0.11842476  0.59312274  1
  N  N40  1  0.56108770  0.22879043  0.33606544  1
  N  N41  1  0.42284793  0.12530662  0.09521231  1
  N  N42  1  0.20953570  0.21214028  0.85150355  1
  N  N43  1  0.14793877  0.07728483  0.58495642  1
  N  N44  1  0.90267219  0.19794674  0.35913661  1
  N  N45  1  0.78558354  0.08893557  0.14121354  1
  N  N46  1  0.51564098  0.23136546  0.84852976  1
  N  N47  1  0.43579686  0.09513009  0.63016742  1
  N  N48  1  0.23263342  0.53434533  0.34253412  1
  N  N49  1  0.11559612  0.42570754  0.09509163  1
  N  N50  1  0.90721818  0.54692155  0.85139169  1
  N  N51  1  0.73568568  0.44772702  0.65699713  1
  N  N52  1  0.56333370  0.53554920  0.36975901  1
  N  N53  1  0.41530769  0.42435651  0.08738221  1
  N  N54  1  0.21004397  0.54560101  0.84307660  1
  N  N55  1  0.14968862  0.40627489  0.58790945  1
  N  N56  1  0.90709807  0.52740082  0.36541468  1
  N  N57  1  0.80508278  0.41563578  0.14408067  1
  N  N58  1  0.50570918  0.56203693  0.85860308  1
  N  N59  1  0.43646078  0.43169495  0.60132712  1
  N  N60  1  0.23612939  0.86690070  0.34396693  1
  N  N61  1  0.11688791  0.75996717  0.09868133  1
  N  N62  1  0.90505045  0.85164327  0.85148367  1
  N  N63  1  0.73594592  0.78308786  0.65206660  1
  N  N64  1  0.57861372  0.83690799  0.34869543  1
  N  N65  1  0.40577873  0.78415015  0.08265505  1
  N  N66  1  0.20964929  0.87953806  0.84032130  1
  N  N67  1  0.15032161  0.74171251  0.58601962  1
  N  N68  1  0.90494059  0.86792276  0.36173843  1
  N  N69  1  0.82328171  0.73739948  0.15062288  1
  N  N70  1  0.54353904  0.87901626  0.87006603  1
  N  N71  1  0.44026512  0.76529373  0.60686168  1
