# generated using pymatgen
data_Gd2Al7N9
_symmetry_space_group_name_H-M   'P 1'
_cell_length_a   9.95932526
_cell_length_b   9.86167256
_cell_length_c   10.54462809
_cell_angle_alpha   90.18215708
_cell_angle_beta   90.36460976
_cell_angle_gamma   60.61813946
_symmetry_Int_Tables_number   1
_chemical_formula_structural   Gd2Al7N9
_chemical_formula_sum   'Gd8 Al28 N36'
_cell_volume   902.41262741
_cell_formula_units_Z   4
loop_
 _symmetry_equiv_pos_site_id
 _symmetry_equiv_pos_as_xyz
  1  'x, y, z'
loop_
 _atom_site_type_symbol
 _atom_site_label
 _atom_site_symmetry_multiplicity
 _atom_site_fract_x
 _atom_site_fract_y
 _atom_site_fract_z
 _atom_site_occupancy
  Al  Al0  1  0.12555720  0.08691260  0.38710499  1
  Al  Al1  1  0.21462440  0.21348298  0.14379639  1
  Al  Al2  1  0.53829647  0.22050111  0.13745505  1
  Al  Al3  1  0.11955823  0.09186375  0.89912353  1
  Al  Al4  1  0.22718126  0.19992401  0.64761693  1
  Al  Al5  1  0.79234538  0.09133942  0.29875382  1
  Al  Al6  1  0.90419280  0.19937206  0.08274771  1
  Al  Al7  1  0.41645288  0.11744134  0.89614547  1
  Al  Al8  1  0.52730062  0.22037002  0.66131167  1
  Al  Al9  1  0.12739465  0.41886457  0.39190020  1
  Al  Al10  1  0.22106788  0.52899850  0.14576992  1
  Al  Al11  1  0.45620895  0.42666879  0.40054547  1
  Al  Al12  1  0.11672801  0.42559880  0.89423166  1
  Al  Al13  1  0.23172141  0.52571500  0.64153862  1
  Al  Al14  1  0.80310486  0.41794570  0.31492326  1
  Al  Al15  1  0.90828245  0.53314574  0.07704182  1
  Al  Al16  1  0.40667210  0.44404167  0.89413419  1
  Al  Al17  1  0.52184281  0.55508967  0.65304079  1
  Al  Al18  1  0.11933318  0.75815561  0.32236754  1
  Al  Al19  1  0.22051676  0.88158909  0.14719054  1
  Al  Al20  1  0.78849300  0.75712110  0.84040029  1
  Al  Al21  1  0.46289221  0.75080230  0.40560305  1
  Al  Al22  1  0.11414388  0.75729278  0.81864764  1
  Al  Al23  1  0.22930861  0.87774674  0.64014704  1
  Al  Al24  1  0.80263960  0.74205177  0.30975311  1
  Al  Al25  1  0.91910891  0.84869031  0.07664745  1
  Al  Al26  1  0.40947172  0.77724013  0.89163641  1
  Al  Al27  1  0.53834005  0.88140945  0.67124144  1
  Gd  Gd28  1  0.76203109  0.09262426  0.86737641  1
  Gd  Gd29  1  0.86942705  0.21542264  0.57755157  1
  Gd  Gd30  1  0.45699117  0.08747052  0.39612008  1
  Gd  Gd31  1  0.75083315  0.44493006  0.86507216  1
  Gd  Gd32  1  0.87979298  0.54250346  0.59063271  1
  Gd  Gd33  1  0.53805380  0.54501901  0.14496073  1
  Gd  Gd34  1  0.88222489  0.87593696  0.57294140  1
  Gd  Gd35  1  0.56248093  0.87268113  0.10750737  1
  N  N36  1  0.20702171  0.21378365  0.32379415  1
  N  N37  1  0.12378905  0.08986637  0.08719509  1
  N  N38  1  0.90727731  0.19788185  0.89841526  1
  N  N39  1  0.74173533  0.10837518  0.64835190  1
  N  N40  1  0.57125060  0.22345428  0.31732225  1
  N  N41  1  0.42284327  0.12671857  0.08271116  1
  N  N42  1  0.20851851  0.21103542  0.83370775  1
  N  N43  1  0.13814838  0.08331482  0.57250647  1
  N  N44  1  0.90052422  0.19732512  0.35446209  1
  N  N45  1  0.78358347  0.08763404  0.11308435  1
  N  N46  1  0.50132657  0.23749748  0.83899904  1
  N  N47  1  0.44262831  0.09022397  0.61266810  1
  N  N48  1  0.23597397  0.52807320  0.33298561  1
  N  N49  1  0.12270488  0.42040188  0.08027934  1
  N  N50  1  0.89873118  0.54968697  0.89002843  1
  N  N51  1  0.73702087  0.44792509  0.65341480  1
  N  N52  1  0.56951480  0.53287312  0.35909870  1
  N  N53  1  0.42004448  0.42299091  0.07350195  1
  N  N54  1  0.20798394  0.53624820  0.82598273  1
  N  N55  1  0.14691890  0.40422937  0.57590510  1
  N  N56  1  0.90384861  0.53181244  0.37059463  1
  N  N57  1  0.80497884  0.41857405  0.12689193  1
  N  N58  1  0.48762177  0.57116833  0.83620762  1
  N  N59  1  0.44096512  0.42611360  0.58344308  1
  N  N60  1  0.24006484  0.86817834  0.33463811  1
  N  N61  1  0.12185826  0.75641844  0.13768087  1
  N  N62  1  0.91647752  0.83821175  0.89424018  1
  N  N63  1  0.75215648  0.77765937  0.66519038  1
  N  N64  1  0.58273098  0.83628030  0.33314515  1
  N  N65  1  0.40740993  0.77903436  0.06710334  1
  N  N66  1  0.20903695  0.89132752  0.82555787  1
  N  N67  1  0.13386871  0.74932655  0.63206843  1
  N  N68  1  0.89545266  0.87312205  0.35567902  1
  N  N69  1  0.82395373  0.73655611  0.13173164  1
  N  N70  1  0.54079104  0.88260881  0.86139881  1
  N  N71  1  0.44327768  0.76717588  0.59179826  1
