# generated using pymatgen
data_Gd2Al7N9
_symmetry_space_group_name_H-M   'P 1'
_cell_length_a   10.04685742
_cell_length_b   9.83959487
_cell_length_c   10.42163699
_cell_angle_alpha   89.98607991
_cell_angle_beta   90.05213759
_cell_angle_gamma   60.39280326
_symmetry_Int_Tables_number   1
_chemical_formula_structural   Gd2Al7N9
_chemical_formula_sum   'Gd8 Al28 N36'
_cell_volume   895.73416826
_cell_formula_units_Z   4
loop_
 _symmetry_equiv_pos_site_id
 _symmetry_equiv_pos_as_xyz
  1  'x, y, z'
loop_
 _atom_site_type_symbol
 _atom_site_label
 _atom_site_symmetry_multiplicity
 _atom_site_fract_x
 _atom_site_fract_y
 _atom_site_fract_z
 _atom_site_occupancy
  Al  Al0  1  0.11285760  0.09436639  0.30190597  1
  Al  Al1  1  0.22088893  0.20966781  0.05976756  1
  Al  Al2  1  0.53750417  0.21558383  0.12836378  1
  Al  Al3  1  0.12268131  0.08681368  0.81591242  1
  Al  Al4  1  0.22056562  0.20411692  0.56738648  1
  Al  Al5  1  0.79074376  0.09209483  0.28004620  1
  Al  Al6  1  0.91059723  0.20030042  0.06184057  1
  Al  Al7  1  0.41649076  0.11018682  0.80445363  1
  Al  Al8  1  0.53364051  0.22928729  0.63124641  1
  Al  Al9  1  0.11158536  0.42649261  0.30141637  1
  Al  Al10  1  0.20466264  0.54288104  0.06075716  1
  Al  Al11  1  0.45060204  0.42563023  0.36802080  1
  Al  Al12  1  0.12289320  0.42650270  0.81348149  1
  Al  Al13  1  0.23201112  0.53584703  0.55824187  1
  Al  Al14  1  0.79385210  0.42441871  0.29129220  1
  Al  Al15  1  0.91062523  0.53086360  0.05635195  1
  Al  Al16  1  0.41670813  0.43615347  0.88277777  1
  Al  Al17  1  0.55219912  0.54785319  0.54527397  1
  Al  Al18  1  0.11607052  0.76004799  0.30234945  1
  Al  Al19  1  0.21174239  0.87709790  0.05842891  1
  Al  Al20  1  0.79616713  0.75183756  0.81707044  1
  Al  Al21  1  0.43958669  0.76668840  0.30983857  1
  Al  Al22  1  0.12012182  0.75418578  0.81105657  1
  Al  Al23  1  0.23400002  0.86635371  0.56245326  1
  Al  Al24  1  0.79175253  0.75122103  0.28515906  1
  Al  Al25  1  0.90760737  0.85632896  0.05719043  1
  Al  Al26  1  0.42284983  0.75779585  0.80703086  1
  Al  Al27  1  0.54896414  0.87101166  0.63633679  1
  Gd  Gd28  1  0.75980344  0.10073882  0.85026937  1
  Gd  Gd29  1  0.89375114  0.19809540  0.54929034  1
  Gd  Gd30  1  0.45182192  0.08950309  0.35492132  1
  Gd  Gd31  1  0.76603615  0.43831061  0.82150218  1
  Gd  Gd32  1  0.90111894  0.53537682  0.55287673  1
  Gd  Gd33  1  0.54588394  0.53496831  0.09420048  1
  Gd  Gd34  1  0.88766914  0.87472263  0.55854629  1
  Gd  Gd35  1  0.55136361  0.87583114  0.06660695  1
  N  N36  1  0.18414667  0.22358598  0.38331355  1
  N  N37  1  0.11854734  0.09218776  0.11700530  1
  N  N38  1  0.92153469  0.19119031  0.87798695  1
  N  N39  1  0.74657289  0.11220417  0.62540902  1
  N  N40  1  0.57729217  0.22269972  0.30549902  1
  N  N41  1  0.42082869  0.11874800  0.12435826  1
  N  N42  1  0.21777684  0.20719030  0.87292853  1
  N  N43  1  0.14154073  0.07640012  0.63287416  1
  N  N44  1  0.89344296  0.20200024  0.32920147  1
  N  N45  1  0.78009770  0.09046464  0.09174728  1
  N  N46  1  0.50030249  0.24032475  0.81065643  1
  N  N47  1  0.43829154  0.09349157  0.60426688  1
  N  N48  1  0.21645996  0.54079420  0.36439553  1
  N  N49  1  0.11486786  0.42295577  0.11749455  1
  N  N50  1  0.91205004  0.54233289  0.86910809  1
  N  N51  1  0.75230824  0.44157898  0.60431457  1
  N  N52  1  0.55952295  0.54265150  0.34884734  1
  N  N53  1  0.41754645  0.41323984  0.06747849  1
  N  N54  1  0.20448524  0.55000948  0.87589918  1
  N  N55  1  0.14904006  0.41227578  0.63116525  1
  N  N56  1  0.89627534  0.53779508  0.33785820  1
  N  N57  1  0.80829515  0.41727823  0.10440607  1
  N  N58  1  0.51594271  0.55603367  0.87174835  1
  N  N59  1  0.44874723  0.42715406  0.55262101  1
  N  N60  1  0.22031495  0.87583908  0.37408304  1
  N  N61  1  0.11444199  0.76028893  0.11723891  1
  N  N62  1  0.91079565  0.84574963  0.86866252  1
  N  N63  1  0.75994050  0.76768757  0.63847069  1
  N  N64  1  0.58269355  0.83777917  0.32181507  1
  N  N65  1  0.40203608  0.78353620  0.13242040  1
  N  N66  1  0.21899013  0.87178123  0.87215073  1
  N  N67  1  0.14259499  0.74518577  0.62607176  1
  N  N68  1  0.89211842  0.87448129  0.33668481  1
  N  N69  1  0.81170883  0.74328033  0.10403868  1
  N  N70  1  0.54137106  0.87938962  0.83183516  1
  N  N71  1  0.44341179  0.75588625  0.61739974  1
