# generated using pymatgen
data_Gd2Al7N9
_symmetry_space_group_name_H-M   'P 1'
_cell_length_a   10.00246278
_cell_length_b   9.85167894
_cell_length_c   10.29530701
_cell_angle_alpha   90.04384853
_cell_angle_beta   90.01059596
_cell_angle_gamma   60.72528748
_symmetry_Int_Tables_number   1
_chemical_formula_structural   Gd2Al7N9
_chemical_formula_sum   'Gd8 Al28 N36'
_cell_volume   884.94208879
_cell_formula_units_Z   4
loop_
 _symmetry_equiv_pos_site_id
 _symmetry_equiv_pos_as_xyz
  1  'x, y, z'
loop_
 _atom_site_type_symbol
 _atom_site_label
 _atom_site_symmetry_multiplicity
 _atom_site_fract_x
 _atom_site_fract_y
 _atom_site_fract_z
 _atom_site_occupancy
  Al  Al0  1  0.12301307  0.08917542  0.39837128  1
  Al  Al1  1  0.21482668  0.21182380  0.14632118  1
  Al  Al2  1  0.53425365  0.22352072  0.15460070  1
  Al  Al3  1  0.11273718  0.09130267  0.90623082  1
  Al  Al4  1  0.22880438  0.20137767  0.66000901  1
  Al  Al5  1  0.76687251  0.10695292  0.37992773  1
  Al  Al6  1  0.90277217  0.20077019  0.17151036  1
  Al  Al7  1  0.42336077  0.11631830  0.89732064  1
  Al  Al8  1  0.53600020  0.21739815  0.65716208  1
  Al  Al9  1  0.12869611  0.41871763  0.39929120  1
  Al  Al10  1  0.21721152  0.53903342  0.14956687  1
  Al  Al11  1  0.44185847  0.43354473  0.41393750  1
  Al  Al12  1  0.10987903  0.43464454  0.90580936  1
  Al  Al13  1  0.23332578  0.53388166  0.65244429  1
  Al  Al14  1  0.77012265  0.43049760  0.40264018  1
  Al  Al15  1  0.91555065  0.52010596  0.16696997  1
  Al  Al16  1  0.42073882  0.43868558  0.89684353  1
  Al  Al17  1  0.53565050  0.54866029  0.65188197  1
  Al  Al18  1  0.13477228  0.75122238  0.40028706  1
  Al  Al19  1  0.21653945  0.87719356  0.15196878  1
  Al  Al20  1  0.77996426  0.76124664  0.83483925  1
  Al  Al21  1  0.45058014  0.75915801  0.41581372  1
  Al  Al22  1  0.10950268  0.75922862  0.90261832  1
  Al  Al23  1  0.23090087  0.86826990  0.65026572  1
  Al  Al24  1  0.78903441  0.74928705  0.34056767  1
  Al  Al25  1  0.91188928  0.86382729  0.17027080  1
  Al  Al26  1  0.41821854  0.76838406  0.89711470  1
  Al  Al27  1  0.53221357  0.88195126  0.67300746  1
  Gd  Gd28  1  0.76874284  0.09038739  0.91834072  1
  Gd  Gd29  1  0.89061655  0.19564798  0.62862880  1
  Gd  Gd30  1  0.44756904  0.09088583  0.40904363  1
  Gd  Gd31  1  0.77286491  0.43595677  0.90342907  1
  Gd  Gd32  1  0.89848307  0.53491433  0.62141227  1
  Gd  Gd33  1  0.54510398  0.54001998  0.15853801  1
  Gd  Gd34  1  0.88815114  0.87409198  0.61401122  1
  Gd  Gd35  1  0.56753978  0.86925504  0.11393191  1
  N  N36  1  0.20264762  0.21506581  0.32975999  1
  N  N37  1  0.10917276  0.09367697  0.09750865  1
  N  N38  1  0.90961314  0.18996939  0.84765583  1
  N  N39  1  0.72498365  0.11761790  0.56813633  1
  N  N40  1  0.55408919  0.23424846  0.33364979  1
  N  N41  1  0.42519588  0.12558210  0.08973537  1
  N  N42  1  0.21000629  0.21247186  0.84965119  1
  N  N43  1  0.14871540  0.07752727  0.58204622  1
  N  N44  1  0.89737231  0.20277126  0.36300275  1
  N  N45  1  0.78171457  0.09117541  0.14091577  1
  N  N46  1  0.52370749  0.22758397  0.84063295  1
  N  N47  1  0.43913263  0.09294913  0.62879201  1
  N  N48  1  0.22921802  0.53688882  0.33831284  1
  N  N49  1  0.11399158  0.42689952  0.09467351  1
  N  N50  1  0.90614849  0.54633143  0.84855970  1
  N  N51  1  0.74228221  0.44304536  0.59463246  1
  N  N52  1  0.54977804  0.54336654  0.37397835  1
  N  N53  1  0.42111032  0.42346851  0.08110141  1
  N  N54  1  0.21275747  0.54461147  0.84195790  1
  N  N55  1  0.15827651  0.40230598  0.58250248  1
  N  N56  1  0.90344310  0.52675774  0.36871512  1
  N  N57  1  0.80505020  0.41518777  0.12738075  1
  N  N58  1  0.51748443  0.55698714  0.84112770  1
  N  N59  1  0.43952593  0.42930217  0.59863645  1
  N  N60  1  0.23265196  0.86975799  0.34088750  1
  N  N61  1  0.11384627  0.76207091  0.09686013  1
  N  N62  1  0.90399413  0.85295532  0.84671963  1
  N  N63  1  0.73856164  0.77956355  0.64991334  1
  N  N64  1  0.57368809  0.84002771  0.34667997  1
  N  N65  1  0.40973472  0.77594400  0.07789326  1
  N  N66  1  0.21066569  0.87884593  0.83919781  1
  N  N67  1  0.15133939  0.74051219  0.58347076  1
  N  N68  1  0.90376039  0.86849560  0.36444414  1
  N  N69  1  0.82358474  0.73643064  0.15490516  1
  N  N70  1  0.54576497  0.87773836  0.86704703  1
  N  N71  1  0.44045775  0.76699507  0.60387226  1
