# generated using pymatgen
data_Gd2Al7N9
_symmetry_space_group_name_H-M   'P 1'
_cell_length_a   9.98615490
_cell_length_b   9.85856009
_cell_length_c   10.31354856
_cell_angle_alpha   90.05753750
_cell_angle_beta   89.89794458
_cell_angle_gamma   60.53037576
_symmetry_Int_Tables_number   1
_chemical_formula_structural   Gd2Al7N9
_chemical_formula_sum   'Gd8 Al28 N36'
_cell_volume   883.98554442
_cell_formula_units_Z   4
loop_
 _symmetry_equiv_pos_site_id
 _symmetry_equiv_pos_as_xyz
  1  'x, y, z'
loop_
 _atom_site_type_symbol
 _atom_site_label
 _atom_site_symmetry_multiplicity
 _atom_site_fract_x
 _atom_site_fract_y
 _atom_site_fract_z
 _atom_site_occupancy
  Al  Al0  1  0.12210471  0.08987805  0.39741375  1
  Al  Al1  1  0.21492371  0.21209799  0.14538452  1
  Al  Al2  1  0.53407562  0.22331910  0.15471800  1
  Al  Al3  1  0.11342202  0.09125407  0.90659209  1
  Al  Al4  1  0.23025267  0.20005808  0.66093465  1
  Al  Al5  1  0.76599147  0.10799246  0.38084166  1
  Al  Al6  1  0.90213709  0.20180220  0.17283646  1
  Al  Al7  1  0.42605837  0.11447227  0.89500699  1
  Al  Al8  1  0.53769186  0.21713158  0.65804250  1
  Al  Al9  1  0.12758457  0.41903348  0.39827681  1
  Al  Al10  1  0.21634056  0.53963152  0.14934261  1
  Al  Al11  1  0.43973137  0.43413017  0.41405313  1
  Al  Al12  1  0.11033981  0.43462591  0.90701332  1
  Al  Al13  1  0.23443995  0.53318226  0.65229187  1
  Al  Al14  1  0.76834498  0.43192843  0.40572756  1
  Al  Al15  1  0.91370129  0.52135164  0.16984158  1
  Al  Al16  1  0.42207734  0.43845045  0.89673487  1
  Al  Al17  1  0.53670273  0.54768044  0.64999735  1
  Al  Al18  1  0.13299479  0.75200132  0.39996543  1
  Al  Al19  1  0.21568589  0.87687717  0.15082235  1
  Al  Al20  1  0.77982249  0.76117692  0.83421107  1
  Al  Al21  1  0.44688544  0.76108298  0.41609444  1
  Al  Al22  1  0.10945818  0.75896267  0.90279952  1
  Al  Al23  1  0.23152621  0.86792192  0.65048988  1
  Al  Al24  1  0.78603905  0.75085402  0.34571687  1
  Al  Al25  1  0.90966795  0.86436123  0.17260394  1
  Al  Al26  1  0.42038670  0.76661244  0.89555523  1
  Al  Al27  1  0.53565768  0.87891951  0.67051026  1
  Gd  Gd28  1  0.77036498  0.09059935  0.92014120  1
  Gd  Gd29  1  0.89140710  0.19559078  0.62907558  1
  Gd  Gd30  1  0.44505547  0.09368274  0.41224360  1
  Gd  Gd31  1  0.77277459  0.43667799  0.90507065  1
  Gd  Gd32  1  0.90268800  0.53086671  0.62380499  1
  Gd  Gd33  1  0.54464070  0.53984204  0.16064255  1
  Gd  Gd34  1  0.88959635  0.87493390  0.61546179  1
  Gd  Gd35  1  0.56526530  0.86982534  0.11695887  1
  N  N36  1  0.20198055  0.21528320  0.32840854  1
  N  N37  1  0.10911423  0.09374949  0.09731484  1
  N  N38  1  0.91006254  0.19090651  0.84750403  1
  N  N39  1  0.72582474  0.11851376  0.56812745  1
  N  N40  1  0.55233060  0.23471247  0.33380875  1
  N  N41  1  0.42567373  0.12581403  0.08715711  1
  N  N42  1  0.21066275  0.21227827  0.84981211  1
  N  N43  1  0.15047140  0.07710312  0.58094828  1
  N  N44  1  0.89624086  0.20407815  0.36351155  1
  N  N45  1  0.78105192  0.09214618  0.14232486  1
  N  N46  1  0.52621337  0.22698976  0.84088356  1
  N  N47  1  0.44164440  0.09145040  0.63215920  1
  N  N48  1  0.22734512  0.53779552  0.33773441  1
  N  N49  1  0.11262717  0.42800224  0.09526982  1
  N  N50  1  0.90622882  0.54668222  0.84885466  1
  N  N51  1  0.74357889  0.44282448  0.59324287  1
  N  N52  1  0.54725810  0.54470209  0.37549434  1
  N  N53  1  0.42144526  0.42377825  0.08086597  1
  N  N54  1  0.21320289  0.54412345  0.84177837  1
  N  N55  1  0.16213071  0.39955945  0.58069140  1
  N  N56  1  0.90188408  0.52711328  0.36989371  1
  N  N57  1  0.80465657  0.41574488  0.12741583  1
  N  N58  1  0.51884237  0.55555835  0.83871847  1
  N  N59  1  0.44057785  0.42827987  0.59834678  1
  N  N60  1  0.23052640  0.87027367  0.33978213  1
  N  N61  1  0.11185457  0.76278879  0.09659982  1
  N  N62  1  0.90317570  0.85308986  0.84638822  1
  N  N63  1  0.74217531  0.77672474  0.64237608  1
  N  N64  1  0.56908906  0.84325664  0.34816327  1
  N  N65  1  0.40997414  0.77431533  0.07614825  1
  N  N66  1  0.21109913  0.87849950  0.83899571  1
  N  N67  1  0.15274459  0.73977155  0.58280617  1
  N  N68  1  0.90232370  0.86961721  0.36582410  1
  N  N69  1  0.82082356  0.73778533  0.15877257  1
  N  N70  1  0.54985943  0.87407112  0.86480711  1
  N  N71  1  0.44106337  0.76646856  0.60370459  1
