# generated using pymatgen
data_AlN
_symmetry_space_group_name_H-M   'P 1'
_cell_length_a   3.31130152
_cell_length_b   3.31130148
_cell_length_c   4.18815242
_cell_angle_alpha   89.99999990
_cell_angle_beta   89.99999990
_cell_angle_gamma   60.00001408
_symmetry_Int_Tables_number   1
_chemical_formula_structural   AlN
_chemical_formula_sum   'Al2 N2'
_cell_volume   39.76954501
_cell_formula_units_Z   2
loop_
 _symmetry_equiv_pos_site_id
 _symmetry_equiv_pos_as_xyz
  1  'x, y, z'
loop_
 _atom_site_type_symbol
 _atom_site_label
 _atom_site_symmetry_multiplicity
 _atom_site_fract_x
 _atom_site_fract_y
 _atom_site_fract_z
 _atom_site_occupancy
  Al  Al0  1  0.33333338  0.28333434  0.70922003  1
  Al  Al1  1  0.66666681  0.61666776  0.20922003  1
  N  N2  1  0.66666674  0.61666769  0.70921675  1
  N  N3  1  0.33333344  0.28333441  0.20921675  1
