# generated using pymatgen
data_AlN
_symmetry_space_group_name_H-M   'P 1'
_cell_length_a   3.27973578
_cell_length_b   3.27973570
_cell_length_c   4.33018638
_cell_angle_alpha   89.99999998
_cell_angle_beta   89.99999998
_cell_angle_gamma   60.00000959
_symmetry_Int_Tables_number   1
_chemical_formula_structural   AlN
_chemical_formula_sum   'Al2 N2'
_cell_volume   40.33805623
_cell_formula_units_Z   2
loop_
 _symmetry_equiv_pos_site_id
 _symmetry_equiv_pos_as_xyz
  1  'x, y, z'
loop_
 _atom_site_type_symbol
 _atom_site_label
 _atom_site_symmetry_multiplicity
 _atom_site_fract_x
 _atom_site_fract_y
 _atom_site_fract_z
 _atom_site_occupancy
  Al  Al0  1  0.33333342  0.28333438  0.72844271  1
  Al  Al1  1  0.66666676  0.61666772  0.22844271  1
  N  N2  1  0.66666678  0.61666772  0.68996638  1
  N  N3  1  0.33333341  0.28333437  0.18996638  1
