# generated using pymatgen
data_AlN
_symmetry_space_group_name_H-M   'P 1'
_cell_length_a   3.15919401
_cell_length_b   3.15921050
_cell_length_c   4.88715179
_cell_angle_alpha   90.00000009
_cell_angle_beta   90.00000009
_cell_angle_gamma   60.00019768
_symmetry_Int_Tables_number   1
_chemical_formula_structural   AlN
_chemical_formula_sum   'Al2 N2'
_cell_volume   42.24177766
_cell_formula_units_Z   2
loop_
 _symmetry_equiv_pos_site_id
 _symmetry_equiv_pos_as_xyz
  1  'x, y, z'
loop_
 _atom_site_type_symbol
 _atom_site_label
 _atom_site_symmetry_multiplicity
 _atom_site_fract_x
 _atom_site_fract_y
 _atom_site_fract_z
 _atom_site_occupancy
  Al  Al0  1  0.33333381  0.28333362  0.65461214  1
  Al  Al1  1  0.66666638  0.61666849  0.15461214  1
  N  N2  1  0.66666595  0.61666949  0.76443608  1
  N  N3  1  0.33333423  0.28333262  0.26443608  1
