# generated using pymatgen
data_AlN
_symmetry_space_group_name_H-M   'P 1'
_cell_length_a   3.20448711
_cell_length_b   3.20452531
_cell_length_c   4.68752909
_cell_angle_alpha   90.00000023
_cell_angle_beta   90.00000018
_cell_angle_gamma   60.00041432
_symmetry_Int_Tables_number   1
_chemical_formula_structural   AlN
_chemical_formula_sum   'Al2 N2'
_cell_volume   41.68680933
_cell_formula_units_Z   2
loop_
 _symmetry_equiv_pos_site_id
 _symmetry_equiv_pos_as_xyz
  1  'x, y, z'
loop_
 _atom_site_type_symbol
 _atom_site_label
 _atom_site_symmetry_multiplicity
 _atom_site_fract_x
 _atom_site_fract_y
 _atom_site_fract_z
 _atom_site_occupancy
  Al  Al0  1  0.33333412  0.28333289  0.75536085  1
  Al  Al1  1  0.66666606  0.61666920  0.25536085  1
  N  N2  1  0.66666471  0.61667195  0.66292701  1
  N  N3  1  0.33333548  0.28333014  0.16292701  1
