# generated using pymatgen
data_AlN
_symmetry_space_group_name_H-M   'P 1'
_cell_length_a   3.12811481
_cell_length_b   3.12812262
_cell_length_c   5.01477222
_cell_angle_alpha   89.99999918
_cell_angle_beta   89.99999973
_cell_angle_gamma   60.00008888
_symmetry_Int_Tables_number   1
_chemical_formula_structural   AlN
_chemical_formula_sum   'Al2 N2'
_cell_volume   42.49606175
_cell_formula_units_Z   2
loop_
 _symmetry_equiv_pos_site_id
 _symmetry_equiv_pos_as_xyz
  1  'x, y, z'
loop_
 _atom_site_type_symbol
 _atom_site_label
 _atom_site_symmetry_multiplicity
 _atom_site_fract_x
 _atom_site_fract_y
 _atom_site_fract_z
 _atom_site_occupancy
  Al  Al0  1  0.33333237  0.28333768  0.82766081  1
  Al  Al1  1  0.66666800  0.61666653  0.32766080  1
  N  N2  1  0.66666600  0.61667047  0.70921266  1
  N  N3  1  0.33333437  0.28333372  0.20921262  1
