# generated using pymatgen
data_Al17BN18
_symmetry_space_group_name_H-M   'P 1'
_cell_length_a   9.32482627
_cell_length_b   9.31975279
_cell_length_c   10.20535354
_cell_angle_alpha   89.98530433
_cell_angle_beta   89.72785710
_cell_angle_gamma   59.85634295
_symmetry_Int_Tables_number   1
_chemical_formula_structural   Al17BN18
_chemical_formula_sum   'Al34 B2 N36'
_cell_volume   766.95010957
_cell_formula_units_Z   2
loop_
 _symmetry_equiv_pos_site_id
 _symmetry_equiv_pos_as_xyz
  1  'x, y, z'
loop_
 _atom_site_type_symbol
 _atom_site_label
 _atom_site_symmetry_multiplicity
 _atom_site_fract_x
 _atom_site_fract_y
 _atom_site_fract_z
 _atom_site_occupancy
  Al  Al0  1  0.11393227  0.09375776  0.39472847  1
  Al  Al1  1  0.20909776  0.21043888  0.13587803  1
  Al  Al2  1  0.78269649  0.08349494  0.81197447  1
  Al  Al3  1  0.89144476  0.20322715  0.60533696  1
  Al  Al4  1  0.45104970  0.09108398  0.31465727  1
  Al  Al5  1  0.56610147  0.20151839  0.06328632  1
  Al  Al6  1  0.10163312  0.09791812  0.88133414  1
  Al  Al7  1  0.21686268  0.20991583  0.64289610  1
  Al  Al8  1  0.78099126  0.10412811  0.31440029  1
  Al  Al9  1  0.45254971  0.08986842  0.81903761  1
  Al  Al10  1  0.56510197  0.19121282  0.56486961  1
  Al  Al11  1  0.11187923  0.42489403  0.38954281  1
  Al  Al12  1  0.22484764  0.53581205  0.14175682  1
  Al  Al13  1  0.78072695  0.42199841  0.87882644  1
  Al  Al14  1  0.89000671  0.54866247  0.64004495  1
  Al  Al15  1  0.44269466  0.43252481  0.38844055  1
  Al  Al16  1  0.55866189  0.53175634  0.13756063  1
  Al  Al17  1  0.11147926  0.42853964  0.88960092  1
  Al  Al18  1  0.21654470  0.54314388  0.63653911  1
  Al  Al19  1  0.77587853  0.43165564  0.39547894  1
  Al  Al20  1  0.89098836  0.52927860  0.14076344  1
  Al  Al21  1  0.44053321  0.43308526  0.88445194  1
  Al  Al22  1  0.55409003  0.54185641  0.64146607  1
  Al  Al23  1  0.10196935  0.76724908  0.38196585  1
  Al  Al24  1  0.21450181  0.87542765  0.14082725  1
  Al  Al25  1  0.78419147  0.75649517  0.89491659  1
  Al  Al26  1  0.43958457  0.75791900  0.38689829  1
  Al  Al27  1  0.55057558  0.87600340  0.07098907  1
  Al  Al28  1  0.11285842  0.75980712  0.89466322  1
  Al  Al29  1  0.21478183  0.87480833  0.64050988  1
  Al  Al30  1  0.78612991  0.76167572  0.37460818  1
  Al  Al31  1  0.89292547  0.87209247  0.11087770  1
  Al  Al32  1  0.43792861  0.75953741  0.88858412  1
  Al  Al33  1  0.55545873  0.87861155  0.56870748  1
  B  B34  1  0.88618680  0.20845595  0.09506981  1
  B  B35  1  0.88877072  0.87120305  0.59552881  1
  N  N36  1  0.21616351  0.20661017  0.32440213  1
  N  N37  1  0.07838874  0.10911732  0.07736283  1
  N  N38  1  0.88869033  0.20836575  0.81018863  1
  N  N39  1  0.79316154  0.05668816  0.61988730  1
  N  N40  1  0.56040809  0.19898742  0.37624092  1
  N  N41  1  0.45024792  0.09479588  0.12666359  1
  N  N42  1  0.21749410  0.20747643  0.83282329  1
  N  N43  1  0.12351849  0.09020562  0.58044967  1
  N  N44  1  0.88553614  0.20383149  0.38897728  1
  N  N45  1  0.79111568  0.11964109  0.12183516  1
  N  N46  1  0.56241252  0.19999909  0.87494267  1
  N  N47  1  0.44968642  0.09338363  0.63125816  1
  N  N48  1  0.22138029  0.53896901  0.33041504  1
  N  N49  1  0.11134032  0.42873308  0.07700754  1
  N  N50  1  0.88941574  0.54035282  0.82753336  1
  N  N51  1  0.77279583  0.44444112  0.58213970  1
  N  N52  1  0.55791987  0.53680833  0.32456767  1
  N  N53  1  0.44170713  0.43169057  0.07603196  1
  N  N54  1  0.22005817  0.54082809  0.82396667  1
  N  N55  1  0.11160670  0.42768118  0.57701050  1
  N  N56  1  0.89008588  0.53544876  0.32772181  1
  N  N57  1  0.79284603  0.39828143  0.07592624  1
  N  N58  1  0.55519611  0.53966158  0.82845547  1
  N  N59  1  0.44392108  0.43113132  0.57934418  1
  N  N60  1  0.21910806  0.87449516  0.32764293  1
  N  N61  1  0.12207427  0.75307881  0.08100481  1
  N  N62  1  0.88719526  0.87798383  0.88476854  1
  N  N63  1  0.79837507  0.77453125  0.57570325  1
  N  N64  1  0.55437927  0.87449949  0.37753152  1
  N  N65  1  0.43759963  0.75869915  0.08027211  1
  N  N66  1  0.21863318  0.87243854  0.82765260  1
  N  N67  1  0.08052091  0.77771802  0.57722591  1
  N  N68  1  0.88969957  0.87180741  0.31031730  1
  N  N69  1  0.77899728  0.74965108  0.08610937  1
  N  N70  1  0.55320175  0.87422363  0.87770727  1
  N  N71  1  0.43720215  0.75981680  0.57846382  1
