# generated using pymatgen
data_Al17BN18
_symmetry_space_group_name_H-M   'P 1'
_cell_length_a   9.31464643
_cell_length_b   9.35404090
_cell_length_c   10.18440808
_cell_angle_alpha   89.99978038
_cell_angle_beta   89.44061103
_cell_angle_gamma   59.85653258
_symmetry_Int_Tables_number   1
_chemical_formula_structural   Al17BN18
_chemical_formula_sum   'Al34 B2 N36'
_cell_volume   767.31684207
_cell_formula_units_Z   2
loop_
 _symmetry_equiv_pos_site_id
 _symmetry_equiv_pos_as_xyz
  1  'x, y, z'
loop_
 _atom_site_type_symbol
 _atom_site_label
 _atom_site_symmetry_multiplicity
 _atom_site_fract_x
 _atom_site_fract_y
 _atom_site_fract_z
 _atom_site_occupancy
  Al  Al0  1  0.11430517  0.09245192  0.39853379  1
  Al  Al1  1  0.21287130  0.20762603  0.13673172  1
  Al  Al2  1  0.78240483  0.08496676  0.82123875  1
  Al  Al3  1  0.88806112  0.20305608  0.60075626  1
  Al  Al4  1  0.45321128  0.08890663  0.31841245  1
  Al  Al5  1  0.56057505  0.20960215  0.06809031  1
  Al  Al6  1  0.09896703  0.09875932  0.88985268  1
  Al  Al7  1  0.21920641  0.20402353  0.64431740  1
  Al  Al8  1  0.78240449  0.09929693  0.32123879  1
  Al  Al9  1  0.45244010  0.09004861  0.82394964  1
  Al  Al10  1  0.56057381  0.19648830  0.56809040  1
  Al  Al11  1  0.11246418  0.42616368  0.36164892  1
  Al  Al12  1  0.21920596  0.54343306  0.14431745  1
  Al  Al13  1  0.77640845  0.43070729  0.81300834  1
  Al  Al14  1  0.88833969  0.54647082  0.56904502  1
  Al  Al15  1  0.45244041  0.42418168  0.32394939  1
  Al  Al16  1  0.55831619  0.53421962  0.07156527  1
  Al  Al17  1  0.11246407  0.42804291  0.86164881  1
  Al  Al18  1  0.21287080  0.54616674  0.63673151  1
  Al  Al19  1  0.78300938  0.42080242  0.32656034  1
  Al  Al20  1  0.88833959  0.53185352  0.06904475  1
  Al  Al21  1  0.45321153  0.42455228  0.81841247  1
  Al  Al22  1  0.55553327  0.54138014  0.56648907  1
  Al  Al23  1  0.09896636  0.76894329  0.38985256  1
  Al  Al24  1  0.20818317  0.88062149  0.14495134  1
  Al  Al25  1  0.78300969  0.76285673  0.82656006  1
  Al  Al26  1  0.44859108  0.75998771  0.32146843  1
  Al  Al27  1  0.55553264  0.86975205  0.06648912  1
  Al  Al28  1  0.11430551  0.75991190  0.89853399  1
  Al  Al29  1  0.20818398  0.87785885  0.64495191  1
  Al  Al30  1  0.77640788  0.75955274  0.31300798  1
  Al  Al31  1  0.88806118  0.87554698  0.10075661  1
  Al  Al32  1  0.44859215  0.75809129  0.82146821  1
  Al  Al33  1  0.55831666  0.87412868  0.57156532  1
  B  B34  1  0.88569459  0.20919794  0.10890943  1
  B  B35  1  0.88569463  0.87177400  0.60890955  1
  N  N36  1  0.21865391  0.20171711  0.32740506  1
  N  N37  1  0.07749075  0.11106013  0.08392857  1
  N  N38  1  0.88897904  0.20426675  0.82124356  1
  N  N39  1  0.79116299  0.05711702  0.62578315  1
  N  N40  1  0.55736761  0.20318581  0.38112014  1
  N  N41  1  0.45438267  0.09027617  0.12750368  1
  N  N42  1  0.21938566  0.20216893  0.83797457  1
  N  N43  1  0.12168150  0.08894013  0.58264349  1
  N  N44  1  0.88124468  0.20899415  0.39572261  1
  N  N45  1  0.79116602  0.11838910  0.12578255  1
  N  N46  1  0.55736720  0.20610993  0.88112035  1
  N  N47  1  0.45173989  0.09064828  0.63424132  1
  N  N48  1  0.21938589  0.54510705  0.33797415  1
  N  N49  1  0.11307567  0.42897399  0.09999665  1
  N  N50  1  0.88324444  0.54012052  0.87993032  1
  N  N51  1  0.77321684  0.44122193  0.62678873  1
  N  N52  1  0.55640220  0.54033856  0.37951161  1
  N  N53  1  0.45174000  0.42428322  0.13424119  1
  N  N54  1  0.21865402  0.54629104  0.82740501  1
  N  N55  1  0.11307670  0.42462085  0.59999697  1
  N  N56  1  0.88324431  0.54329625  0.37993061  1
  N  N57  1  0.79459484  0.39801402  0.13041654  1
  N  N58  1  0.55644397  0.53855236  0.88422660  1
  N  N59  1  0.45438271  0.42201309  0.62750338  1
  N  N60  1  0.21414996  0.87641672  0.33355234  1
  N  N61  1  0.12168183  0.75604902  0.08264351  1
  N  N62  1  0.88124508  0.87642174  0.89572261  1
  N  N63  1  0.79459710  0.77406010  0.63041625  1
  N  N64  1  0.55644319  0.87166709  0.38422680  1
  N  N65  1  0.44706729  0.76000927  0.13076695  1
  N  N66  1  0.21415119  0.87609452  0.83355243  1
  N  N67  1  0.07749067  0.77811769  0.58392866  1
  N  N68  1  0.88897850  0.87341412  0.32124317  1
  N  N69  1  0.77321611  0.75223226  0.12678914  1
  N  N70  1  0.55640292  0.86992220  0.87951141  1
  N  N71  1  0.44706770  0.75959518  0.63076724  1
