# generated using pymatgen
data_Al17BN18
_symmetry_space_group_name_H-M   'P 1'
_cell_length_a   9.34320173
_cell_length_b   9.33311977
_cell_length_c   10.18068959
_cell_angle_alpha   89.95109109
_cell_angle_beta   89.73298201
_cell_angle_gamma   59.84042120
_symmetry_Int_Tables_number   1
_chemical_formula_structural   Al17BN18
_chemical_formula_sum   'Al34 B2 N36'
_cell_volume   767.58137824
_cell_formula_units_Z   2
loop_
 _symmetry_equiv_pos_site_id
 _symmetry_equiv_pos_as_xyz
  1  'x, y, z'
loop_
 _atom_site_type_symbol
 _atom_site_label
 _atom_site_symmetry_multiplicity
 _atom_site_fract_x
 _atom_site_fract_y
 _atom_site_fract_z
 _atom_site_occupancy
  Al  Al0  1  0.11381306  0.09402138  0.39470111  1
  Al  Al1  1  0.20972049  0.21010138  0.13565865  1
  Al  Al2  1  0.78368328  0.08231742  0.81248054  1
  Al  Al3  1  0.89126681  0.20299782  0.60565496  1
  Al  Al4  1  0.45112713  0.09062829  0.31446709  1
  Al  Al5  1  0.56268311  0.20733518  0.06355815  1
  Al  Al6  1  0.10165345  0.09761260  0.88168422  1
  Al  Al7  1  0.21702584  0.20970699  0.64283939  1
  Al  Al8  1  0.78187221  0.10356796  0.31389020  1
  Al  Al9  1  0.45221771  0.08841824  0.81937627  1
  Al  Al10  1  0.56301336  0.19489143  0.56530762  1
  Al  Al11  1  0.11100398  0.42484694  0.39022952  1
  Al  Al12  1  0.22163071  0.53723909  0.14197505  1
  Al  Al13  1  0.78147602  0.42147288  0.87997994  1
  Al  Al14  1  0.89028658  0.54868295  0.64064175  1
  Al  Al15  1  0.44520363  0.42752154  0.35643365  1
  Al  Al16  1  0.56031244  0.53298060  0.13747397  1
  Al  Al17  1  0.11116121  0.42819367  0.89023134  1
  Al  Al18  1  0.21305722  0.54516857  0.63408912  1
  Al  Al19  1  0.77703208  0.43157124  0.39612806  1
  Al  Al20  1  0.89103992  0.52903246  0.14099781  1
  Al  Al21  1  0.44452054  0.42504201  0.84145671  1
  Al  Al22  1  0.55668187  0.54401364  0.63989483  1
  Al  Al23  1  0.10083912  0.76880171  0.38273735  1
  Al  Al24  1  0.21461961  0.87523227  0.14105298  1
  Al  Al25  1  0.78422698  0.75592703  0.89506254  1
  Al  Al26  1  0.43931833  0.75903671  0.38793326  1
  Al  Al27  1  0.55087812  0.87597968  0.07153232  1
  Al  Al28  1  0.11325046  0.75933319  0.89541552  1
  Al  Al29  1  0.21470125  0.87510626  0.64088523  1
  Al  Al30  1  0.78617509  0.76171045  0.37438440  1
  Al  Al31  1  0.89213919  0.87309051  0.10959377  1
  Al  Al32  1  0.43772249  0.75911630  0.88964488  1
  Al  Al33  1  0.55593165  0.87938118  0.56925039  1
  B  B34  1  0.88631174  0.20794604  0.09520973  1
  B  B35  1  0.88790103  0.87209597  0.59581613  1
  N  N36  1  0.21651950  0.20671405  0.32484220  1
  N  N37  1  0.07858915  0.10898545  0.07773779  1
  N  N38  1  0.88841156  0.20803599  0.81076180  1
  N  N39  1  0.79229326  0.05709152  0.62012824  1
  N  N40  1  0.56063252  0.19894748  0.37734145  1
  N  N41  1  0.45035915  0.09448286  0.12603762  1
  N  N42  1  0.21760349  0.20713826  0.83331266  1
  N  N43  1  0.12314523  0.09041448  0.58090454  1
  N  N44  1  0.88551668  0.20386940  0.38890847  1
  N  N45  1  0.79150474  0.11921005  0.12080004  1
  N  N46  1  0.56178925  0.20007967  0.87544858  1
  N  N47  1  0.44950417  0.09382432  0.63116141  1
  N  N48  1  0.21659589  0.54184208  0.33344843  1
  N  N49  1  0.11068352  0.42861373  0.07736431  1
  N  N50  1  0.88953558  0.53984924  0.82819660  1
  N  N51  1  0.77454181  0.44400248  0.58244271  1
  N  N52  1  0.56052759  0.53970363  0.32685311  1
  N  N53  1  0.44431801  0.42617925  0.10609094  1
  N  N54  1  0.21558965  0.54264399  0.82375622  1
  N  N55  1  0.11088273  0.42731637  0.57732008  1
  N  N56  1  0.89021612  0.53553149  0.32807937  1
  N  N57  1  0.79356563  0.39795418  0.07627900  1
  N  N58  1  0.55735126  0.54077886  0.82933237  1
  N  N59  1  0.44676691  0.42626167  0.60274652  1
  N  N60  1  0.21913172  0.87459174  0.32824296  1
  N  N61  1  0.12168637  0.75356113  0.08148779  1
  N  N62  1  0.88718226  0.87751888  0.88586775  1
  N  N63  1  0.79856160  0.77457611  0.57634162  1
  N  N64  1  0.55469799  0.87485707  0.37773162  1
  N  N65  1  0.43753043  0.75918131  0.08072005  1
  N  N66  1  0.21871807  0.87201029  0.82824077  1
  N  N67  1  0.07957242  0.77910971  0.57765893  1
  N  N68  1  0.88916616  0.87232701  0.31046441  1
  N  N69  1  0.77896503  0.74934797  0.08654471  1
  N  N70  1  0.55364856  0.87322115  0.87730735  1
  N  N71  1  0.43693696  0.76123595  0.57899852  1
