# generated using pymatgen
data_Al17BN18
_symmetry_space_group_name_H-M   'P 1'
_cell_length_a   9.29997707
_cell_length_b   9.30061747
_cell_length_c   9.98203315
_cell_angle_alpha   89.97940598
_cell_angle_beta   89.97394172
_cell_angle_gamma   60.01192370
_symmetry_Int_Tables_number   1
_chemical_formula_structural   Al17BN18
_chemical_formula_sum   'Al34 B2 N36'
_cell_volume   747.81714576
_cell_formula_units_Z   2
loop_
 _symmetry_equiv_pos_site_id
 _symmetry_equiv_pos_as_xyz
  1  'x, y, z'
loop_
 _atom_site_type_symbol
 _atom_site_label
 _atom_site_symmetry_multiplicity
 _atom_site_fract_x
 _atom_site_fract_y
 _atom_site_fract_z
 _atom_site_occupancy
  Al  Al0  1  0.10511349  0.09677995  0.30781678  1
  Al  Al1  1  0.21765764  0.20691639  0.06233801  1
  Al  Al2  1  0.78173385  0.09122686  0.82148038  1
  Al  Al3  1  0.89072933  0.19888042  0.56324346  1
  Al  Al4  1  0.44568615  0.09383361  0.31139638  1
  Al  Al5  1  0.55970740  0.20742568  0.06077315  1
  Al  Al6  1  0.10867942  0.09638690  0.81893634  1
  Al  Al7  1  0.22099235  0.20486839  0.56057100  1
  Al  Al8  1  0.78116659  0.09564474  0.30804725  1
  Al  Al9  1  0.44413040  0.09497573  0.81121164  1
  Al  Al10  1  0.56136631  0.19851172  0.56126745  1
  Al  Al11  1  0.11020664  0.42909735  0.31182607  1
  Al  Al12  1  0.22307431  0.53812472  0.06077727  1
  Al  Al13  1  0.77873501  0.42515757  0.81693626  1
  Al  Al14  1  0.88994968  0.54206280  0.56173924  1
  Al  Al15  1  0.44395126  0.42800595  0.31240947  1
  Al  Al16  1  0.55920184  0.53354705  0.06200171  1
  Al  Al17  1  0.11158659  0.42694622  0.81050889  1
  Al  Al18  1  0.21544700  0.54373179  0.56160915  1
  Al  Al19  1  0.78079695  0.42248299  0.30807207  1
  Al  Al20  1  0.89045195  0.53307845  0.06031171  1
  Al  Al21  1  0.44486230  0.42784652  0.80999007  1
  Al  Al22  1  0.55709524  0.53791348  0.56000412  1
  Al  Al23  1  0.10819812  0.76325966  0.31178953  1
  Al  Al24  1  0.21769201  0.87539603  0.06155426  1
  Al  Al25  1  0.78041243  0.76314322  0.81492921  1
  Al  Al26  1  0.44396707  0.76205082  0.31226015  1
  Al  Al27  1  0.55597601  0.87136954  0.06009255  1
  Al  Al28  1  0.10636663  0.76318003  0.81632371  1
  Al  Al29  1  0.21470412  0.87610662  0.56388067  1
  Al  Al30  1  0.77856938  0.76245846  0.31145711  1
  Al  Al31  1  0.89018880  0.87553389  0.07071547  1
  Al  Al32  1  0.44484779  0.76021075  0.81147028  1
  Al  Al33  1  0.55978364  0.87443768  0.56154793  1
  B  B34  1  0.88720339  0.20637138  0.05860332  1
  B  B35  1  0.88874101  0.87306565  0.59230657  1
  N  N36  1  0.22111729  0.20458072  0.36873024  1
  N  N37  1  0.08622360  0.10674834  0.11366328  1
  N  N38  1  0.88865205  0.20589794  0.89141130  1
  N  N39  1  0.79270780  0.06642922  0.62390344  1
  N  N40  1  0.55793301  0.20481802  0.37041740  1
  N  N41  1  0.44551574  0.09438207  0.11994904  1
  N  N42  1  0.22284004  0.20604615  0.87226526  1
  N  N43  1  0.10919117  0.09629996  0.62716205  1
  N  N44  1  0.88825243  0.20580343  0.37569847  1
  N  N45  1  0.78921236  0.11040476  0.11326581  1
  N  N46  1  0.55607980  0.20583374  0.86961763  1
  N  N47  1  0.44330807  0.09537679  0.62071373  1
  N  N48  1  0.22138132  0.54044008  0.37224908  1
  N  N49  1  0.11127342  0.42824125  0.12130742  1
  N  N50  1  0.88921630  0.53907627  0.86927684  1
  N  N51  1  0.77888843  0.42517362  0.62458587  1
  N  N52  1  0.55773284  0.53812315  0.36874278  1
  N  N53  1  0.44394859  0.42750400  0.12168773  1
  N  N54  1  0.22246764  0.53866700  0.86896189  1
  N  N55  1  0.11109465  0.42699904  0.62039701  1
  N  N56  1  0.88692891  0.53875848  0.37086545  1
  N  N57  1  0.79078354  0.40254682  0.11364163  1
  N  N58  1  0.55528487  0.53854060  0.87170731  1
  N  N59  1  0.44420203  0.42743477  0.61905841  1
  N  N60  1  0.22065460  0.87440868  0.37146672  1
  N  N61  1  0.11486667  0.75843136  0.12045910  1
  N  N62  1  0.88874207  0.87181884  0.88072687  1
  N  N63  1  0.79229413  0.77554217  0.61947393  1
  N  N64  1  0.55615947  0.87190211  0.37208899  1
  N  N65  1  0.44412249  0.76106577  0.12046232  1
  N  N66  1  0.22226965  0.87139124  0.87019567  1
  N  N67  1  0.08187641  0.77577264  0.62064293  1
  N  N68  1  0.88687551  0.87530107  0.35892207  1
  N  N69  1  0.77705184  0.75777424  0.11953099  1
  N  N70  1  0.55621476  0.87185238  0.86871031  1
  N  N71  1  0.44437234  0.76123012  0.62012976  1
