# generated using pymatgen
data_Al17BN18
_symmetry_space_group_name_H-M   'P 1'
_cell_length_a   9.32128290
_cell_length_b   9.32992356
_cell_length_c   10.03718918
_cell_angle_alpha   89.93693551
_cell_angle_beta   89.82220869
_cell_angle_gamma   60.06909441
_symmetry_Int_Tables_number   1
_chemical_formula_structural   Al17BN18
_chemical_formula_sum   'Al34 B2 N36'
_cell_volume   756.47803123
_cell_formula_units_Z   2
loop_
 _symmetry_equiv_pos_site_id
 _symmetry_equiv_pos_as_xyz
  1  'x, y, z'
loop_
 _atom_site_type_symbol
 _atom_site_label
 _atom_site_symmetry_multiplicity
 _atom_site_fract_x
 _atom_site_fract_y
 _atom_site_fract_z
 _atom_site_occupancy
  Al  Al0  1  0.10140907  0.10567638  0.30804016  1
  Al  Al1  1  0.21814890  0.20587795  0.06087068  1
  Al  Al2  1  0.78242539  0.09004333  0.82351520  1
  Al  Al3  1  0.89096082  0.19861835  0.56265244  1
  Al  Al4  1  0.44639128  0.09355104  0.31044023  1
  Al  Al5  1  0.56021366  0.20730059  0.05791741  1
  Al  Al6  1  0.10572594  0.10195364  0.82135102  1
  Al  Al7  1  0.22126276  0.20459044  0.56003961  1
  Al  Al8  1  0.77772109  0.10242164  0.30170772  1
  Al  Al9  1  0.44436304  0.09507165  0.81000962  1
  Al  Al10  1  0.56161184  0.19798658  0.56133212  1
  Al  Al11  1  0.11001006  0.42938545  0.31114186  1
  Al  Al12  1  0.22876834  0.52760701  0.06318656  1
  Al  Al13  1  0.77900346  0.42495748  0.81487605  1
  Al  Al14  1  0.89032400  0.54208843  0.56194632  1
  Al  Al15  1  0.44502598  0.42751125  0.31181636  1
  Al  Al16  1  0.56058093  0.53215455  0.06019636  1
  Al  Al17  1  0.11220127  0.42749045  0.80909809  1
  Al  Al18  1  0.21641841  0.54129870  0.56115504  1
  Al  Al19  1  0.78074733  0.42323953  0.30686024  1
  Al  Al20  1  0.89064864  0.53131250  0.05751769  1
  Al  Al21  1  0.44422040  0.42799173  0.80844003  1
  Al  Al22  1  0.55741995  0.53784779  0.55891196  1
  Al  Al23  1  0.10153932  0.76957195  0.35539674  1
  Al  Al24  1  0.21784006  0.87495624  0.12292929  1
  Al  Al25  1  0.78236706  0.76364312  0.81640070  1
  Al  Al26  1  0.45106130  0.75862821  0.31121975  1
  Al  Al27  1  0.55612422  0.87028710  0.05624998  1
  Al  Al28  1  0.11050755  0.76402256  0.88778694  1
  Al  Al29  1  0.21022120  0.87254448  0.63034970  1
  Al  Al30  1  0.77605516  0.75915294  0.30457418  1
  Al  Al31  1  0.88578201  0.87694568  0.09089625  1
  Al  Al32  1  0.45111143  0.75632164  0.81161188  1
  Al  Al33  1  0.55953429  0.87483644  0.56106847  1
  B  B34  1  0.88479184  0.20925318  0.05701389  1
  B  B35  1  0.89011398  0.87222285  0.60307034  1
  N  N36  1  0.22191443  0.20580228  0.36922075  1
  N  N37  1  0.08296231  0.11229953  0.11172662  1
  N  N38  1  0.88741414  0.20763551  0.89052418  1
  N  N39  1  0.79396368  0.06455621  0.62410027  1
  N  N40  1  0.55839767  0.20450141  0.37090201  1
  N  N41  1  0.44650742  0.09316283  0.11918060  1
  N  N42  1  0.22357569  0.20651397  0.87208529  1
  N  N43  1  0.10576172  0.10297166  0.62646755  1
  N  N44  1  0.88659902  0.20673254  0.37578153  1
  N  N45  1  0.78612181  0.11791472  0.11013343  1
  N  N46  1  0.55553040  0.20645793  0.86779234  1
  N  N47  1  0.44320221  0.09534283  0.62006184  1
  N  N48  1  0.22288745  0.53835877  0.37033446  1
  N  N49  1  0.11072462  0.42624555  0.12213218  1
  N  N50  1  0.88988288  0.53822581  0.86707115  1
  N  N51  1  0.77845921  0.42530763  0.62338775  1
  N  N52  1  0.55852598  0.53726045  0.36863455  1
  N  N53  1  0.44664624  0.42529671  0.12263822  1
  N  N54  1  0.22547590  0.53244527  0.86987615  1
  N  N55  1  0.11128465  0.42700721  0.61980031  1
  N  N56  1  0.88707424  0.53932168  0.37126104  1
  N  N57  1  0.79071202  0.40313738  0.11293194  1
  N  N58  1  0.55613461  0.53671248  0.87089191  1
  N  N59  1  0.44411858  0.42769061  0.61800607  1
  N  N60  1  0.22036462  0.87569413  0.32247365  1
  N  N61  1  0.11844753  0.75563263  0.08123894  1
  N  N62  1  0.88188508  0.87565361  0.88505655  1
  N  N63  1  0.79352058  0.77657343  0.61912142  1
  N  N64  1  0.55745883  0.87219749  0.37226161  1
  N  N65  1  0.45165823  0.75607491  0.11734593  1
  N  N66  1  0.22006948  0.86988022  0.82758791  1
  N  N67  1  0.07520927  0.78012783  0.58026440  1
  N  N68  1  0.88508324  0.87650688  0.31075273  1
  N  N69  1  0.77361796  0.75168766  0.11530567  1
  N  N70  1  0.55623189  0.87236650  0.86648614  1
  N  N71  1  0.44863238  0.75898678  0.61785938  1
