# generated using pymatgen
data_Al17BN18
_symmetry_space_group_name_H-M   'P 1'
_cell_length_a   9.34191393
_cell_length_b   9.33284229
_cell_length_c   10.17916916
_cell_angle_alpha   89.95191221
_cell_angle_beta   89.73318837
_cell_angle_gamma   59.84513348
_symmetry_Int_Tables_number   1
_chemical_formula_structural   Al17BN18
_chemical_formula_sum   'Al34 B2 N36'
_cell_volume   767.37481170
_cell_formula_units_Z   2
loop_
 _symmetry_equiv_pos_site_id
 _symmetry_equiv_pos_as_xyz
  1  'x, y, z'
loop_
 _atom_site_type_symbol
 _atom_site_label
 _atom_site_symmetry_multiplicity
 _atom_site_fract_x
 _atom_site_fract_y
 _atom_site_fract_z
 _atom_site_occupancy
  Al  Al0  1  0.11380806  0.09401320  0.39468863  1
  Al  Al1  1  0.20966763  0.21014691  0.13563982  1
  Al  Al2  1  0.78369731  0.08230761  0.81239388  1
  Al  Al3  1  0.89127189  0.20303228  0.60561237  1
  Al  Al4  1  0.45112062  0.09070299  0.31444773  1
  Al  Al5  1  0.56308462  0.20662448  0.06359132  1
  Al  Al6  1  0.10166288  0.09760755  0.88167769  1
  Al  Al7  1  0.21698437  0.20975060  0.64280695  1
  Al  Al8  1  0.78176012  0.10364958  0.31386860  1
  Al  Al9  1  0.45223530  0.08844035  0.81928941  1
  Al  Al10  1  0.56332085  0.19432832  0.56530868  1
  Al  Al11  1  0.11105932  0.42484495  0.39011783  1
  Al  Al12  1  0.22234191  0.53691837  0.14197425  1
  Al  Al13  1  0.78149976  0.42144954  0.87989281  1
  Al  Al14  1  0.89025777  0.54869171  0.64057266  1
  Al  Al15  1  0.44469739  0.42864723  0.36424953  1
  Al  Al16  1  0.55993520  0.53266700  0.13750727  1
  Al  Al17  1  0.11115810  0.42816966  0.89018719  1
  Al  Al18  1  0.21361354  0.54487430  0.63415533  1
  Al  Al19  1  0.77696604  0.43156933  0.39602993  1
  Al  Al20  1  0.89103508  0.52904674  0.14095406  1
  Al  Al21  1  0.44385048  0.42629688  0.84952581  1
  Al  Al22  1  0.55629658  0.54368511  0.63989156  1
  Al  Al23  1  0.10089625  0.76871448  0.38262010  1
  Al  Al24  1  0.21462738  0.87521691  0.14101488  1
  Al  Al25  1  0.78421745  0.75595188  0.89505193  1
  Al  Al26  1  0.43934971  0.75900941  0.38779944  1
  Al  Al27  1  0.55087361  0.87593544  0.07155363  1
  Al  Al28  1  0.11321009  0.75938514  0.89537540  1
  Al  Al29  1  0.21471851  0.87507687  0.64082675  1
  Al  Al30  1  0.78615980  0.76173995  0.37437570  1
  Al  Al31  1  0.89222352  0.87298821  0.10965519  1
  Al  Al32  1  0.43774398  0.75917058  0.88956056  1
  Al  Al33  1  0.55590912  0.87930440  0.56924400  1
  B  B34  1  0.88630637  0.20799453  0.09518786  1
  B  B35  1  0.88798443  0.87201188  0.59578525  1
  N  N36  1  0.21649763  0.20670167  0.32482559  1
  N  N37  1  0.07857626  0.10898831  0.07773039  1
  N  N38  1  0.88844304  0.20802653  0.81074502  1
  N  N39  1  0.79239073  0.05703528  0.62008117  1
  N  N40  1  0.56073034  0.19875609  0.37695281  1
  N  N41  1  0.45032705  0.09449856  0.12601895  1
  N  N42  1  0.21760830  0.20713999  0.83330274  1
  N  N43  1  0.12315028  0.09040561  0.58090434  1
  N  N44  1  0.88550488  0.20388478  0.38889648  1
  N  N45  1  0.79148297  0.11923655  0.12081871  1
  N  N46  1  0.56209518  0.19960068  0.87505540  1
  N  N47  1  0.44945645  0.09381362  0.63111171  1
  N  N48  1  0.21725737  0.54146034  0.33300834  1
  N  N49  1  0.11073106  0.42865640  0.07736375  1
  N  N50  1  0.88953648  0.53987236  0.82817361  1
  N  N51  1  0.77438760  0.44405187  0.58243330  1
  N  N52  1  0.56014844  0.53931732  0.32650614  1
  N  N53  1  0.44374672  0.42729207  0.09984667  1
  N  N54  1  0.21612027  0.54237603  0.82345216  1
  N  N55  1  0.11091581  0.42737067  0.57729835  1
  N  N56  1  0.89018800  0.53555985  0.32806994  1
  N  N57  1  0.79352598  0.39797244  0.07626967  1
  N  N58  1  0.55716461  0.54061005  0.82891168  1
  N  N59  1  0.44621568  0.42732541  0.59705575  1
  N  N60  1  0.21912496  0.87460431  0.32822560  1
  N  N61  1  0.12168963  0.75351563  0.08149532  1
  N  N62  1  0.88722976  0.87747522  0.88579192  1
  N  N63  1  0.79853476  0.77459091  0.57632897  1
  N  N64  1  0.55469022  0.87482161  0.37766997  1
  N  N65  1  0.43757047  0.75914211  0.08071611  1
  N  N66  1  0.21872284  0.87201149  0.82822185  1
  N  N67  1  0.07962833  0.77900389  0.57762168  1
  N  N68  1  0.88920592  0.87230343  0.31045143  1
  N  N69  1  0.77895809  0.74937430  0.08653400  1
  N  N70  1  0.55365214  0.87320648  0.87726134  1
  N  N71  1  0.43698535  0.76116415  0.57898450  1
