# generated using pymatgen
data_Al17BN18
_symmetry_space_group_name_H-M   'P 1'
_cell_length_a   9.30054271
_cell_length_b   9.29831071
_cell_length_c   9.94033718
_cell_angle_alpha   89.99999771
_cell_angle_beta   89.96808216
_cell_angle_gamma   60.00794002
_symmetry_Int_Tables_number   1
_chemical_formula_structural   Al17BN18
_chemical_formula_sum   'Al34 B2 N36'
_cell_volume   744.52407430
_cell_formula_units_Z   2
loop_
 _symmetry_equiv_pos_site_id
 _symmetry_equiv_pos_as_xyz
  1  'x, y, z'
loop_
 _atom_site_type_symbol
 _atom_site_label
 _atom_site_symmetry_multiplicity
 _atom_site_fract_x
 _atom_site_fract_y
 _atom_site_fract_z
 _atom_site_occupancy
  Al  Al0  1  0.10555200  0.09710930  0.29256994  1
  Al  Al1  1  0.21714141  0.20738946  0.04694439  1
  Al  Al2  1  0.78177023  0.09052637  0.79926656  1
  Al  Al3  1  0.89035036  0.19997032  0.54868279  1
  Al  Al4  1  0.44446590  0.09418582  0.29634657  1
  Al  Al5  1  0.56087331  0.20651790  0.04683376  1
  Al  Al6  1  0.10847012  0.09556943  0.80391343  1
  Al  Al7  1  0.22105300  0.20461433  0.54701044  1
  Al  Al8  1  0.78177016  0.09437049  0.29926646  1
  Al  Al9  1  0.44452513  0.09476289  0.79716260  1
  Al  Al10  1  0.56087380  0.19927541  0.54683389  1
  Al  Al11  1  0.11085491  0.42773827  0.29685015  1
  Al  Al12  1  0.22105293  0.54099944  0.04701046  1
  Al  Al13  1  0.77899317  0.42515178  0.80381261  1
  Al  Al14  1  0.88966734  0.54100462  0.54730266  1
  Al  Al15  1  0.44452477  0.42737836  0.29716257  1
  Al  Al16  1  0.55905247  0.53385550  0.04703521  1
  Al  Al17  1  0.11085513  0.42807279  0.79685029  1
  Al  Al18  1  0.21714156  0.54213576  0.54694433  1
  Al  Al19  1  0.78079223  0.42206966  0.29305655  1
  Al  Al20  1  0.88966694  0.53599471  0.04730263  1
  Al  Al21  1  0.44446587  0.42801478  0.79634651  1
  Al  Al22  1  0.55734595  0.53755474  0.54653790  1
  Al  Al23  1  0.10846983  0.76262682  0.30391337  1
  Al  Al24  1  0.21616795  0.87499826  0.04721663  1
  Al  Al25  1  0.78079284  0.76380454  0.79305647  1
  Al  Al26  1  0.44440820  0.76153103  0.29712197  1
  Al  Al27  1  0.55734626  0.87176584  0.04653800  1
  Al  Al28  1  0.10555220  0.76400482  0.79257000  1
  Al  Al29  1  0.21616822  0.87550090  0.54721659  1
  Al  Al30  1  0.77899329  0.76252170  0.30381273  1
  Al  Al31  1  0.89034994  0.87634625  0.04868276  1
  Al  Al32  1  0.44440834  0.76072787  0.79712190  1
  Al  Al33  1  0.55905294  0.87375882  0.54703525  1
  B  B34  1  0.88904549  0.20470119  0.04436674  1
  B  B35  1  0.88904585  0.87291992  0.54436674  1
  N  N36  1  0.22103562  0.20424766  0.35419433  1
  N  N37  1  0.08593527  0.10689190  0.09841617  1
  N  N38  1  0.88804324  0.20439926  0.87694502  1
  N  N39  1  0.79096387  0.06989527  0.60310707  1
  N  N40  1  0.55750999  0.20405593  0.35493234  1
  N  N41  1  0.44443344  0.09518789  0.10474666  1
  N  N42  1  0.22232732  0.20607713  0.85690036  1
  N  N43  1  0.10945484  0.09544732  0.61181697  1
  N  N44  1  0.88934738  0.20559953  0.36049617  1
  N  N45  1  0.79096350  0.10580791  0.10310699  1
  N  N46  1  0.55751002  0.20510067  0.85493224  1
  N  N47  1  0.44342269  0.09511727  0.60611928  1
  N  N48  1  0.22232694  0.53826190  0.35690023  1
  N  N49  1  0.11105937  0.42872306  0.10609106  1
  N  N50  1  0.88791690  0.54145577  0.85552215  1
  N  N51  1  0.77916851  0.42502492  0.61071843  1
  N  N52  1  0.55791308  0.53770667  0.35419480  1
  N  N53  1  0.44342241  0.42812700  0.10611925  1
  N  N54  1  0.22103576  0.54138290  0.85419435  1
  N  N55  1  0.11105958  0.42688411  0.60609120  1
  N  N56  1  0.88791675  0.53729386  0.35552216  1
  N  N57  1  0.79065483  0.40280508  0.09869447  1
  N  N58  1  0.55506727  0.53892072  0.85678907  1
  N  N59  1  0.44443340  0.42704531  0.60474662  1
  N  N60  1  0.22118636  0.87508172  0.35544949  1
  N  N61  1  0.10945460  0.76176480  0.11181683  1
  N  N62  1  0.88934750  0.87171986  0.86049614  1
  N  N63  1  0.79065529  0.77320642  0.59869444  1
  N  N64  1  0.55506751  0.87267869  0.35678918  1
  N  N65  1  0.44395798  0.76142972  0.10514501  1
  N  N66  1  0.22118654  0.87039828  0.85544953  1
  N  N67  1  0.08593568  0.77383946  0.59841611  1
  N  N68  1  0.88804314  0.87422444  0.37694501  1
  N  N69  1  0.77916852  0.76247314  0.11071856  1
  N  N70  1  0.55791369  0.87104651  0.85419493  1
  N  N71  1  0.44395820  0.76127927  0.60514492  1
