# generated using pymatgen
data_Al17BN18
_symmetry_space_group_name_H-M   'P 1'
_cell_length_a   9.29588892
_cell_length_b   9.29471336
_cell_length_c   9.96651011
_cell_angle_alpha   89.98712633
_cell_angle_beta   89.99015219
_cell_angle_gamma   59.99253697
_symmetry_Int_Tables_number   1
_chemical_formula_structural   Al17BN18
_chemical_formula_sum   'Al34 B2 N36'
_cell_volume   745.70661001
_cell_formula_units_Z   2
loop_
 _symmetry_equiv_pos_site_id
 _symmetry_equiv_pos_as_xyz
  1  'x, y, z'
loop_
 _atom_site_type_symbol
 _atom_site_label
 _atom_site_symmetry_multiplicity
 _atom_site_fract_x
 _atom_site_fract_y
 _atom_site_fract_z
 _atom_site_occupancy
  Al  Al0  1  0.10793693  0.09580443  0.39391255  1
  Al  Al1  1  0.21631654  0.20727170  0.14799677  1
  Al  Al2  1  0.78193355  0.09396182  0.89192157  1
  Al  Al3  1  0.89040875  0.20052583  0.64388317  1
  Al  Al4  1  0.44411649  0.09486260  0.39748549  1
  Al  Al5  1  0.56146048  0.20640687  0.14806813  1
  Al  Al6  1  0.10589973  0.09693011  0.89903512  1
  Al  Al7  1  0.22196117  0.20500558  0.64855623  1
  Al  Al8  1  0.78144475  0.09061360  0.39810545  1
  Al  Al9  1  0.44480829  0.09386077  0.89915526  1
  Al  Al10  1  0.56005366  0.19961188  0.64830568  1
  Al  Al11  1  0.11048199  0.42785943  0.39799810  1
  Al  Al12  1  0.22105125  0.54085821  0.14866384  1
  Al  Al13  1  0.78073261  0.42229440  0.89855630  1
  Al  Al14  1  0.89013603  0.54218193  0.64849152  1
  Al  Al15  1  0.44490276  0.42775607  0.39833884  1
  Al  Al16  1  0.55969413  0.53303751  0.14796477  1
  Al  Al17  1  0.11131889  0.42777716  0.89869478  1
  Al  Al18  1  0.21730127  0.54226720  0.64776382  1
  Al  Al19  1  0.77876524  0.42532431  0.39418067  1
  Al  Al20  1  0.88965183  0.53509100  0.14767056  1
  Al  Al21  1  0.44439759  0.42733138  0.89820268  1
  Al  Al22  1  0.55632356  0.53863912  0.64900416  1
  Al  Al23  1  0.10514104  0.76458401  0.40214568  1
  Al  Al24  1  0.21525502  0.87572742  0.14771788  1
  Al  Al25  1  0.77883568  0.76254898  0.89198248  1
  Al  Al26  1  0.44398140  0.76085147  0.39762361  1
  Al  Al27  1  0.55720766  0.87170223  0.14910247  1
  Al  Al28  1  0.10866192  0.76202132  0.89156723  1
  Al  Al29  1  0.21666386  0.87463738  0.64837994  1
  Al  Al30  1  0.78066802  0.76371993  0.40159677  1
  Al  Al31  1  0.89024398  0.87700917  0.14627586  1
  Al  Al32  1  0.44444383  0.76154456  0.89858013  1
  Al  Al33  1  0.55895406  0.87378284  0.64780351  1
  B  B34  1  0.88872085  0.20474486  0.13962103  1
  B  B35  1  0.88860666  0.87265861  0.65062991  1
  N  N36  1  0.22178442  0.20563780  0.33766567  1
  N  N37  1  0.08419617  0.10767631  0.09331627  1
  N  N38  1  0.88946225  0.20561864  0.83170062  1
  N  N39  1  0.79030609  0.06915793  0.59359309  1
  N  N40  1  0.55765033  0.20464343  0.33953153  1
  N  N41  1  0.44443986  0.09505128  0.09027935  1
  N  N42  1  0.22178333  0.20456177  0.84071112  1
  N  N43  1  0.11154389  0.09466179  0.58543047  1
  N  N44  1  0.88742017  0.20463413  0.32698354  1
  N  N45  1  0.79173695  0.10648282  0.08858276  1
  N  N46  1  0.55682663  0.20429635  0.83961135  1
  N  N47  1  0.44361502  0.09510957  0.58825706  1
  N  N48  1  0.22093940  0.54138851  0.34085858  1
  N  N49  1  0.11115301  0.42861126  0.08897705  1
  N  N50  1  0.88863512  0.53772284  0.83964378  1
  N  N51  1  0.77832742  0.42783287  0.58665320  1
  N  N52  1  0.55552306  0.53887537  0.33783173  1
  N  N53  1  0.44343300  0.42799476  0.08882814  1
  N  N54  1  0.22259865  0.53804176  0.83771277  1
  N  N55  1  0.11123576  0.42698147  0.58855686  1
  N  N56  1  0.88738141  0.54125040  0.33905122  1
  N  N57  1  0.79138025  0.40098865  0.09306779  1
  N  N58  1  0.55701364  0.53820132  0.84069461  1
  N  N59  1  0.44481307  0.42707144  0.58973276  1
  N  N60  1  0.22068795  0.87125515  0.33908469  1
  N  N61  1  0.10946800  0.76153666  0.08326898  1
  N  N62  1  0.88855493  0.87293735  0.81787856  1
  N  N63  1  0.79066298  0.77339431  0.59591002  1
  N  N64  1  0.55767148  0.87104118  0.34077593  1
  N  N65  1  0.44390445  0.76135717  0.09004249  1
  N  N66  1  0.22166668  0.87398313  0.83953708  1
  N  N67  1  0.08594399  0.77393337  0.59613637  1
  N  N68  1  0.88863132  0.87243034  0.33417425  1
  N  N69  1  0.77908186  0.76241205  0.08457877  1
  N  N70  1  0.55511349  0.87249625  0.83796307  1
  N  N71  1  0.44366885  0.76155656  0.58934792  1
