# generated using pymatgen
data_Al17BN18
_symmetry_space_group_name_H-M   'P 1'
_cell_length_a   9.31754028
_cell_length_b   9.33438821
_cell_length_c   10.10245534
_cell_angle_alpha   90.04471003
_cell_angle_beta   89.79553722
_cell_angle_gamma   59.99300208
_symmetry_Int_Tables_number   1
_chemical_formula_structural   Al17BN18
_chemical_formula_sum   'Al34 B2 N36'
_cell_volume   760.86815835
_cell_formula_units_Z   2
loop_
 _symmetry_equiv_pos_site_id
 _symmetry_equiv_pos_as_xyz
  1  'x, y, z'
loop_
 _atom_site_type_symbol
 _atom_site_label
 _atom_site_symmetry_multiplicity
 _atom_site_fract_x
 _atom_site_fract_y
 _atom_site_fract_z
 _atom_site_occupancy
  Al  Al0  1  0.11289326  0.09366700  0.40520547  1
  Al  Al1  1  0.21275421  0.20884550  0.14447414  1
  Al  Al2  1  0.78236733  0.08276620  0.82352101  1
  Al  Al3  1  0.89137794  0.20276811  0.61662693  1
  Al  Al4  1  0.44383701  0.09621959  0.35146356  1
  Al  Al5  1  0.56597259  0.20191359  0.07633433  1
  Al  Al6  1  0.10081000  0.09745475  0.89180977  1
  Al  Al7  1  0.22046900  0.20807239  0.65174525  1
  Al  Al8  1  0.78225225  0.10254732  0.32402528  1
  Al  Al9  1  0.44598174  0.09342955  0.85963070  1
  Al  Al10  1  0.56550856  0.19199104  0.57593387  1
  Al  Al11  1  0.10982535  0.42733361  0.40009250  1
  Al  Al12  1  0.22483661  0.53621280  0.15264625  1
  Al  Al13  1  0.78093028  0.42146818  0.88972539  1
  Al  Al14  1  0.89109412  0.54633398  0.65074770  1
  Al  Al15  1  0.44261174  0.43491794  0.39877990  1
  Al  Al16  1  0.55944952  0.53176294  0.14750133  1
  Al  Al17  1  0.10980552  0.43077610  0.90023027  1
  Al  Al18  1  0.21659114  0.54285854  0.64709772  1
  Al  Al19  1  0.77560574  0.43156849  0.40557224  1
  Al  Al20  1  0.89154521  0.52886890  0.15094576  1
  Al  Al21  1  0.44013934  0.43528164  0.89623447  1
  Al  Al22  1  0.55416800  0.54187684  0.65241066  1
  Al  Al23  1  0.10159932  0.76759956  0.39138396  1
  Al  Al24  1  0.21614216  0.87567232  0.15041808  1
  Al  Al25  1  0.77685486  0.75900917  0.90584073  1
  Al  Al26  1  0.44293571  0.76080608  0.40017142  1
  Al  Al27  1  0.55693433  0.86520876  0.15050928  1
  Al  Al28  1  0.11276129  0.76037596  0.90468568  1
  Al  Al29  1  0.21607894  0.87474553  0.65041409  1
  Al  Al30  1  0.78152815  0.76414996  0.39066088  1
  Al  Al31  1  0.89230526  0.87175096  0.11761453  1
  Al  Al32  1  0.44321436  0.76255038  0.90016023  1
  Al  Al33  1  0.56098912  0.87097547  0.64590893  1
  B  B34  1  0.88701065  0.20773006  0.10604875  1
  B  B35  1  0.88809925  0.87110254  0.60603002  1
  N  N36  1  0.21460362  0.20832411  0.33507049  1
  N  N37  1  0.07865353  0.10918831  0.08849016  1
  N  N38  1  0.88800909  0.20786662  0.82136554  1
  N  N39  1  0.79315462  0.05538479  0.63025736  1
  N  N40  1  0.56160308  0.20252719  0.38348502  1
  N  N41  1  0.44641859  0.09276418  0.11614856  1
  N  N42  1  0.21655351  0.20832936  0.84387677  1
  N  N43  1  0.12238166  0.09021814  0.59232876  1
  N  N44  1  0.88523927  0.20429702  0.39871995  1
  N  N45  1  0.79198792  0.11859681  0.13111516  1
  N  N46  1  0.56243968  0.20298262  0.88386560  1
  N  N47  1  0.44407208  0.09505943  0.61757115  1
  N  N48  1  0.22113657  0.53960698  0.34202212  1
  N  N49  1  0.11148285  0.42898849  0.08862763  1
  N  N50  1  0.88895058  0.54056956  0.83944843  1
  N  N51  1  0.77286474  0.44299756  0.59380174  1
  N  N52  1  0.55728664  0.53916516  0.33594341  1
  N  N53  1  0.44187834  0.43186526  0.08796943  1
  N  N54  1  0.21987676  0.54157850  0.83554033  1
  N  N55  1  0.11114994  0.42775349  0.58860386  1
  N  N56  1  0.88854092  0.53766012  0.33965968  1
  N  N57  1  0.79369866  0.39711265  0.08756149  1
  N  N58  1  0.55513027  0.54101560  0.84103119  1
  N  N59  1  0.44368800  0.43225382  0.59037447  1
  N  N60  1  0.22071874  0.87423077  0.33943464  1
  N  N61  1  0.12306570  0.75304120  0.09246840  1
  N  N62  1  0.88549561  0.87772278  0.89824227  1
  N  N63  1  0.79434669  0.77514389  0.58723406  1
  N  N64  1  0.55707872  0.86704903  0.34175584  1
  N  N65  1  0.44222052  0.76090463  0.08930641  1
  N  N66  1  0.22083630  0.87212623  0.83956271  1
  N  N67  1  0.07976752  0.77732471  0.58869144  1
  N  N68  1  0.88810339  0.87116564  0.32169400  1
  N  N69  1  0.77492454  0.74946975  0.09344539  1
  N  N70  1  0.56023433  0.86507141  0.83699962  1
  N  N71  1  0.44198439  0.76160443  0.58927061  1
