# generated using pymatgen
data_Al17BN18
_symmetry_space_group_name_H-M   'P 1'
_cell_length_a   9.32393676
_cell_length_b   9.33230611
_cell_length_c   10.27645587
_cell_angle_alpha   89.99681845
_cell_angle_beta   89.72966403
_cell_angle_gamma   59.89795153
_symmetry_Int_Tables_number   1
_chemical_formula_structural   Al17BN18
_chemical_formula_sum   'Al34 B2 N36'
_cell_volume   773.58563688
_cell_formula_units_Z   2
loop_
 _symmetry_equiv_pos_site_id
 _symmetry_equiv_pos_as_xyz
  1  'x, y, z'
loop_
 _atom_site_type_symbol
 _atom_site_label
 _atom_site_symmetry_multiplicity
 _atom_site_fract_x
 _atom_site_fract_y
 _atom_site_fract_z
 _atom_site_occupancy
  Al  Al0  1  0.11481395  0.09311262  0.39642136  1
  Al  Al1  1  0.21028134  0.21004729  0.13719755  1
  Al  Al2  1  0.78339402  0.08289499  0.81337047  1
  Al  Al3  1  0.89194162  0.20220942  0.60587982  1
  Al  Al4  1  0.45190850  0.09010900  0.31519412  1
  Al  Al5  1  0.56167459  0.20732247  0.06380650  1
  Al  Al6  1  0.10070594  0.09923375  0.88261370  1
  Al  Al7  1  0.21774296  0.21003501  0.64387026  1
  Al  Al8  1  0.78303477  0.10202186  0.31546900  1
  Al  Al9  1  0.45208539  0.09105000  0.82017065  1
  Al  Al10  1  0.56192069  0.19643462  0.56468477  1
  Al  Al11  1  0.11152255  0.42477278  0.39109713  1
  Al  Al12  1  0.21616983  0.53953848  0.14261939  1
  Al  Al13  1  0.78127461  0.42159761  0.88122173  1
  Al  Al14  1  0.89018978  0.54942772  0.64145536  1
  Al  Al15  1  0.44841648  0.41997399  0.32275642  1
  Al  Al16  1  0.56622289  0.52819229  0.13394577  1
  Al  Al17  1  0.11048050  0.42940039  0.89051232  1
  Al  Al18  1  0.21082356  0.54636219  0.63607161  1
  Al  Al19  1  0.77741384  0.43001726  0.39732648  1
  Al  Al20  1  0.89048899  0.52967856  0.14237298  1
  Al  Al21  1  0.44662147  0.42091300  0.81961638  1
  Al  Al22  1  0.56268302  0.53781198  0.63941699  1
  Al  Al23  1  0.10217008  0.76700350  0.38376373  1
  Al  Al24  1  0.20675605  0.88052611  0.14113120  1
  Al  Al25  1  0.78412570  0.75612433  0.89716652  1
  Al  Al26  1  0.44698158  0.76315547  0.31900990  1
  Al  Al27  1  0.54668161  0.87469276  0.06847438  1
  Al  Al28  1  0.11392548  0.75964465  0.89668303  1
  Al  Al29  1  0.20815633  0.87869017  0.64159998  1
  Al  Al30  1  0.78625113  0.76072197  0.37784798  1
  Al  Al31  1  0.89016087  0.87281913  0.11073143  1
  Al  Al32  1  0.44433564  0.76726373  0.82236777  1
  Al  Al33  1  0.55105063  0.87875147  0.56794502  1
  B  B34  1  0.88660803  0.20726459  0.09561699  1
  B  B35  1  0.88655046  0.87247206  0.59595206  1
  N  N36  1  0.21659195  0.20654908  0.32486764  1
  N  N37  1  0.07819867  0.10995359  0.07750707  1
  N  N38  1  0.88803361  0.20905439  0.81077100  1
  N  N39  1  0.79224592  0.05701824  0.62148573  1
  N  N40  1  0.55977591  0.19996832  0.37931796  1
  N  N41  1  0.45158504  0.09296180  0.12751910  1
  N  N42  1  0.21694081  0.20854727  0.83283187  1
  N  N43  1  0.12404421  0.09097747  0.58063709  1
  N  N44  1  0.88625526  0.20223153  0.39093966  1
  N  N45  1  0.79151546  0.11895933  0.12271178  1
  N  N46  1  0.56022694  0.20310697  0.87897877  1
  N  N47  1  0.45098682  0.09335324  0.63272475  1
  N  N48  1  0.21559191  0.54169480  0.33318822  1
  N  N49  1  0.11011663  0.42800468  0.07683384  1
  N  N50  1  0.88813725  0.54134246  0.82782620  1
  N  N51  1  0.77753269  0.44204963  0.58196118  1
  N  N52  1  0.56505000  0.53330060  0.32853580  1
  N  N53  1  0.44601017  0.41983391  0.12860013  1
  N  N54  1  0.21392712  0.54409874  0.82514229  1
  N  N55  1  0.11120225  0.42734824  0.57726231  1
  N  N56  1  0.88985567  0.53528498  0.32834468  1
  N  N57  1  0.79526460  0.39644668  0.07569405  1
  N  N58  1  0.55880538  0.53770554  0.83604237  1
  N  N59  1  0.44975067  0.42009823  0.62466906  1
  N  N60  1  0.21385612  0.87709042  0.32949811  1
  N  N61  1  0.12131837  0.75342290  0.08094840  1
  N  N62  1  0.88610489  0.87865465  0.88708287  1
  N  N63  1  0.79736375  0.77497823  0.57566425  1
  N  N64  1  0.55169701  0.87402809  0.38187959  1
  N  N65  1  0.44197997  0.76409388  0.12674812  1
  N  N66  1  0.21218861  0.87672697  0.82989526  1
  N  N67  1  0.07951275  0.77862056  0.57750799  1
  N  N68  1  0.88865253  0.87080528  0.31093725  1
  N  N69  1  0.77767313  0.74881462  0.08558599  1
  N  N70  1  0.55020273  0.87598952  0.88214558  1
  N  N71  1  0.44397897  0.76672831  0.62890265  1
