# generated using pymatgen
data_Al17BN18
_symmetry_space_group_name_H-M   'P 1'
_cell_length_a   9.32547567
_cell_length_b   9.33087626
_cell_length_c   10.13608980
_cell_angle_alpha   90.06803786
_cell_angle_beta   89.75040829
_cell_angle_gamma   59.94969306
_symmetry_Int_Tables_number   1
_chemical_formula_structural   Al17BN18
_chemical_formula_sum   'Al34 B2 N36'
_cell_volume   763.42559394
_cell_formula_units_Z   2
loop_
 _symmetry_equiv_pos_site_id
 _symmetry_equiv_pos_as_xyz
  1  'x, y, z'
loop_
 _atom_site_type_symbol
 _atom_site_label
 _atom_site_symmetry_multiplicity
 _atom_site_fract_x
 _atom_site_fract_y
 _atom_site_fract_z
 _atom_site_occupancy
  Al  Al0  1  0.11333029  0.09391982  0.39414489  1
  Al  Al1  1  0.20967947  0.21006223  0.13471931  1
  Al  Al2  1  0.78292236  0.08279938  0.81304189  1
  Al  Al3  1  0.89091053  0.20323284  0.60528190  1
  Al  Al4  1  0.44730640  0.09687375  0.31888527  1
  Al  Al5  1  0.56597877  0.20026014  0.06315000  1
  Al  Al6  1  0.10193786  0.09769098  0.88058594  1
  Al  Al7  1  0.21546264  0.21129789  0.64113070  1
  Al  Al8  1  0.78161993  0.10332332  0.31361110  1
  Al  Al9  1  0.45098643  0.09244430  0.81815841  1
  Al  Al10  1  0.56520713  0.19197058  0.56383440  1
  Al  Al11  1  0.11031353  0.42667285  0.38909165  1
  Al  Al12  1  0.22529153  0.53556284  0.14173492  1
  Al  Al13  1  0.78090494  0.42193670  0.87830695  1
  Al  Al14  1  0.89021799  0.54778885  0.64058222  1
  Al  Al15  1  0.44249443  0.43407517  0.38834105  1
  Al  Al16  1  0.55951479  0.53021598  0.13657100  1
  Al  Al17  1  0.11117290  0.42915094  0.88924373  1
  Al  Al18  1  0.21652163  0.54316330  0.63640023  1
  Al  Al19  1  0.77533773  0.43210499  0.39483089  1
  Al  Al20  1  0.89200541  0.52810700  0.14004353  1
  Al  Al21  1  0.44041700  0.43368595  0.88527564  1
  Al  Al22  1  0.55361559  0.54168349  0.64210695  1
  Al  Al23  1  0.10164537  0.76757288  0.38054060  1
  Al  Al24  1  0.21481992  0.87576217  0.13966429  1
  Al  Al25  1  0.77732738  0.75953453  0.89351686  1
  Al  Al26  1  0.44092906  0.75982179  0.38768580  1
  Al  Al27  1  0.55641926  0.86569082  0.12464480  1
  Al  Al28  1  0.11330681  0.75968891  0.89397992  1
  Al  Al29  1  0.21445964  0.87509259  0.64018097  1
  Al  Al30  1  0.78363242  0.76337032  0.37727722  1
  Al  Al31  1  0.89329969  0.87223017  0.10685123  1
  Al  Al32  1  0.44260116  0.76278095  0.88721504  1
  Al  Al33  1  0.55954150  0.87131667  0.60991775  1
  B  B34  1  0.88640411  0.20809932  0.09477394  1
  B  B35  1  0.88854045  0.87150426  0.59483744  1
  N  N36  1  0.21440316  0.20836858  0.32490030  1
  N  N37  1  0.07842451  0.10906338  0.07734764  1
  N  N38  1  0.88856328  0.20793055  0.81018013  1
  N  N39  1  0.79285254  0.05588768  0.61965140  1
  N  N40  1  0.56100609  0.20102969  0.37498240  1
  N  N41  1  0.44922630  0.09528730  0.12481659  1
  N  N42  1  0.21744299  0.20776741  0.83280149  1
  N  N43  1  0.12265284  0.09017489  0.58074901  1
  N  N44  1  0.88504754  0.20437469  0.38874072  1
  N  N45  1  0.79132821  0.11934074  0.12059779  1
  N  N46  1  0.56211423  0.20036416  0.87402668  1
  N  N47  1  0.44540619  0.09889215  0.62490632  1
  N  N48  1  0.22135404  0.53928063  0.33081293  1
  N  N49  1  0.11186511  0.42855241  0.07735975  1
  N  N50  1  0.89003805  0.54009786  0.82854834  1
  N  N51  1  0.77213033  0.44454492  0.58269220  1
  N  N52  1  0.55732691  0.53788527  0.32433292  1
  N  N53  1  0.44208302  0.43064333  0.07648040  1
  N  N54  1  0.22033000  0.54087360  0.82431808  1
  N  N55  1  0.11025636  0.42907164  0.57714428  1
  N  N56  1  0.88918593  0.53676480  0.32788692  1
  N  N57  1  0.79350573  0.39744075  0.07616943  1
  N  N58  1  0.55495614  0.53980313  0.82990787  1
  N  N59  1  0.44348586  0.43201576  0.57936269  1
  N  N60  1  0.21951946  0.87461371  0.32754741  1
  N  N61  1  0.12355941  0.75218809  0.08118360  1
  N  N62  1  0.88646135  0.87788058  0.88790988  1
  N  N63  1  0.79670999  0.77480639  0.57473317  1
  N  N64  1  0.55584992  0.87001841  0.34865281  1
  N  N65  1  0.44047657  0.76000743  0.07826690  1
  N  N66  1  0.21989010  0.87208110  0.82830174  1
  N  N67  1  0.07984301  0.77773769  0.57745861  1
  N  N68  1  0.88904961  0.87153404  0.30976346  1
  N  N69  1  0.77726255  0.74897920  0.08316937  1
  N  N70  1  0.55992962  0.86508899  0.83360697  1
  N  N71  1  0.43812562  0.76025075  0.57710074  1
