# generated using pymatgen
data_Al17BN18
_symmetry_space_group_name_H-M   'P 1'
_cell_length_a   9.30055516
_cell_length_b   9.29831915
_cell_length_c   9.94027795
_cell_angle_alpha   90.00007724
_cell_angle_beta   90.03222801
_cell_angle_gamma   60.00805188
_symmetry_Int_Tables_number   1
_chemical_formula_structural   Al17BN18
_chemical_formula_sum   'Al34 B2 N36'
_cell_volume   744.52214724
_cell_formula_units_Z   2
loop_
 _symmetry_equiv_pos_site_id
 _symmetry_equiv_pos_as_xyz
  1  'x, y, z'
loop_
 _atom_site_type_symbol
 _atom_site_label
 _atom_site_symmetry_multiplicity
 _atom_site_fract_x
 _atom_site_fract_y
 _atom_site_fract_z
 _atom_site_occupancy
  Al  Al0  1  0.10842648  0.09559097  0.39197089  1
  Al  Al1  1  0.21709911  0.20741344  0.14895176  1
  Al  Al2  1  0.78172379  0.09439387  0.89663839  1
  Al  Al3  1  0.89030559  0.19999080  0.64721693  1
  Al  Al4  1  0.44448206  0.09478429  0.39873491  1
  Al  Al5  1  0.56082588  0.20654111  0.14906201  1
  Al  Al6  1  0.10550670  0.09713221  0.90333132  1
  Al  Al7  1  0.22100427  0.20463538  0.64888127  1
  Al  Al8  1  0.78172623  0.09054823  0.39662650  1
  Al  Al9  1  0.44441853  0.09421046  0.89954388  1
  Al  Al10  1  0.56083027  0.19929740  0.64906095  1
  Al  Al11  1  0.11081088  0.42809633  0.39904516  1
  Al  Al12  1  0.22100647  0.54102398  0.14888024  1
  Al  Al13  1  0.78074543  0.42209312  0.90284280  1
  Al  Al14  1  0.88961987  0.54102294  0.64858851  1
  Al  Al15  1  0.44441917  0.42803771  0.39954673  1
  Al  Al16  1  0.55900473  0.53388113  0.14886061  1
  Al  Al17  1  0.11080751  0.42776065  0.89904278  1
  Al  Al18  1  0.21709603  0.54215704  0.64895201  1
  Al  Al19  1  0.77894925  0.42517293  0.39207057  1
  Al  Al20  1  0.88962198  0.53602105  0.14859108  1
  Al  Al21  1  0.44447980  0.42740149  0.89873247  1
  Al  Al22  1  0.55730347  0.53757350  0.64935172  1
  Al  Al23  1  0.10550920  0.76402516  0.40332472  1
  Al  Al24  1  0.21612552  0.87501759  0.14867766  1
  Al  Al25  1  0.77894885  0.76254438  0.89207294  1
  Al  Al26  1  0.44436498  0.76075070  0.39877324  1
  Al  Al27  1  0.55730192  0.87178935  0.14935071  1
  Al  Al28  1  0.10842309  0.76265196  0.89197393  1
  Al  Al29  1  0.21612215  0.87552605  0.64867576  1
  Al  Al30  1  0.78074734  0.76382721  0.40283657  1
  Al  Al31  1  0.89030623  0.87636628  0.14721274  1
  Al  Al32  1  0.44436269  0.76155288  0.89876990  1
  Al  Al33  1  0.55900757  0.87378065  0.64886045  1
  B  B34  1  0.88900060  0.20472310  0.15153880  1
  B  B35  1  0.88899988  0.87294481  0.65152565  1
  N  N36  1  0.22228478  0.20610094  0.33899528  1
  N  N37  1  0.08589380  0.10691311  0.09748486  1
  N  N38  1  0.88930145  0.20562187  0.83540537  1
  N  N39  1  0.79091939  0.06991799  0.59278451  1
  N  N40  1  0.55746508  0.20512334  0.34096338  1
  N  N41  1  0.44438747  0.09521206  0.09114458  1
  N  N42  1  0.22098721  0.20427024  0.84169823  1
  N  N43  1  0.10940512  0.09547055  0.58406954  1
  N  N44  1  0.88799914  0.20442029  0.31893997  1
  N  N45  1  0.79091669  0.10582955  0.09279453  1
  N  N46  1  0.55746613  0.20407888  0.84096304  1
  N  N47  1  0.44337678  0.09513933  0.58977779  1
  N  N48  1  0.22099029  0.54140571  0.34169726  1
  N  N49  1  0.11101349  0.42874601  0.08980192  1
  N  N50  1  0.88786931  0.53731493  0.84036942  1
  N  N51  1  0.77912463  0.42504043  0.58516718  1
  N  N52  1  0.55502036  0.53894423  0.33910564  1
  N  N53  1  0.44337703  0.42815033  0.08977574  1
  N  N54  1  0.22228091  0.53828447  0.83899520  1
  N  N55  1  0.11101317  0.42690641  0.58980360  1
  N  N56  1  0.88787336  0.54147921  0.34037104  1
  N  N57  1  0.79060746  0.40283192  0.09720540  1
  N  N58  1  0.55786896  0.53772811  0.84169678  1
  N  N59  1  0.44438619  0.42706716  0.59114675  1
  N  N60  1  0.22114382  0.87041756  0.34044418  1
  N  N61  1  0.10940854  0.76178910  0.08407267  1
  N  N62  1  0.88799565  0.87425148  0.81894630  1
  N  N63  1  0.79060885  0.77322786  0.59719910  1
  N  N64  1  0.55786903  0.87106972  0.34169593  1
  N  N65  1  0.44391292  0.76145236  0.09074689  1
  N  N66  1  0.22114000  0.87510776  0.84044317  1
  N  N67  1  0.08589103  0.77386110  0.59747855  1
  N  N68  1  0.88930447  0.87174059  0.33539917  1
  N  N69  1  0.77912395  0.76249670  0.08516976  1
  N  N70  1  0.55502106  0.87270217  0.83910500  1
  N  N71  1  0.44391370  0.76130098  0.59074951  1
