# generated using pymatgen
data_Al17BN18
_symmetry_space_group_name_H-M   'P 1'
_cell_length_a   9.32747313
_cell_length_b   9.33161591
_cell_length_c   10.13751426
_cell_angle_alpha   90.06865512
_cell_angle_beta   89.75048956
_cell_angle_gamma   59.94130598
_symmetry_Int_Tables_number   1
_chemical_formula_structural   Al17BN18
_chemical_formula_sum   'Al34 B2 N36'
_cell_volume   763.69224264
_cell_formula_units_Z   2
loop_
 _symmetry_equiv_pos_site_id
 _symmetry_equiv_pos_as_xyz
  1  'x, y, z'
loop_
 _atom_site_type_symbol
 _atom_site_label
 _atom_site_symmetry_multiplicity
 _atom_site_fract_x
 _atom_site_fract_y
 _atom_site_fract_z
 _atom_site_occupancy
  Al  Al0  1  0.11333910  0.09394952  0.39417507  1
  Al  Al1  1  0.20951235  0.21013142  0.13487983  1
  Al  Al2  1  0.78286306  0.08282695  0.81303784  1
  Al  Al3  1  0.89093696  0.20322779  0.60530614  1
  Al  Al4  1  0.44768991  0.09619960  0.31884300  1
  Al  Al5  1  0.56609153  0.20034935  0.06311245  1
  Al  Al6  1  0.10196756  0.09772429  0.88056219  1
  Al  Al7  1  0.21547295  0.21128764  0.64127702  1
  Al  Al8  1  0.78156205  0.10338799  0.31368172  1
  Al  Al9  1  0.45133778  0.09178467  0.81797470  1
  Al  Al10  1  0.56521461  0.19206587  0.56392947  1
  Al  Al11  1  0.11042649  0.42656989  0.38914631  1
  Al  Al12  1  0.22528573  0.53556195  0.14175509  1
  Al  Al13  1  0.78089101  0.42195039  0.87830062  1
  Al  Al14  1  0.89012086  0.54792157  0.64063411  1
  Al  Al15  1  0.44249204  0.43398930  0.38837339  1
  Al  Al16  1  0.55953462  0.53012375  0.13669365  1
  Al  Al17  1  0.11125771  0.42905109  0.88921904  1
  Al  Al18  1  0.21651719  0.54317750  0.63641315  1
  Al  Al19  1  0.77535078  0.43209250  0.39490202  1
  Al  Al20  1  0.89208487  0.52796259  0.14016065  1
  Al  Al21  1  0.44041641  0.43359803  0.88525116  1
  Al  Al22  1  0.55362186  0.54169615  0.64219280  1
  Al  Al23  1  0.10165131  0.76758198  0.38064543  1
  Al  Al24  1  0.21465374  0.87577302  0.13978385  1
  Al  Al25  1  0.77786961  0.75932382  0.89342306  1
  Al  Al26  1  0.44062241  0.75952936  0.38760746  1
  Al  Al27  1  0.55584501  0.86675697  0.11766099  1
  Al  Al28  1  0.11330530  0.75968892  0.89400367  1
  Al  Al29  1  0.21440662  0.87508508  0.64027970  1
  Al  Al30  1  0.78412703  0.76313966  0.37697780  1
  Al  Al31  1  0.89343681  0.87226373  0.10697694  1
  Al  Al32  1  0.44222135  0.76255547  0.88707654  1
  Al  Al33  1  0.55882257  0.87250411  0.60209021  1
  B  B34  1  0.88640657  0.20811349  0.09479227  1
  B  B35  1  0.88863894  0.87143274  0.59494630  1
  N  N36  1  0.21453626  0.20826031  0.32488305  1
  N  N37  1  0.07844313  0.10905327  0.07737946  1
  N  N38  1  0.88856098  0.20792982  0.81020413  1
  N  N39  1  0.79287964  0.05592402  0.61966293  1
  N  N40  1  0.56094520  0.20099249  0.37499107  1
  N  N41  1  0.44936663  0.09522585  0.12531351  1
  N  N42  1  0.21747526  0.20775819  0.83278187  1
  N  N43  1  0.12271086  0.09017696  0.58074646  1
  N  N44  1  0.88507480  0.20437075  0.38872157  1
  N  N45  1  0.79134363  0.11936561  0.12063851  1
  N  N46  1  0.56205406  0.20034831  0.87406042  1
  N  N47  1  0.44562005  0.09870771  0.62533959  1
  N  N48  1  0.22134518  0.53928998  0.33082440  1
  N  N49  1  0.11191954  0.42849005  0.07737065  1
  N  N50  1  0.89007666  0.54003703  0.82856748  1
  N  N51  1  0.77212143  0.44458030  0.58270495  1
  N  N52  1  0.55737461  0.53780231  0.32435765  1
  N  N53  1  0.44207269  0.43062132  0.07651783  1
  N  N54  1  0.22032053  0.54087692  0.82433905  1
  N  N55  1  0.11029128  0.42903102  0.57716861  1
  N  N56  1  0.88926141  0.53663850  0.32790443  1
  N  N57  1  0.79348936  0.39747349  0.07619910  1
  N  N58  1  0.55497223  0.53968803  0.82993141  1
  N  N59  1  0.44350682  0.43196491  0.57938893  1
  N  N60  1  0.21942808  0.87465377  0.32754348  1
  N  N61  1  0.12355768  0.75216340  0.08119507  1
  N  N62  1  0.88655993  0.87792194  0.88795436  1
  N  N63  1  0.79723257  0.77463267  0.57499009  1
  N  N64  1  0.55553805  0.87095889  0.35473447  1
  N  N65  1  0.44004473  0.75960379  0.07861735  1
  N  N66  1  0.21969957  0.87212505  0.82832511  1
  N  N67  1  0.07991780  0.77775227  0.57746751  1
  N  N68  1  0.88913986  0.87159676  0.30973463  1
  N  N69  1  0.77791802  0.74873394  0.08367509  1
  N  N70  1  0.55924034  0.86603651  0.83886739  1
  N  N71  1  0.43770509  0.75996612  0.57738205  1
