# generated using pymatgen
data_Al17BN18
_symmetry_space_group_name_H-M   'P 1'
_cell_length_a   9.34227941
_cell_length_b   9.34122300
_cell_length_c   10.20977265
_cell_angle_alpha   90.02919132
_cell_angle_beta   89.74288879
_cell_angle_gamma   59.88226441
_symmetry_Int_Tables_number   1
_chemical_formula_structural   Al17BN18
_chemical_formula_sum   'Al34 B2 N36'
_cell_volume   770.69092800
_cell_formula_units_Z   2
loop_
 _symmetry_equiv_pos_site_id
 _symmetry_equiv_pos_as_xyz
  1  'x, y, z'
loop_
 _atom_site_type_symbol
 _atom_site_label
 _atom_site_symmetry_multiplicity
 _atom_site_fract_x
 _atom_site_fract_y
 _atom_site_fract_z
 _atom_site_occupancy
  Al  Al0  1  0.11418859  0.09412744  0.39612269  1
  Al  Al1  1  0.21008645  0.20992273  0.13646677  1
  Al  Al2  1  0.78292605  0.08279310  0.81328108  1
  Al  Al3  1  0.89155826  0.20228723  0.60638923  1
  Al  Al4  1  0.45160406  0.09143007  0.31480639  1
  Al  Al5  1  0.56158944  0.20833094  0.06360344  1
  Al  Al6  1  0.10047454  0.09921900  0.88241639  1
  Al  Al7  1  0.21753250  0.20971756  0.64321224  1
  Al  Al8  1  0.78294223  0.10245931  0.31532449  1
  Al  Al9  1  0.45203297  0.09017755  0.81956720  1
  Al  Al10  1  0.56171146  0.19688871  0.56471421  1
  Al  Al11  1  0.11176482  0.42495129  0.39097178  1
  Al  Al12  1  0.21637130  0.53969260  0.14213432  1
  Al  Al13  1  0.78197570  0.42093728  0.88081935  1
  Al  Al14  1  0.88995270  0.54917564  0.64105062  1
  Al  Al15  1  0.44845433  0.42042730  0.32256990  1
  Al  Al16  1  0.56428872  0.53165109  0.13404288  1
  Al  Al17  1  0.11092177  0.42879943  0.89024333  1
  Al  Al18  1  0.21091555  0.54664178  0.63500162  1
  Al  Al19  1  0.77789211  0.43025931  0.39731951  1
  Al  Al20  1  0.89067140  0.52937199  0.14208248  1
  Al  Al21  1  0.44649810  0.41998893  0.81829675  1
  Al  Al22  1  0.55975667  0.54260119  0.63962917  1
  Al  Al23  1  0.10187714  0.76750104  0.38399859  1
  Al  Al24  1  0.21032904  0.87823741  0.14014515  1
  Al  Al25  1  0.78467024  0.75569848  0.89644778  1
  Al  Al26  1  0.44381599  0.76097963  0.34957555  1
  Al  Al27  1  0.54910837  0.87572381  0.07102270  1
  Al  Al28  1  0.11284319  0.75918909  0.89599323  1
  Al  Al29  1  0.21330278  0.87636349  0.64082960  1
  Al  Al30  1  0.78727734  0.76105119  0.37658646  1
  Al  Al31  1  0.89076066  0.87340013  0.11029510  1
  Al  Al32  1  0.44022742  0.76266117  0.86108612  1
  Al  Al33  1  0.55215189  0.87854060  0.56835277  1
  B  B34  1  0.88634422  0.20759939  0.09574923  1
  B  B35  1  0.88667621  0.87256017  0.59610563  1
  N  N36  1  0.21692503  0.20658046  0.32524524  1
  N  N37  1  0.07795441  0.10980927  0.07788509  1
  N  N38  1  0.88798264  0.20821339  0.81113253  1
  N  N39  1  0.79168907  0.05724487  0.62081126  1
  N  N40  1  0.56005034  0.20075409  0.37849716  1
  N  N41  1  0.45083588  0.09451031  0.12664113  1
  N  N42  1  0.21734081  0.20765948  0.83337954  1
  N  N43  1  0.12307159  0.09102395  0.58138548  1
  N  N44  1  0.88635551  0.20292378  0.38979568  1
  N  N45  1  0.79117014  0.11939739  0.12184672  1
  N  N46  1  0.56011107  0.20274852  0.87798635  1
  N  N47  1  0.45022824  0.09368290  0.63143249  1
  N  N48  1  0.21606295  0.54205434  0.33396763  1
  N  N49  1  0.11015705  0.42809574  0.07725384  1
  N  N50  1  0.88877532  0.54045717  0.82835087  1
  N  N51  1  0.77649345  0.44219386  0.58291045  1
  N  N52  1  0.56500365  0.53483445  0.32678527  1
  N  N53  1  0.44594136  0.42081384  0.12810949  1
  N  N54  1  0.21429444  0.54358585  0.82531716  1
  N  N55  1  0.11100239  0.42737505  0.57769029  1
  N  N56  1  0.89039820  0.53528015  0.32880020  1
  N  N57  1  0.79470792  0.39692998  0.07596598  1
  N  N58  1  0.55877676  0.53758016  0.83451663  1
  N  N59  1  0.44971191  0.42051373  0.62401409  1
  N  N60  1  0.21512619  0.87684240  0.32833391  1
  N  N61  1  0.12093776  0.75365083  0.08116326  1
  N  N62  1  0.88611255  0.87843439  0.88672360  1
  N  N63  1  0.79757686  0.77489029  0.57602334  1
  N  N64  1  0.55447394  0.87545578  0.37833591  1
  N  N65  1  0.43912748  0.76194581  0.10282590  1
  N  N66  1  0.21408837  0.87511672  0.82977997  1
  N  N67  1  0.07909654  0.77933563  0.57814569  1
  N  N68  1  0.88946885  0.87160729  0.31104987  1
  N  N69  1  0.77856180  0.74897473  0.08650974  1
  N  N70  1  0.55271743  0.87555730  0.88014864  1
  N  N71  1  0.43991653  0.76369938  0.60155518  1
