# generated using pymatgen
data_Al17BN18
_symmetry_space_group_name_H-M   'P 1'
_cell_length_a   9.30284048
_cell_length_b   9.32215767
_cell_length_c   10.13766317
_cell_angle_alpha   90.02024108
_cell_angle_beta   89.77909853
_cell_angle_gamma   60.06583160
_symmetry_Int_Tables_number   1
_chemical_formula_structural   Al17BN18
_chemical_formula_sum   'Al34 B2 N36'
_cell_volume   761.87459707
_cell_formula_units_Z   2
loop_
 _symmetry_equiv_pos_site_id
 _symmetry_equiv_pos_as_xyz
  1  'x, y, z'
loop_
 _atom_site_type_symbol
 _atom_site_label
 _atom_site_symmetry_multiplicity
 _atom_site_fract_x
 _atom_site_fract_y
 _atom_site_fract_z
 _atom_site_occupancy
  Al  Al0  1  0.10292362  0.10465163  0.32374461  1
  Al  Al1  1  0.21529836  0.20524988  0.06097943  1
  Al  Al2  1  0.78138811  0.08864328  0.81500509  1
  Al  Al3  1  0.88963505  0.20153052  0.57276767  1
  Al  Al4  1  0.44704549  0.09361497  0.30810226  1
  Al  Al5  1  0.56126985  0.20768244  0.05711269  1
  Al  Al6  1  0.10543441  0.10132553  0.80707144  1
  Al  Al7  1  0.22528671  0.20522521  0.55766855  1
  Al  Al8  1  0.77795974  0.10075430  0.30920364  1
  Al  Al9  1  0.44356052  0.09434615  0.81069816  1
  Al  Al10  1  0.56151953  0.19705365  0.55922004  1
  Al  Al11  1  0.11182661  0.43087853  0.30902922  1
  Al  Al12  1  0.22853187  0.52891276  0.06002704  1
  Al  Al13  1  0.77722831  0.42747690  0.80674277  1
  Al  Al14  1  0.89204599  0.54395519  0.55969660  1
  Al  Al15  1  0.44384436  0.42866972  0.31023721  1
  Al  Al16  1  0.55955354  0.53322223  0.06058053  1
  Al  Al17  1  0.11137736  0.42612008  0.81007509  1
  Al  Al18  1  0.22079677  0.53545103  0.56224254  1
  Al  Al19  1  0.78098008  0.42478120  0.31512111  1
  Al  Al20  1  0.89111971  0.53044231  0.05734659  1
  Al  Al21  1  0.44599182  0.42676395  0.80909841  1
  Al  Al22  1  0.55748867  0.53870717  0.55646691  1
  Al  Al23  1  0.09762387  0.77202891  0.37580674  1
  Al  Al24  1  0.21323657  0.87418469  0.13475284  1
  Al  Al25  1  0.78188851  0.76311656  0.81699302  1
  Al  Al26  1  0.45159319  0.75890854  0.31309846  1
  Al  Al27  1  0.55433875  0.87007762  0.05546278  1
  Al  Al28  1  0.10996786  0.76670874  0.88610829  1
  Al  Al29  1  0.21338062  0.86998311  0.62392370  1
  Al  Al30  1  0.77680489  0.75928910  0.30254847  1
  Al  Al31  1  0.88840882  0.87607328  0.09186051  1
  Al  Al32  1  0.44957875  0.75623359  0.80818796  1
  Al  Al33  1  0.56072726  0.87447626  0.56020024  1
  B  B34  1  0.88641823  0.20980956  0.10048141  1
  B  B35  1  0.88675528  0.87226231  0.59931733  1
  N  N36  1  0.22427809  0.20823136  0.36899432  1
  N  N37  1  0.07734786  0.11508966  0.12378136  1
  N  N38  1  0.88510677  0.20725353  0.84256144  1
  N  N39  1  0.79194861  0.06034393  0.61625170  1
  N  N40  1  0.55665212  0.20562583  0.37037108  1
  N  N41  1  0.44599141  0.09331965  0.11843179  1
  N  N42  1  0.22122398  0.20358971  0.87277635  1
  N  N43  1  0.11417348  0.09789232  0.61289393  1
  N  N44  1  0.88416059  0.20805999  0.38286815  1
  N  N45  1  0.78812401  0.11984489  0.11638302  1
  N  N46  1  0.55563799  0.20500304  0.86895958  1
  N  N47  1  0.44481813  0.09467196  0.62138423  1
  N  N48  1  0.22406265  0.53787907  0.37296631  1
  N  N49  1  0.11138459  0.42660783  0.12121742  1
  N  N50  1  0.88859943  0.53793377  0.86873769  1
  N  N51  1  0.77638138  0.43473682  0.61704575  1
  N  N52  1  0.55702632  0.53798263  0.36847127  1
  N  N53  1  0.44613764  0.42572163  0.12226594  1
  N  N54  1  0.22520776  0.53225924  0.86847797  1
  N  N55  1  0.11207902  0.42584592  0.62168115  1
  N  N56  1  0.88953029  0.54082875  0.37060989  1
  N  N57  1  0.79212950  0.40098613  0.12055534  1
  N  N58  1  0.55592624  0.53818583  0.87233513  1
  N  N59  1  0.44777855  0.42567861  0.61928606  1
  N  N60  1  0.21965280  0.87376072  0.32888188  1
  N  N61  1  0.11956615  0.75756995  0.07473417  1
  N  N62  1  0.87974112  0.87731802  0.88447617  1
  N  N63  1  0.79417021  0.77495814  0.61940504  1
  N  N64  1  0.55843002  0.87306311  0.37232273  1
  N  N65  1  0.44865387  0.75802938  0.12104521  1
  N  N66  1  0.21811185  0.86883054  0.81642206  1
  N  N67  1  0.07467067  0.77913506  0.57248009  1
  N  N68  1  0.88878495  0.87438501  0.30871048  1
  N  N69  1  0.77292467  0.75196263  0.11507498  1
  N  N70  1  0.55462667  0.87138250  0.86688560  1
  N  N71  1  0.45083945  0.75806775  0.61556935  1
