# generated using pymatgen
data_Al17BN18
_symmetry_space_group_name_H-M   'P 1'
_cell_length_a   9.33624667
_cell_length_b   9.32850625
_cell_length_c   10.22303550
_cell_angle_alpha   90.02856134
_cell_angle_beta   89.72808954
_cell_angle_gamma   59.85447436
_symmetry_Int_Tables_number   1
_chemical_formula_structural   Al17BN18
_chemical_formula_sum   'Al34 B2 N36'
_cell_volume   769.92584459
_cell_formula_units_Z   2
loop_
 _symmetry_equiv_pos_site_id
 _symmetry_equiv_pos_as_xyz
  1  'x, y, z'
loop_
 _atom_site_type_symbol
 _atom_site_label
 _atom_site_symmetry_multiplicity
 _atom_site_fract_x
 _atom_site_fract_y
 _atom_site_fract_z
 _atom_site_occupancy
  Al  Al0  1  0.11454035  0.09368255  0.39549388  1
  Al  Al1  1  0.20972783  0.20992788  0.13661861  1
  Al  Al2  1  0.78257277  0.08307434  0.81316206  1
  Al  Al3  1  0.89149104  0.20241527  0.60624009  1
  Al  Al4  1  0.45168596  0.09055740  0.31491292  1
  Al  Al5  1  0.56151796  0.20897683  0.06334840  1
  Al  Al6  1  0.10124552  0.09826951  0.88176853  1
  Al  Al7  1  0.21725277  0.20981532  0.64337510  1
  Al  Al8  1  0.78273671  0.10260073  0.31516123  1
  Al  Al9  1  0.45218016  0.08931536  0.81968249  1
  Al  Al10  1  0.56139613  0.19772604  0.56433352  1
  Al  Al11  1  0.11201020  0.42488449  0.39094866  1
  Al  Al12  1  0.21616892  0.53982326  0.14202157  1
  Al  Al13  1  0.78116860  0.42171341  0.88013223  1
  Al  Al14  1  0.89021952  0.54884769  0.64112025  1
  Al  Al15  1  0.44878529  0.42086199  0.32135797  1
  Al  Al16  1  0.56286022  0.53483448  0.13567802  1
  Al  Al17  1  0.11098796  0.42871302  0.89026691  1
  Al  Al18  1  0.21069462  0.54673635  0.63506971  1
  Al  Al19  1  0.77730654  0.43080270  0.39661457  1
  Al  Al20  1  0.89078275  0.52901591  0.14202135  1
  Al  Al21  1  0.44663284  0.42054317  0.81744290  1
  Al  Al22  1  0.55852695  0.54498999  0.64078363  1
  Al  Al23  1  0.10205297  0.76768814  0.38330476  1
  Al  Al24  1  0.21351483  0.87610470  0.14108426  1
  Al  Al25  1  0.78409851  0.75605819  0.89573010  1
  Al  Al26  1  0.44062385  0.75762516  0.38446728  1
  Al  Al27  1  0.55028548  0.87666182  0.07127870  1
  Al  Al28  1  0.11294742  0.75952379  0.89536823  1
  Al  Al29  1  0.21485723  0.87524869  0.64103133  1
  Al  Al30  1  0.78696693  0.76104244  0.37543758  1
  Al  Al31  1  0.89115598  0.87364424  0.11002012  1
  Al  Al32  1  0.43759512  0.75967203  0.88812297  1
  Al  Al33  1  0.55483716  0.87989203  0.56834186  1
  B  B34  1  0.88623489  0.20765018  0.09543480  1
  B  B35  1  0.88703044  0.87267769  0.59599129  1
  N  N36  1  0.21684431  0.20661426  0.32508680  1
  N  N37  1  0.07838733  0.10914031  0.07770030  1
  N  N38  1  0.88812143  0.20820707  0.81087848  1
  N  N39  1  0.79140543  0.05753244  0.62075650  1
  N  N40  1  0.55979102  0.20121590  0.37832844  1
  N  N41  1  0.45049627  0.09481979  0.12684667  1
  N  N42  1  0.21730303  0.20762186  0.83310626  1
  N  N43  1  0.12354719  0.09037508  0.58109409  1
  N  N44  1  0.88635962  0.20292631  0.38978786  1
  N  N45  1  0.79098480  0.11954184  0.12183222  1
  N  N46  1  0.55975396  0.20330578  0.87797443  1
  N  N47  1  0.45000443  0.09396935  0.63159231  1
  N  N48  1  0.21621872  0.54200651  0.33372051  1
  N  N49  1  0.11020224  0.42805766  0.07705701  1
  N  N50  1  0.88914385  0.54026758  0.82811657  1
  N  N51  1  0.77541303  0.44321645  0.58247192  1
  N  N52  1  0.56319457  0.53888322  0.32546414  1
  N  N53  1  0.44614842  0.42152090  0.12825475  1
  N  N54  1  0.21422287  0.54359284  0.82517898  1
  N  N55  1  0.11106022  0.42730343  0.57748321  1
  N  N56  1  0.89091308  0.53487208  0.32850315  1
  N  N57  1  0.79384526  0.39759574  0.07558339  1
  N  N58  1  0.55749228  0.54090530  0.83155772  1
  N  N59  1  0.44958506  0.42110854  0.62413383  1
  N  N60  1  0.21902040  0.87471578  0.32766046  1
  N  N61  1  0.12124813  0.75393866  0.08086394  1
  N  N62  1  0.88619825  0.87866799  0.88688871  1
  N  N63  1  0.79816867  0.77459666  0.57622368  1
  N  N64  1  0.55501843  0.87503131  0.37777473  1
  N  N65  1  0.43677099  0.75984371  0.08102938  1
  N  N66  1  0.21799099  0.87279625  0.82803992  1
  N  N67  1  0.07933873  0.77949343  0.57777833  1
  N  N68  1  0.88979776  0.87159209  0.31077326  1
  N  N69  1  0.77871997  0.74891870  0.08661014  1
  N  N70  1  0.55313402  0.87462314  0.87845216  1
  N  N71  1  0.43720149  0.76069566  0.57879719  1
