# generated using pymatgen
data_Al17BN18
_symmetry_space_group_name_H-M   'P 1'
_cell_length_a   9.34159183
_cell_length_b   9.34198288
_cell_length_c   10.21374191
_cell_angle_alpha   90.02817392
_cell_angle_beta   89.74401983
_cell_angle_gamma   59.89107863
_symmetry_Int_Tables_number   1
_chemical_formula_structural   Al17BN18
_chemical_formula_sum   'Al34 B2 N36'
_cell_volume   771.06546303
_cell_formula_units_Z   2
loop_
 _symmetry_equiv_pos_site_id
 _symmetry_equiv_pos_as_xyz
  1  'x, y, z'
loop_
 _atom_site_type_symbol
 _atom_site_label
 _atom_site_symmetry_multiplicity
 _atom_site_fract_x
 _atom_site_fract_y
 _atom_site_fract_z
 _atom_site_occupancy
  Al  Al0  1  0.11427636  0.09395853  0.39621082  1
  Al  Al1  1  0.21018552  0.20993985  0.13654653  1
  Al  Al2  1  0.78301418  0.08274920  0.81332293  1
  Al  Al3  1  0.89160164  0.20225818  0.60631738  1
  Al  Al4  1  0.45165201  0.09128675  0.31495652  1
  Al  Al5  1  0.56158307  0.20815538  0.06365921  1
  Al  Al6  1  0.10039098  0.09927596  0.88257473  1
  Al  Al7  1  0.21760948  0.20972924  0.64326859  1
  Al  Al8  1  0.78299352  0.10244195  0.31538540  1
  Al  Al9  1  0.45200242  0.09032092  0.81972961  1
  Al  Al10  1  0.56176513  0.19670487  0.56471172  1
  Al  Al11  1  0.11173013  0.42494491  0.39095712  1
  Al  Al12  1  0.21637699  0.53966136  0.14223141  1
  Al  Al13  1  0.78196523  0.42087801  0.88099226  1
  Al  Al14  1  0.88998577  0.54923832  0.64109173  1
  Al  Al15  1  0.44845285  0.42042378  0.32280435  1
  Al  Al16  1  0.56498534  0.53044158  0.13376897  1
  Al  Al17  1  0.11087719  0.42883518  0.89025625  1
  Al  Al18  1  0.21087479  0.54659560  0.63510084  1
  Al  Al19  1  0.77780894  0.43024546  0.39737503  1
  Al  Al20  1  0.89068637  0.52944185  0.14214338  1
  Al  Al21  1  0.44647464  0.41999830  0.81863753  1
  Al  Al22  1  0.56056510  0.54108682  0.63929731  1
  Al  Al23  1  0.10195096  0.76747474  0.38403210  1
  Al  Al24  1  0.20903581  0.87907179  0.14025706  1
  Al  Al25  1  0.78463992  0.75563365  0.89669814  1
  Al  Al26  1  0.44506849  0.76211069  0.33476357  1
  Al  Al27  1  0.54848437  0.87531930  0.07060635  1
  Al  Al28  1  0.11297802  0.75916457  0.89615801  1
  Al  Al29  1  0.21183716  0.87707776  0.64092745  1
  Al  Al30  1  0.78707955  0.76105737  0.37683447  1
  Al  Al31  1  0.89062073  0.87333824  0.11034937  1
  Al  Al32  1  0.44163750  0.76404794  0.84521733  1
  Al  Al33  1  0.55165603  0.87831740  0.56821588  1
  B  B34  1  0.88638037  0.20757683  0.09580508  1
  B  B35  1  0.88657601  0.87254351  0.59612698  1
  N  N36  1  0.21692856  0.20656431  0.32525133  1
  N  N37  1  0.07790091  0.10995171  0.07792425  1
  N  N38  1  0.88796685  0.20827635  0.81112920  1
  N  N39  1  0.79176186  0.05719474  0.62085903  1
  N  N40  1  0.56004612  0.20059974  0.37856290  1
  N  N41  1  0.45099389  0.09426471  0.12670468  1
  N  N42  1  0.21731562  0.20769285  0.83338176  1
  N  N43  1  0.12313330  0.09110083  0.58136838  1
  N  N44  1  0.88637560  0.20290298  0.38993874  1
  N  N45  1  0.79121120  0.11937474  0.12189670  1
  N  N46  1  0.56015058  0.20263500  0.87805274  1
  N  N47  1  0.45035699  0.09357111  0.63157056  1
  N  N48  1  0.21600831  0.54201146  0.33393679  1
  N  N49  1  0.11016358  0.42809106  0.07723446  1
  N  N50  1  0.88864752  0.54054112  0.82834331  1
  N  N51  1  0.77676823  0.44208235  0.58289623  1
  N  N52  1  0.56521102  0.53402188  0.32774808  1
  N  N53  1  0.44590007  0.42069866  0.12807900  1
  N  N54  1  0.21426070  0.54358951  0.82529435  1
  N  N55  1  0.11101633  0.42735213  0.57768298  1
  N  N56  1  0.89030468  0.53534137  0.32881241  1
  N  N57  1  0.79495769  0.39677860  0.07604198  1
  N  N58  1  0.55899536  0.53681961  0.83567549  1
  N  N59  1  0.44967566  0.42042707  0.62402363  1
  N  N60  1  0.21434980  0.87716340  0.32907646  1
  N  N61  1  0.12100582  0.75357875  0.08118147  1
  N  N62  1  0.88603951  0.87837596  0.88674824  1
  N  N63  1  0.79749882  0.77491689  0.57603854  1
  N  N64  1  0.55372558  0.87502184  0.37931392  1
  N  N65  1  0.44028423  0.76292886  0.11404852  1
  N  N66  1  0.21294560  0.87575641  0.83041724  1
  N  N67  1  0.07910688  0.77921493  0.57818059  1
  N  N68  1  0.88928825  0.87155835  0.31108121  1
  N  N69  1  0.77839956  0.74897818  0.08645668  1
  N  N70  1  0.55205263  0.87550487  0.88109047  1
  N  N71  1  0.44118875  0.76490226  0.61319562  1
