# generated using pymatgen
data_Al17BN18
_symmetry_space_group_name_H-M   'P 1'
_cell_length_a   9.30424406
_cell_length_b   9.30828981
_cell_length_c   10.09316764
_cell_angle_alpha   90.03622029
_cell_angle_beta   89.66141822
_cell_angle_gamma   59.98630939
_symmetry_Int_Tables_number   1
_chemical_formula_structural   Al17BN18
_chemical_formula_sum   'Al34 B2 N36'
_cell_volume   756.89888812
_cell_formula_units_Z   2
loop_
 _symmetry_equiv_pos_site_id
 _symmetry_equiv_pos_as_xyz
  1  'x, y, z'
loop_
 _atom_site_type_symbol
 _atom_site_label
 _atom_site_symmetry_multiplicity
 _atom_site_fract_x
 _atom_site_fract_y
 _atom_site_fract_z
 _atom_site_occupancy
  Al  Al0  1  0.11465800  0.09344475  0.40521727  1
  Al  Al1  1  0.21501542  0.20749435  0.14760224  1
  Al  Al2  1  0.78753453  0.08087017  0.82555594  1
  Al  Al3  1  0.89114913  0.20273718  0.61484709  1
  Al  Al4  1  0.44359986  0.09531719  0.39764398  1
  Al  Al5  1  0.55406538  0.21048121  0.14546265  1
  Al  Al6  1  0.10375577  0.09699394  0.89242920  1
  Al  Al7  1  0.22345260  0.20578793  0.65318473  1
  Al  Al8  1  0.78550507  0.09982961  0.33274357  1
  Al  Al9  1  0.44695962  0.09273994  0.89903381  1
  Al  Al10  1  0.55291953  0.20274548  0.64424779  1
  Al  Al11  1  0.11053272  0.42687702  0.40002795  1
  Al  Al12  1  0.22332919  0.53785931  0.15249389  1
  Al  Al13  1  0.78123650  0.42043922  0.89128100  1
  Al  Al14  1  0.89090644  0.54604310  0.65244823  1
  Al  Al15  1  0.44544325  0.42811221  0.39912794  1
  Al  Al16  1  0.55954222  0.53250294  0.14727068  1
  Al  Al17  1  0.11143635  0.42884071  0.90027095  1
  Al  Al18  1  0.21502291  0.54416752  0.64853240  1
  Al  Al19  1  0.77480159  0.43316548  0.40594785  1
  Al  Al20  1  0.89072869  0.53053151  0.15069718  1
  Al  Al21  1  0.44502604  0.42633524  0.89747937  1
  Al  Al22  1  0.55391721  0.54232924  0.65296598  1
  Al  Al23  1  0.10377465  0.76595608  0.39528695  1
  Al  Al24  1  0.21567474  0.87610278  0.15045148  1
  Al  Al25  1  0.77665636  0.75969172  0.90405410  1
  Al  Al26  1  0.44320953  0.76080294  0.39963114  1
  Al  Al27  1  0.55478850  0.87065931  0.15246774  1
  Al  Al28  1  0.11349929  0.75867395  0.90342347  1
  Al  Al29  1  0.21601325  0.87459097  0.65186305  1
  Al  Al30  1  0.78025379  0.76446691  0.39419177  1
  Al  Al31  1  0.89236155  0.87179761  0.12716101  1
  Al  Al32  1  0.44408149  0.76211835  0.90007507  1
  Al  Al33  1  0.55887277  0.87452181  0.64784291  1
  B  B34  1  0.88727810  0.20627257  0.10686469  1
  B  B35  1  0.88641436  0.87295533  0.61059952  1
  N  N36  1  0.22112296  0.20505712  0.33627119  1
  N  N37  1  0.08004205  0.10928816  0.08950155  1
  N  N38  1  0.89061226  0.20687608  0.82279902  1
  N  N39  1  0.79179878  0.05793751  0.62689939  1
  N  N40  1  0.55190875  0.20751853  0.33654387  1
  N  N41  1  0.44482469  0.09301838  0.08900543  1
  N  N42  1  0.22318443  0.20486247  0.84286954  1
  N  N43  1  0.12331362  0.08991488  0.59284959  1
  N  N44  1  0.88645782  0.20546674  0.40056926  1
  N  N45  1  0.79436559  0.11576040  0.13159323  1
  N  N46  1  0.55352487  0.20627399  0.83554060  1
  N  N47  1  0.44295419  0.09493017  0.58627918  1
  N  N48  1  0.22191105  0.53967938  0.34243796  1
  N  N49  1  0.11185722  0.42820764  0.08965796  1
  N  N50  1  0.88942309  0.53886183  0.84117103  1
  N  N51  1  0.77243060  0.44341591  0.59435217  1
  N  N52  1  0.55678496  0.53847534  0.33640670  1
  N  N53  1  0.44345936  0.42808130  0.08649460  1
  N  N54  1  0.22288713  0.53890753  0.83688002  1
  N  N55  1  0.11164449  0.42688612  0.58953658  1
  N  N56  1  0.88848141  0.53851583  0.33990174  1
  N  N57  1  0.79345226  0.39715408  0.08882475  1
  N  N58  1  0.55542029  0.53931231  0.84217384  1
  N  N59  1  0.44429231  0.42960521  0.58873510  1
  N  N60  1  0.22061608  0.87377602  0.33964265  1
  N  N61  1  0.12053643  0.75474130  0.09163857  1
  N  N62  1  0.88961320  0.87049965  0.88224861  1
  N  N63  1  0.79302641  0.77554874  0.58996480  1
  N  N64  1  0.55532214  0.87179640  0.34191596  1
  N  N65  1  0.44293805  0.76178786  0.09020176  1
  N  N66  1  0.22204378  0.87125611  0.84062655  1
  N  N67  1  0.08006432  0.77735178  0.59076724  1
  N  N68  1  0.88961764  0.86973037  0.32633740  1
  N  N69  1  0.77430763  0.75370909  0.09326077  1
  N  N70  1  0.55701414  0.87088826  0.83688726  1
  N  N71  1  0.44206591  0.76228363  0.58974098  1
