# generated using pymatgen
data_Al17BN18
_symmetry_space_group_name_H-M   'P 1'
_cell_length_a   9.29924672
_cell_length_b   9.35258324
_cell_length_c   10.20794238
_cell_angle_alpha   90.00046380
_cell_angle_beta   89.36384580
_cell_angle_gamma   59.79860402
_symmetry_Int_Tables_number   1
_chemical_formula_structural   Al17BN18
_chemical_formula_sum   'Al34 B2 N36'
_cell_volume   767.23320281
_cell_formula_units_Z   2
loop_
 _symmetry_equiv_pos_site_id
 _symmetry_equiv_pos_as_xyz
  1  'x, y, z'
loop_
 _atom_site_type_symbol
 _atom_site_label
 _atom_site_symmetry_multiplicity
 _atom_site_fract_x
 _atom_site_fract_y
 _atom_site_fract_z
 _atom_site_occupancy
  Al  Al0  1  0.11548468  0.09247707  0.39717299  1
  Al  Al1  1  0.21137291  0.20971171  0.13920740  1
  Al  Al2  1  0.78207194  0.08557812  0.82058796  1
  Al  Al3  1  0.88854512  0.20131158  0.59784732  1
  Al  Al4  1  0.45195883  0.09008394  0.31790248  1
  Al  Al5  1  0.56007827  0.20933756  0.06745456  1
  Al  Al6  1  0.09982321  0.09929406  0.88893135  1
  Al  Al7  1  0.21710434  0.20773870  0.64575570  1
  Al  Al8  1  0.78207083  0.09902505  0.32058794  1
  Al  Al9  1  0.45077030  0.09147869  0.82270287  1
  Al  Al10  1  0.56007471  0.19724713  0.56745520  1
  Al  Al11  1  0.11605076  0.42394949  0.39063091  1
  Al  Al12  1  0.21710491  0.54181132  0.14575586  1
  Al  Al13  1  0.77720954  0.42926731  0.81377593  1
  Al  Al14  1  0.88739200  0.54744138  0.58594383  1
  Al  Al15  1  0.45077086  0.42443011  0.32270297  1
  Al  Al16  1  0.55739566  0.53365521  0.07030489  1
  Al  Al17  1  0.11604971  0.42667335  0.89063146  1
  Al  Al18  1  0.21137029  0.54557248  0.63920692  1
  Al  Al19  1  0.78312762  0.41956717  0.32882762  1
  Al  Al20  1  0.88739107  0.53182406  0.08594349  1
  Al  Al21  1  0.45195796  0.42463686  0.81790300  1
  Al  Al22  1  0.55425318  0.54147639  0.56568914  1
  Al  Al23  1  0.09982420  0.76755517  0.38893163  1
  Al  Al24  1  0.20896942  0.87928461  0.14425570  1
  Al  Al25  1  0.78312834  0.76397902  0.82882714  1
  Al  Al26  1  0.44965679  0.75919920  0.32068026  1
  Al  Al27  1  0.55425260  0.87093427  0.06568904  1
  Al  Al28  1  0.11548545  0.75871020  0.89717331  1
  Al  Al29  1  0.20897079  0.87840228  0.64425711  1
  Al  Al30  1  0.77721183  0.76019800  0.31377610  1
  Al  Al31  1  0.88854724  0.87680080  0.09784857  1
  Al  Al32  1  0.44965745  0.75782355  0.82068016  1
  Al  Al33  1  0.55739605  0.87560993  0.57030441  1
  B  B34  1  0.88616648  0.20777820  0.10794576  1
  B  B35  1  0.88616699  0.87272089  0.60794598  1
  N  N36  1  0.21617403  0.20654850  0.32648127  1
  N  N37  1  0.07852353  0.11065641  0.08371601  1
  N  N38  1  0.88917636  0.20345085  0.82254153  1
  N  N39  1  0.79117056  0.05791333  0.62535556  1
  N  N40  1  0.55650788  0.20381720  0.38087375  1
  N  N41  1  0.45297718  0.09108068  0.12755253  1
  N  N42  1  0.21664131  0.20666324  0.83519615  1
  N  N43  1  0.12280137  0.08987898  0.58159355  1
  N  N44  1  0.88180046  0.20708368  0.39566817  1
  N  N45  1  0.79118069  0.11759141  0.12535458  1
  N  N46  1  0.55650600  0.20633224  0.88087406  1
  N  N47  1  0.45066629  0.09204260  0.63359319  1
  N  N48  1  0.21664269  0.54334078  0.33519601  1
  N  N49  1  0.11852741  0.42551346  0.07898213  1
  N  N50  1  0.88608332  0.53985032  0.86839880  1
  N  N51  1  0.77270966  0.43808802  0.62600119  1
  N  N52  1  0.55499237  0.53990928  0.37948685  1
  N  N53  1  0.45066758  0.42397644  0.13359323  1
  N  N54  1  0.21617280  0.54392464  0.82648185  1
  N  N55  1  0.11853052  0.42263417  0.57898107  1
  N  N56  1  0.88608347  0.54071461  0.36839884  1
  N  N57  1  0.79375842  0.39612545  0.13063355  1
  N  N58  1  0.55560167  0.53838892  0.88362766  1
  N  N59  1  0.45297696  0.42262993  0.62755165  1
  N  N60  1  0.21476892  0.87593467  0.33258472  1
  N  N61  1  0.12280449  0.75399625  0.08159330  1
  N  N62  1  0.88180055  0.87776532  0.89566844  1
  N  N63  1  0.79376664  0.77679166  0.63063351  1
  N  N64  1  0.55560160  0.87266612  0.38362792  1
  N  N65  1  0.44854399  0.75875283  0.13037950  1
  N  N66  1  0.21477050  0.87594221  0.83258456  1
  N  N67  1  0.07852347  0.77749046  0.58371647  1
  N  N68  1  0.88917744  0.87401907  0.32254106  1
  N  N69  1  0.77270821  0.75588678  0.12600265  1
  N  N70  1  0.55499405  0.87175405  0.87948625  1
  N  N71  1  0.44854396  0.75939090  0.63038082  1
