# generated using pymatgen
data_Al17BN18
_symmetry_space_group_name_H-M   'P 1'
_cell_length_a   9.30054460
_cell_length_b   9.29831138
_cell_length_c   9.94033847
_cell_angle_alpha   89.99999827
_cell_angle_beta   89.96808948
_cell_angle_gamma   60.00794425
_symmetry_Int_Tables_number   1
_chemical_formula_structural   Al17BN18
_chemical_formula_sum   'Al34 B2 N36'
_cell_volume   744.52440838
_cell_formula_units_Z   2
loop_
 _symmetry_equiv_pos_site_id
 _symmetry_equiv_pos_as_xyz
  1  'x, y, z'
loop_
 _atom_site_type_symbol
 _atom_site_label
 _atom_site_symmetry_multiplicity
 _atom_site_fract_x
 _atom_site_fract_y
 _atom_site_fract_z
 _atom_site_occupancy
  Al  Al0  1  0.10555078  0.09711012  0.29458102  1
  Al  Al1  1  0.21714026  0.20739056  0.04895954  1
  Al  Al2  1  0.78176811  0.09052778  0.80127757  1
  Al  Al3  1  0.89034904  0.19997163  0.55069265  1
  Al  Al4  1  0.44446343  0.09418737  0.29836458  1
  Al  Al5  1  0.56087123  0.20651834  0.04884947  1
  Al  Al6  1  0.10846769  0.09557044  0.80593133  1
  Al  Al7  1  0.22105034  0.20461520  0.54902778  1
  Al  Al8  1  0.78176809  0.09437115  0.30127745  1
  Al  Al9  1  0.44452355  0.09476343  0.79917814  1
  Al  Al10  1  0.56087180  0.19927701  0.54884955  1
  Al  Al11  1  0.11085295  0.42773884  0.29886639  1
  Al  Al12  1  0.22105014  0.54100129  0.04902783  1
  Al  Al13  1  0.77899156  0.42515230  0.80583034  1
  Al  Al14  1  0.88966538  0.54100442  0.54931780  1
  Al  Al15  1  0.44452324  0.42737942  0.29917813  1
  Al  Al16  1  0.55904981  0.53385707  0.04905015  1
  Al  Al17  1  0.11085308  0.42807422  0.79886649  1
  Al  Al18  1  0.21714053  0.54213577  0.54895952  1
  Al  Al19  1  0.78078963  0.42207141  0.29506862  1
  Al  Al20  1  0.88966485  0.53599693  0.04931784  1
  Al  Al21  1  0.44446332  0.42801574  0.79836454  1
  Al  Al22  1  0.55734462  0.53755519  0.54855597  1
  Al  Al23  1  0.10846748  0.76262820  0.30593132  1
  Al  Al24  1  0.21616621  0.87499775  0.04923168  1
  Al  Al25  1  0.78079019  0.76380536  0.79506855  1
  Al  Al26  1  0.44440631  0.76153150  0.29913825  1
  Al  Al27  1  0.55734479  0.87176683  0.04855604  1
  Al  Al28  1  0.10555091  0.76400523  0.79458109  1
  Al  Al29  1  0.21616654  0.87550311  0.54923164  1
  Al  Al30  1  0.77899174  0.76252278  0.30583050  1
  Al  Al31  1  0.89034854  0.87634630  0.05069264  1
  Al  Al32  1  0.44440637  0.76072937  0.79913817  1
  Al  Al33  1  0.55905038  0.87375983  0.54905022  1
  B  B34  1  0.88904291  0.20470155  0.04637919  1
  B  B35  1  0.88904334  0.87292211  0.54637922  1
  N  N36  1  0.22103302  0.20424847  0.35621081  1
  N  N37  1  0.08593381  0.10689239  0.10042821  1
  N  N38  1  0.88804065  0.20439978  0.87895979  1
  N  N39  1  0.79096224  0.06989690  0.60511934  1
  N  N40  1  0.55750874  0.20405692  0.35694753  1
  N  N41  1  0.44443123  0.09518913  0.10676381  1
  N  N42  1  0.22232565  0.20607826  0.85891574  1
  N  N43  1  0.10945168  0.09544877  0.61383359  1
  N  N44  1  0.88934572  0.20560032  0.36250643  1
  N  N45  1  0.79096182  0.10580794  0.10511923  1
  N  N46  1  0.55750871  0.20510096  0.85694750  1
  N  N47  1  0.44342098  0.09511812  0.60813458  1
  N  N48  1  0.22232535  0.53826241  0.35891570  1
  N  N49  1  0.11105718  0.42872385  0.10810707  1
  N  N50  1  0.88791474  0.54145735  0.85753725  1
  N  N51  1  0.77916748  0.42502457  0.61273485  1
  N  N52  1  0.55791162  0.53770732  0.35621145  1
  N  N53  1  0.44342056  0.42812793  0.10813460  1
  N  N54  1  0.22103298  0.54138476  0.85621082  1
  N  N55  1  0.11105750  0.42688549  0.60810714  1
  N  N56  1  0.88791466  0.53729436  0.35753720  1
  N  N57  1  0.79065237  0.40280662  0.10070715  1
  N  N58  1  0.55506509  0.53892198  0.85880458  1
  N  N59  1  0.44443136  0.42704621  0.60676377  1
  N  N60  1  0.22118424  0.87508363  0.35746435  1
  N  N61  1  0.10945137  0.76176657  0.11383350  1
  N  N62  1  0.88934577  0.87172067  0.86250643  1
  N  N63  1  0.79065291  0.77320722  0.60070711  1
  N  N64  1  0.55506544  0.87267960  0.35880476  1
  N  N65  1  0.44395595  0.76143042  0.10716094  1
  N  N66  1  0.22118433  0.87039851  0.85746439  1
  N  N67  1  0.08593427  0.77384039  0.60042820  1
  N  N68  1  0.88804063  0.87422651  0.37895982  1
  N  N69  1  0.77916727  0.76247466  0.11273503  1
  N  N70  1  0.55791215  0.87104743  0.85621154  1
  N  N71  1  0.44395622  0.76128057  0.60716086  1
