# generated using pymatgen
data_Al17BN18
_symmetry_space_group_name_H-M   'P 1'
_cell_length_a   9.32539459
_cell_length_b   9.33278908
_cell_length_c   10.02787170
_cell_angle_alpha   89.93464971
_cell_angle_beta   89.84847198
_cell_angle_gamma   60.05749622
_symmetry_Int_Tables_number   1
_chemical_formula_structural   Al17BN18
_chemical_formula_sum   'Al34 B2 N36'
_cell_volume   756.25431670
_cell_formula_units_Z   2
loop_
 _symmetry_equiv_pos_site_id
 _symmetry_equiv_pos_as_xyz
  1  'x, y, z'
loop_
 _atom_site_type_symbol
 _atom_site_label
 _atom_site_symmetry_multiplicity
 _atom_site_fract_x
 _atom_site_fract_y
 _atom_site_fract_z
 _atom_site_occupancy
  Al  Al0  1  0.10141906  0.10531350  0.30793337  1
  Al  Al1  1  0.21818319  0.20624945  0.06083962  1
  Al  Al2  1  0.78231153  0.09026435  0.82345215  1
  Al  Al3  1  0.89100153  0.19822042  0.56291657  1
  Al  Al4  1  0.44638152  0.09343369  0.31066818  1
  Al  Al5  1  0.56020290  0.20740504  0.05807725  1
  Al  Al6  1  0.10570027  0.10233388  0.82178322  1
  Al  Al7  1  0.22117688  0.20462692  0.56028226  1
  Al  Al8  1  0.77791658  0.10218729  0.30221810  1
  Al  Al9  1  0.44436175  0.09519026  0.81000764  1
  Al  Al10  1  0.56153383  0.19808485  0.56163460  1
  Al  Al11  1  0.10983592  0.42878423  0.31142337  1
  Al  Al12  1  0.22909576  0.52690688  0.06315201  1
  Al  Al13  1  0.77900714  0.42501605  0.81478428  1
  Al  Al14  1  0.89016857  0.54227901  0.56215827  1
  Al  Al15  1  0.44553345  0.42700513  0.31210566  1
  Al  Al16  1  0.56088817  0.53184845  0.06012538  1
  Al  Al17  1  0.11216960  0.42777570  0.80881887  1
  Al  Al18  1  0.21459761  0.54408515  0.56087630  1
  Al  Al19  1  0.78075441  0.42312635  0.30708014  1
  Al  Al20  1  0.89059608  0.53128872  0.05763445  1
  Al  Al21  1  0.44412307  0.42813598  0.80823390  1
  Al  Al22  1  0.55707754  0.53804079  0.55914527  1
  Al  Al23  1  0.10447669  0.76577791  0.33815976  1
  Al  Al24  1  0.21904301  0.87628007  0.11982818  1
  Al  Al25  1  0.78239579  0.76362977  0.81635608  1
  Al  Al26  1  0.45115125  0.75861560  0.31090715  1
  Al  Al27  1  0.55641581  0.87033510  0.05624347  1
  Al  Al28  1  0.11015538  0.76383078  0.88649453  1
  Al  Al29  1  0.20972935  0.87230018  0.63093542  1
  Al  Al30  1  0.77587735  0.75912595  0.30502150  1
  Al  Al31  1  0.88424631  0.87776268  0.08987540  1
  Al  Al32  1  0.45134326  0.75642762  0.81209965  1
  Al  Al33  1  0.55946866  0.87476835  0.56139207  1
  B  B34  1  0.88464384  0.20955350  0.05684923  1
  B  B35  1  0.89136302  0.87129995  0.60446998  1
  N  N36  1  0.22190909  0.20544420  0.36923973  1
  N  N37  1  0.08280774  0.11286751  0.11130214  1
  N  N38  1  0.88726290  0.20779019  0.89060268  1
  N  N39  1  0.79366436  0.06481934  0.62462036  1
  N  N40  1  0.55846709  0.20429643  0.37098223  1
  N  N41  1  0.44650302  0.09319773  0.11923001  1
  N  N42  1  0.22361958  0.20694820  0.87202997  1
  N  N43  1  0.10589458  0.10271322  0.62694719  1
  N  N44  1  0.88676659  0.20661938  0.37582712  1
  N  N45  1  0.78611661  0.11805061  0.11034135  1
  N  N46  1  0.55541880  0.20662863  0.86787449  1
  N  N47  1  0.44311546  0.09538249  0.62004853  1
  N  N48  1  0.22265763  0.53848426  0.36955639  1
  N  N49  1  0.11065469  0.42630524  0.12226867  1
  N  N50  1  0.88999547  0.53821334  0.86711951  1
  N  N51  1  0.77838667  0.42526963  0.62330121  1
  N  N52  1  0.55845081  0.53732989  0.36859352  1
  N  N53  1  0.44672668  0.42534756  0.12275328  1
  N  N54  1  0.22546104  0.53265934  0.87066891  1
  N  N55  1  0.11141218  0.42717000  0.61939949  1
  N  N56  1  0.88702583  0.53919151  0.37125601  1
  N  N57  1  0.79074585  0.40312963  0.11298212  1
  N  N58  1  0.55622663  0.53657906  0.87080392  1
  N  N59  1  0.44337633  0.42816059  0.61770160  1
  N  N60  1  0.22093311  0.87579119  0.32125202  1
  N  N61  1  0.11813219  0.75521568  0.08542941  1
  N  N62  1  0.88175870  0.87581989  0.88635128  1
  N  N63  1  0.79294388  0.77649734  0.61948812  1
  N  N64  1  0.55731257  0.87208429  0.37231580  1
  N  N65  1  0.45228573  0.75578059  0.11676611  1
  N  N66  1  0.22065075  0.87046066  0.83062252  1
  N  N67  1  0.07514305  0.77907254  0.58857046  1
  N  N68  1  0.88433261  0.87666271  0.31165872  1
  N  N69  1  0.77365254  0.75158869  0.11549100  1
  N  N70  1  0.55646670  0.87254409  0.86656018  1
  N  N71  1  0.44808440  0.75922071  0.61834801  1
