# generated using pymatgen
data_Al17BN18
_symmetry_space_group_name_H-M   'P 1'
_cell_length_a   9.30054126
_cell_length_b   9.29830985
_cell_length_c   9.94034111
_cell_angle_alpha   89.99999873
_cell_angle_beta   89.96817847
_cell_angle_gamma   60.00793846
_symmetry_Int_Tables_number   1
_chemical_formula_structural   Al17BN18
_chemical_formula_sum   'Al34 B2 N36'
_cell_volume   744.52417333
_cell_formula_units_Z   2
loop_
 _symmetry_equiv_pos_site_id
 _symmetry_equiv_pos_as_xyz
  1  'x, y, z'
loop_
 _atom_site_type_symbol
 _atom_site_label
 _atom_site_symmetry_multiplicity
 _atom_site_fract_x
 _atom_site_fract_y
 _atom_site_fract_z
 _atom_site_occupancy
  Al  Al0  1  0.10554382  0.09711335  0.30070940  1
  Al  Al1  1  0.21713327  0.20739337  0.05508286  1
  Al  Al2  1  0.78176226  0.09053053  0.80740603  1
  Al  Al3  1  0.89034223  0.19997446  0.55682231  1
  Al  Al4  1  0.44445794  0.09418980  0.30448482  1
  Al  Al5  1  0.56086533  0.20652178  0.05497225  1
  Al  Al6  1  0.10846184  0.09557360  0.81205202  1
  Al  Al7  1  0.22104499  0.20461847  0.55514863  1
  Al  Al8  1  0.78176219  0.09437429  0.30740590  1
  Al  Al9  1  0.44451699  0.09476697  0.80530082  1
  Al  Al10  1  0.56086581  0.19927951  0.55497238  1
  Al  Al11  1  0.11084675  0.42774245  0.30498843  1
  Al  Al12  1  0.22104494  0.54100329  0.05514866  1
  Al  Al13  1  0.77898515  0.42515564  0.81195151  1
  Al  Al14  1  0.88965921  0.54100886  0.55544147  1
  Al  Al15  1  0.44451662  0.42738241  0.30530078  1
  Al  Al16  1  0.55904449  0.53385940  0.05517373  1
  Al  Al17  1  0.11084698  0.42807677  0.80498860  1
  Al  Al18  1  0.21713341  0.54213999  0.55508284  1
  Al  Al19  1  0.78078421  0.42207369  0.30119600  1
  Al  Al20  1  0.88965883  0.53599858  0.05544144  1
  Al  Al21  1  0.44445789  0.42801876  0.80448479  1
  Al  Al22  1  0.55733786  0.53755886  0.55467628  1
  Al  Al23  1  0.10846156  0.76263092  0.31205196  1
  Al  Al24  1  0.21615981  0.87500236  0.05535528  1
  Al  Al25  1  0.78078482  0.76380851  0.80119593  1
  Al  Al26  1  0.44440011  0.76153514  0.30526026  1
  Al  Al27  1  0.55733819  0.87176979  0.05467636  1
  Al  Al28  1  0.10554404  0.76400893  0.80070949  1
  Al  Al29  1  0.21616008  0.87550495  0.55535525  1
  Al  Al30  1  0.77898529  0.76252582  0.31195162  1
  Al  Al31  1  0.89034184  0.87635021  0.05682227  1
  Al  Al32  1  0.44440025  0.76073185  0.80526021  1
  Al  Al33  1  0.55904496  0.87376289  0.55517378  1
  B  B34  1  0.88903768  0.20470513  0.05250676  1
  B  B35  1  0.88903803  0.87292380  0.55250678  1
  N  N36  1  0.22102775  0.20425168  0.36233273  1
  N  N37  1  0.08592735  0.10689579  0.10655594  1
  N  N38  1  0.88803533  0.20440330  0.88508494  1
  N  N39  1  0.79095575  0.06989944  0.61124680  1
  N  N40  1  0.55750182  0.20406003  0.36307098  1
  N  N41  1  0.44442541  0.09519178  0.11288529  1
  N  N42  1  0.22231935  0.20608109  0.86503904  1
  N  N43  1  0.10944721  0.09545132  0.61995563  1
  N  N44  1  0.88933941  0.20560355  0.36863594  1
  N  N45  1  0.79095540  0.10581183  0.11124671  1
  N  N46  1  0.55750185  0.20510473  0.86307088  1
  N  N47  1  0.44341467  0.09512138  0.61425763  1
  N  N48  1  0.22231896  0.53826592  0.36503897  1
  N  N49  1  0.11105152  0.42872692  0.11422961  1
  N  N50  1  0.88790897  0.54145967  0.86366114  1
  N  N51  1  0.77916035  0.42502923  0.61885751  1
  N  N52  1  0.55790490  0.53771081  0.36233340  1
  N  N53  1  0.44341440  0.42813089  0.11425766  1
  N  N54  1  0.22102788  0.54138675  0.86233276  1
  N  N55  1  0.11105172  0.42688810  0.61422973  1
  N  N56  1  0.88790882  0.53729788  0.36366116  1
  N  N57  1  0.79064676  0.40280913  0.10683420  1
  N  N58  1  0.55505913  0.53892479  0.86492776  1
  N  N59  1  0.44442532  0.42704945  0.61288523  1
  N  N60  1  0.22117847  0.87508557  0.36358830  1
  N  N61  1  0.10944697  0.76176844  0.11995554  1
  N  N62  1  0.88933953  0.87172379  0.86863591  1
  N  N63  1  0.79064721  0.77321045  0.60683415  1
  N  N64  1  0.55505939  0.87268273  0.36492791  1
  N  N65  1  0.44394994  0.76143370  0.11328360  1
  N  N66  1  0.22117865  0.87040231  0.86358833  1
  N  N67  1  0.08592774  0.77384350  0.60655588  1
  N  N68  1  0.88803523  0.87422830  0.38508496  1
  N  N69  1  0.77916037  0.76247699  0.11885769  1
  N  N70  1  0.55790553  0.87105054  0.86233352  1
  N  N71  1  0.44395014  0.76128335  0.61328348  1
