# generated using pymatgen
data_Al17BN18
_symmetry_space_group_name_H-M   'P 1'
_cell_length_a   9.31442797
_cell_length_b   9.33275019
_cell_length_c   10.09726726
_cell_angle_alpha   90.03669497
_cell_angle_beta   89.79263123
_cell_angle_gamma   59.96994401
_symmetry_Int_Tables_number   1
_chemical_formula_structural   Al17BN18
_chemical_formula_sum   'Al34 B2 N36'
_cell_volume   759.91342232
_cell_formula_units_Z   2
loop_
 _symmetry_equiv_pos_site_id
 _symmetry_equiv_pos_as_xyz
  1  'x, y, z'
loop_
 _atom_site_type_symbol
 _atom_site_label
 _atom_site_symmetry_multiplicity
 _atom_site_fract_x
 _atom_site_fract_y
 _atom_site_fract_z
 _atom_site_occupancy
  Al  Al0  1  0.11271860  0.09375910  0.40474140  1
  Al  Al1  1  0.21504126  0.20772322  0.14531012  1
  Al  Al2  1  0.78168217  0.08299522  0.82357845  1
  Al  Al3  1  0.89180774  0.20287488  0.61682490  1
  Al  Al4  1  0.44114850  0.09337721  0.38438956  1
  Al  Al5  1  0.56720163  0.20315996  0.07694891  1
  Al  Al6  1  0.10109352  0.09762380  0.89124914  1
  Al  Al7  1  0.22334400  0.20644923  0.65193260  1
  Al  Al8  1  0.78176786  0.10262374  0.32386879  1
  Al  Al9  1  0.44397403  0.09081019  0.88924363  1
  Al  Al10  1  0.56706348  0.19365009  0.57668377  1
  Al  Al11  1  0.11018497  0.42698261  0.39967453  1
  Al  Al12  1  0.22469408  0.53624964  0.15261025  1
  Al  Al13  1  0.78092692  0.42140228  0.88970770  1
  Al  Al14  1  0.89119949  0.54620599  0.65051549  1
  Al  Al15  1  0.44284019  0.43449332  0.39800505  1
  Al  Al16  1  0.55943219  0.53230184  0.14734804  1
  Al  Al17  1  0.11025466  0.43031556  0.89970526  1
  Al  Al18  1  0.21632457  0.54302069  0.64704153  1
  Al  Al19  1  0.77562557  0.43147605  0.40546723  1
  Al  Al20  1  0.89149648  0.52894721  0.15062855  1
  Al  Al21  1  0.44022621  0.43503019  0.89558703  1
  Al  Al22  1  0.55423771  0.54223976  0.65231741  1
  Al  Al23  1  0.10158182  0.76762171  0.39128737  1
  Al  Al24  1  0.21620939  0.87572805  0.15020162  1
  Al  Al25  1  0.77646847  0.75936739  0.90535337  1
  Al  Al26  1  0.44312108  0.76068063  0.39970070  1
  Al  Al27  1  0.55533415  0.86806723  0.15098997  1
  Al  Al28  1  0.11268947  0.76047390  0.90462958  1
  Al  Al29  1  0.21608843  0.87475398  0.65022907  1
  Al  Al30  1  0.78130281  0.76431189  0.39006245  1
  Al  Al31  1  0.89235992  0.87156250  0.11748754  1
  Al  Al32  1  0.44329833  0.76270905  0.89969870  1
  Al  Al33  1  0.55963091  0.87345350  0.64627834  1
  B  B34  1  0.88748342  0.20772008  0.10590049  1
  B  B35  1  0.88810074  0.87085196  0.60592668  1
  N  N36  1  0.21754309  0.20666524  0.33427894  1
  N  N37  1  0.07903317  0.10938819  0.08831067  1
  N  N38  1  0.88809425  0.20782361  0.82123860  1
  N  N39  1  0.79309173  0.05526583  0.63035116  1
  N  N40  1  0.56155316  0.20305360  0.38146990  1
  N  N41  1  0.44434813  0.09049730  0.09445780  1
  N  N42  1  0.21942515  0.20696541  0.84209259  1
  N  N43  1  0.12263444  0.09035460  0.59227486  1
  N  N44  1  0.88528826  0.20422937  0.39848078  1
  N  N45  1  0.79259463  0.11832287  0.13084469  1
  N  N46  1  0.56179655  0.20352431  0.88176731  1
  N  N47  1  0.44193417  0.09274495  0.59264510  1
  N  N48  1  0.22100421  0.53979599  0.34200064  1
  N  N49  1  0.11186986  0.42839026  0.08853652  1
  N  N50  1  0.88889780  0.54056756  0.83938184  1
  N  N51  1  0.77292781  0.44289228  0.59370876  1
  N  N52  1  0.55733957  0.53933390  0.33584167  1
  N  N53  1  0.44182930  0.43216583  0.08795184  1
  N  N54  1  0.21966227  0.54188432  0.83544255  1
  N  N55  1  0.11168266  0.42710674  0.58858679  1
  N  N56  1  0.88864252  0.53751798  0.33952643  1
  N  N57  1  0.79368109  0.39713956  0.08746525  1
  N  N58  1  0.55516344  0.54129056  0.84094111  1
  N  N59  1  0.44367237  0.43238286  0.59046967  1
  N  N60  1  0.22070525  0.87417806  0.33934734  1
  N  N61  1  0.12312187  0.75302535  0.09241852  1
  N  N62  1  0.88537046  0.87778043  0.89818755  1
  N  N63  1  0.79404413  0.77531881  0.58722108  1
  N  N64  1  0.55599639  0.86900518  0.34031147  1
  N  N65  1  0.44242105  0.76118183  0.08915631  1
  N  N66  1  0.22079377  0.87212793  0.83943986  1
  N  N67  1  0.07970202  0.77736159  0.58865916  1
  N  N68  1  0.88819843  0.87110786  0.32157299  1
  N  N69  1  0.77413237  0.75000320  0.09337295  1
  N  N70  1  0.55853834  0.86836147  0.83555985  1
  N  N71  1  0.44216874  0.76180347  0.58914702  1
