# generated using pymatgen
data_Al17BN18
_symmetry_space_group_name_H-M   'P 1'
_cell_length_a   9.30052261
_cell_length_b   9.29829384
_cell_length_c   9.94038560
_cell_angle_alpha   89.99994264
_cell_angle_beta   89.96829040
_cell_angle_gamma   60.00793559
_symmetry_Int_Tables_number   1
_chemical_formula_structural   Al17BN18
_chemical_formula_sum   'Al34 B2 N36'
_cell_volume   744.52471073
_cell_formula_units_Z   2
loop_
 _symmetry_equiv_pos_site_id
 _symmetry_equiv_pos_as_xyz
  1  'x, y, z'
loop_
 _atom_site_type_symbol
 _atom_site_label
 _atom_site_symmetry_multiplicity
 _atom_site_fract_x
 _atom_site_fract_y
 _atom_site_fract_z
 _atom_site_occupancy
  Al  Al0  1  0.10554017  0.09711590  0.30491609  1
  Al  Al1  1  0.21713070  0.20739459  0.05928875  1
  Al  Al2  1  0.78175839  0.09053261  0.81161143  1
  Al  Al3  1  0.89033830  0.19997720  0.56102745  1
  Al  Al4  1  0.44445316  0.09419310  0.30869467  1
  Al  Al5  1  0.56086121  0.20652259  0.05917922  1
  Al  Al6  1  0.10845744  0.09557550  0.81626399  1
  Al  Al7  1  0.22103987  0.20462097  0.55935720  1
  Al  Al8  1  0.78175761  0.09437653  0.31161046  1
  Al  Al9  1  0.44451406  0.09476780  0.80950612  1
  Al  Al10  1  0.56086158  0.19928310  0.55917960  1
  Al  Al11  1  0.11084252  0.42774434  0.30919534  1
  Al  Al12  1  0.22104029  0.54100553  0.05935761  1
  Al  Al13  1  0.77898184  0.42515664  0.81616361  1
  Al  Al14  1  0.88965483  0.54101088  0.55964953  1
  Al  Al15  1  0.44451283  0.42738523  0.30950648  1
  Al  Al16  1  0.55904032  0.53386149  0.05937960  1
  Al  Al17  1  0.11084358  0.42807879  0.80919501  1
  Al  Al18  1  0.21712972  0.54214221  0.55928883  1
  Al  Al19  1  0.78077878  0.42207736  0.30540468  1
  Al  Al20  1  0.88965528  0.53600014  0.05964899  1
  Al  Al21  1  0.44445335  0.42802047  0.80869415  1
  Al  Al22  1  0.55733368  0.53756115  0.55888685  1
  Al  Al23  1  0.10845632  0.76263435  0.31626406  1
  Al  Al24  1  0.21615594  0.87500298  0.05956277  1
  Al  Al25  1  0.78078000  0.76381001  0.80540533  1
  Al  Al26  1  0.44439551  0.76153700  0.30946779  1
  Al  Al27  1  0.55733450  0.87177140  0.05888731  1
  Al  Al28  1  0.10554100  0.76400981  0.80491700  1
  Al  Al29  1  0.21615542  0.87550872  0.55956310  1
  Al  Al30  1  0.77898175  0.76252819  0.31616403  1
  Al  Al31  1  0.89033842  0.87635073  0.06102791  1
  Al  Al32  1  0.44439633  0.76073458  0.80946720  1
  Al  Al33  1  0.55904079  0.87376516  0.55937984  1
  B  B34  1  0.88903358  0.20470625  0.05671552  1
  B  B35  1  0.88903325  0.87292731  0.55671695  1
  N  N36  1  0.22102298  0.20425440  0.36654260  1
  N  N37  1  0.08592424  0.10689710  0.11076345  1
  N  N38  1  0.88803106  0.20440456  0.88929551  1
  N  N39  1  0.79095168  0.06990258  0.61545505  1
  N  N40  1  0.55749795  0.20406325  0.36727953  1
  N  N41  1  0.44442149  0.09519357  0.11709579  1
  N  N42  1  0.22231663  0.20608274  0.86924645  1
  N  N43  1  0.10944205  0.09545423  0.62416706  1
  N  N44  1  0.88933504  0.20560579  0.37284197  1
  N  N45  1  0.79095159  0.10581250  0.11545389  1
  N  N46  1  0.55749834  0.20510565  0.86727924  1
  N  N47  1  0.44341109  0.09512347  0.61846470  1
  N  N48  1  0.22231510  0.53826793  0.36924644  1
  N  N49  1  0.11104809  0.42872754  0.11843812  1
  N  N50  1  0.88790608  0.54146078  0.86787039  1
  N  N51  1  0.77915681  0.42503071  0.62306878  1
  N  N52  1  0.55790020  0.53771337  0.36654418  1
  N  N53  1  0.44341113  0.42813221  0.11846502  1
  N  N54  1  0.22102369  0.54138841  0.86654298  1
  N  N55  1  0.11104778  0.42689095  0.61843793  1
  N  N56  1  0.88790505  0.53729980  0.36787080  1
  N  N57  1  0.79064230  0.40281124  0.11104295  1
  N  N58  1  0.55505487  0.53892714  0.86913584  1
  N  N59  1  0.44442060  0.42705207  0.61709542  1
  N  N60  1  0.22117407  0.87508877  0.36779780  1
  N  N61  1  0.10944252  0.76177043  0.12416691  1
  N  N62  1  0.88933585  0.87172544  0.87284281  1
  N  N63  1  0.79064241  0.77321284  0.61104389  1
  N  N64  1  0.55505494  0.87268494  0.36913606  1
  N  N65  1  0.44394595  0.76143465  0.11749284  1
  N  N66  1  0.22117512  0.87040338  0.86779764  1
  N  N67  1  0.08592405  0.77384570  0.61076451  1
  N  N68  1  0.88803010  0.87423200  0.38929581  1
  N  N69  1  0.77915748  0.76247796  0.12306900  1
  N  N70  1  0.55790133  0.87105259  0.86654454  1
  N  N71  1  0.44394590  0.76128658  0.61749235  1
