# generated using pymatgen
data_Al17BN18
_symmetry_space_group_name_H-M   'P 1'
_cell_length_a   9.30053498
_cell_length_b   9.29830405
_cell_length_c   9.94034607
_cell_angle_alpha   89.99999923
_cell_angle_beta   89.96818226
_cell_angle_gamma   60.00793772
_symmetry_Int_Tables_number   1
_chemical_formula_structural   Al17BN18
_chemical_formula_sum   'Al34 B2 N36'
_cell_volume   744.52357271
_cell_formula_units_Z   2
loop_
 _symmetry_equiv_pos_site_id
 _symmetry_equiv_pos_as_xyz
  1  'x, y, z'
loop_
 _atom_site_type_symbol
 _atom_site_label
 _atom_site_symmetry_multiplicity
 _atom_site_fract_x
 _atom_site_fract_y
 _atom_site_fract_z
 _atom_site_occupancy
  Al  Al0  1  0.10554577  0.09711253  0.29864941  1
  Al  Al1  1  0.21713515  0.20739230  0.05301769  1
  Al  Al2  1  0.78176427  0.09052931  0.80534374  1
  Al  Al3  1  0.89034419  0.19997330  0.55476236  1
  Al  Al4  1  0.44445971  0.09418905  0.30242025  1
  Al  Al5  1  0.56086716  0.20652060  0.05290724  1
  Al  Al6  1  0.10846369  0.09557254  0.80999079  1
  Al  Al7  1  0.22104664  0.20461749  0.55308421  1
  Al  Al8  1  0.78176425  0.09437344  0.30534359  1
  Al  Al9  1  0.44451918  0.09476569  0.80323451  1
  Al  Al10  1  0.56086774  0.19927880  0.55290731  1
  Al  Al11  1  0.11084881  0.42774129  0.30292313  1
  Al  Al12  1  0.22104646  0.54100269  0.05308422  1
  Al  Al13  1  0.77898728  0.42515442  0.80989114  1
  Al  Al14  1  0.88966116  0.54100810  0.55337854  1
  Al  Al15  1  0.44451887  0.42738150  0.30323453  1
  Al  Al16  1  0.55904675  0.53385841  0.05310885  1
  Al  Al17  1  0.11084892  0.42807591  0.80292320  1
  Al  Al18  1  0.21713542  0.54213916  0.55301769  1
  Al  Al19  1  0.78078586  0.42207288  0.29913705  1
  Al  Al20  1  0.88966065  0.53599747  0.05337859  1
  Al  Al21  1  0.44445960  0.42801775  0.80242020  1
  Al  Al22  1  0.55733978  0.53755774  0.55261313  1
  Al  Al23  1  0.10846346  0.76263009  0.30999079  1
  Al  Al24  1  0.21616150  0.87500172  0.05329188  1
  Al  Al25  1  0.78078641  0.76380766  0.79913694  1
  Al  Al26  1  0.44440210  0.76153384  0.30319516  1
  Al  Al27  1  0.55733997  0.87176911  0.05261315  1
  Al  Al28  1  0.10554589  0.76400785  0.79864947  1
  Al  Al29  1  0.21616182  0.87550387  0.55329183  1
  Al  Al30  1  0.77898746  0.76252492  0.30989129  1
  Al  Al31  1  0.89034369  0.87634944  0.05476233  1
  Al  Al32  1  0.44440216  0.76073124  0.80319507  1
  Al  Al33  1  0.55904730  0.87376157  0.55310891  1
  B  B34  1  0.88903973  0.20470420  0.05044700  1
  B  B35  1  0.88904014  0.87292264  0.55044703  1
  N  N36  1  0.22102982  0.20425111  0.36026993  1
  N  N37  1  0.08592925  0.10689504  0.10449537  1
  N  N38  1  0.88803726  0.20440220  0.88302463  1
  N  N39  1  0.79095744  0.06989831  0.60918582  1
  N  N40  1  0.55750363  0.20405936  0.36100712  1
  N  N41  1  0.44442700  0.09519123  0.11082172  1
  N  N42  1  0.22232163  0.20608021  0.86297494  1
  N  N43  1  0.10944956  0.09545000  0.61789491  1
  N  N44  1  0.88934117  0.20560233  0.36657632  1
  N  N45  1  0.79095702  0.10581132  0.10918570  1
  N  N46  1  0.55750358  0.20510361  0.86100709  1
  N  N47  1  0.44341679  0.09512025  0.61219282  1
  N  N48  1  0.22232132  0.53826449  0.36297493  1
  N  N49  1  0.11105366  0.42872573  0.11216583  1
  N  N50  1  0.88791149  0.54145815  0.86159950  1
  N  N51  1  0.77916234  0.42502835  0.61679723  1
  N  N52  1  0.55790609  0.53771012  0.36027122  1
  N  N53  1  0.44341639  0.42812997  0.11219285  1
  N  N54  1  0.22102977  0.54138532  0.86026991  1
  N  N55  1  0.11105397  0.42688713  0.61216589  1
  N  N56  1  0.88791142  0.53729681  0.36159945  1
  N  N57  1  0.79064846  0.40280826  0.10477425  1
  N  N58  1  0.55506065  0.53892416  0.86286422  1
  N  N59  1  0.44442712  0.42704833  0.61082169  1
  N  N60  1  0.22118084  0.87508427  0.36152619  1
  N  N61  1  0.10944926  0.76176745  0.11789481  1
  N  N62  1  0.88934121  0.87172320  0.86657629  1
  N  N63  1  0.79064898  0.77320949  0.60477421  1
  N  N64  1  0.55506101  0.87268185  0.36286441  1
  N  N65  1  0.44395189  0.76143251  0.11121992  1
  N  N66  1  0.22118095  0.87040125  0.86152622  1
  N  N67  1  0.08592970  0.77384232  0.60449536  1
  N  N68  1  0.88803724  0.87422747  0.38302466  1
  N  N69  1  0.77916213  0.76247601  0.11679739  1
  N  N70  1  0.55790664  0.87105014  0.86027128  1
  N  N71  1  0.44395214  0.76128257  0.61121985  1
