# generated using pymatgen
data_Al17BN18
_symmetry_space_group_name_H-M   'P 1'
_cell_length_a   9.28651931
_cell_length_b   9.33239956
_cell_length_c   10.27987989
_cell_angle_alpha   89.82969822
_cell_angle_beta   89.56071858
_cell_angle_gamma   59.92667200
_symmetry_Int_Tables_number   1
_chemical_formula_structural   Al17BN18
_chemical_formula_sum   'Al34 B2 N36'
_cell_volume   770.95779471
_cell_formula_units_Z   2
loop_
 _symmetry_equiv_pos_site_id
 _symmetry_equiv_pos_as_xyz
  1  'x, y, z'
loop_
 _atom_site_type_symbol
 _atom_site_label
 _atom_site_symmetry_multiplicity
 _atom_site_fract_x
 _atom_site_fract_y
 _atom_site_fract_z
 _atom_site_occupancy
  Al  Al0  1  0.11427496  0.09272968  0.39706504  1
  Al  Al1  1  0.21162081  0.20865088  0.13931589  1
  Al  Al2  1  0.78199641  0.08439907  0.81709951  1
  Al  Al3  1  0.89115645  0.20293963  0.61094131  1
  Al  Al4  1  0.45128198  0.09175638  0.31870871  1
  Al  Al5  1  0.56016344  0.20933753  0.06607069  1
  Al  Al6  1  0.10374394  0.09699941  0.88383937  1
  Al  Al7  1  0.21880788  0.20878721  0.64233305  1
  Al  Al8  1  0.78240044  0.10250039  0.31417443  1
  Al  Al9  1  0.45219216  0.09125213  0.81936553  1
  Al  Al10  1  0.56360243  0.19632631  0.56604241  1
  Al  Al11  1  0.10942274  0.42699832  0.39130527  1
  Al  Al12  1  0.21635707  0.53998554  0.14588589  1
  Al  Al13  1  0.78405821  0.41851685  0.87949642  1
  Al  Al14  1  0.89000237  0.54667919  0.64475987  1
  Al  Al15  1  0.45049360  0.42471961  0.32305613  1
  Al  Al16  1  0.54881661  0.53809963  0.06965073  1
  Al  Al17  1  0.11466011  0.42685849  0.89143241  1
  Al  Al18  1  0.20906324  0.54693753  0.63730057  1
  Al  Al19  1  0.78359555  0.42740221  0.39803860  1
  Al  Al20  1  0.89294534  0.51945045  0.13567196  1
  Al  Al21  1  0.45063556  0.42472590  0.81608006  1
  Al  Al22  1  0.54724281  0.54601542  0.57041647  1
  Al  Al23  1  0.09796995  0.76810804  0.38695842  1
  Al  Al24  1  0.20770392  0.87998649  0.14507099  1
  Al  Al25  1  0.78166246  0.76190029  0.86972719  1
  Al  Al26  1  0.44807274  0.75862329  0.32144373  1
  Al  Al27  1  0.54756199  0.87395653  0.06881143  1
  Al  Al28  1  0.11785174  0.75777638  0.89707117  1
  Al  Al29  1  0.20909870  0.87831214  0.64155690  1
  Al  Al30  1  0.77406099  0.76326261  0.30859536  1
  Al  Al31  1  0.89237460  0.87687821  0.10097727  1
  Al  Al32  1  0.44960687  0.75909133  0.81779149  1
  Al  Al33  1  0.56473369  0.87288827  0.56854385  1
  B  B34  1  0.88604410  0.20760205  0.09569202  1
  B  B35  1  0.88474273  0.87093864  0.60624261  1
  N  N36  1  0.21619286  0.20728822  0.32663747  1
  N  N37  1  0.08030744  0.10838480  0.07832622  1
  N  N38  1  0.88946733  0.20720240  0.81255182  1
  N  N39  1  0.79259830  0.05834335  0.62628425  1
  N  N40  1  0.55887176  0.20313650  0.38033726  1
  N  N41  1  0.45250616  0.09222145  0.12923369  1
  N  N42  1  0.21773200  0.20773032  0.83183814  1
  N  N43  1  0.12326603  0.09069459  0.58089552  1
  N  N44  1  0.88590133  0.20282217  0.38740501  1
  N  N45  1  0.79087382  0.11928008  0.12078650  1
  N  N46  1  0.55758057  0.20620153  0.88031535  1
  N  N47  1  0.45251107  0.09137917  0.63152741  1
  N  N48  1  0.21444043  0.54294538  0.33411185  1
  N  N49  1  0.11435196  0.42573896  0.07651556  1
  N  N50  1  0.89038030  0.53741219  0.83322807  1
  N  N51  1  0.77888550  0.43946490  0.58644471  1
  N  N52  1  0.54858182  0.54306655  0.38348902  1
  N  N53  1  0.45015539  0.42269624  0.13494522  1
  N  N54  1  0.21460249  0.54420750  0.82502972  1
  N  N55  1  0.11065158  0.42723285  0.57743345  1
  N  N56  1  0.89032319  0.53106404  0.32224138  1
  N  N57  1  0.79568580  0.39375221  0.07452668  1
  N  N58  1  0.54888931  0.54266827  0.88298540  1
  N  N59  1  0.45161699  0.42199729  0.62860870  1
  N  N60  1  0.21351188  0.87675653  0.33170924  1
  N  N61  1  0.12634736  0.75146121  0.08027722  1
  N  N62  1  0.88502470  0.88060487  0.89803140  1
  N  N63  1  0.79522655  0.77757848  0.61757669  1
  N  N64  1  0.55702015  0.87119618  0.38078788  1
  N  N65  1  0.44683819  0.75870497  0.13287993  1
  N  N66  1  0.21461765  0.87552677  0.82896196  1
  N  N67  1  0.07942418  0.77801993  0.57995519  1
  N  N68  1  0.88970505  0.87378818  0.30990551  1
  N  N69  1  0.77429885  0.75251872  0.10966127  1
  N  N70  1  0.55018281  0.87431080  0.88371110  1
  N  N71  1  0.44914930  0.76234075  0.63088082  1
