# generated using pymatgen
data_Al17BN18
_symmetry_space_group_name_H-M   'P 1'
_cell_length_a   9.30460828
_cell_length_b   9.31581732
_cell_length_c   10.16673141
_cell_angle_alpha   90.02636226
_cell_angle_beta   89.73413464
_cell_angle_gamma   60.02976496
_symmetry_Int_Tables_number   1
_chemical_formula_structural   Al17BN18
_chemical_formula_sum   'Al34 B2 N36'
_cell_volume   763.40378878
_cell_formula_units_Z   2
loop_
 _symmetry_equiv_pos_site_id
 _symmetry_equiv_pos_as_xyz
  1  'x, y, z'
loop_
 _atom_site_type_symbol
 _atom_site_label
 _atom_site_symmetry_multiplicity
 _atom_site_fract_x
 _atom_site_fract_y
 _atom_site_fract_z
 _atom_site_occupancy
  Al  Al0  1  0.11327577  0.09369129  0.40408409  1
  Al  Al1  1  0.20984352  0.21000044  0.14356552  1
  Al  Al2  1  0.78295430  0.08276655  0.82275279  1
  Al  Al3  1  0.89093081  0.20267139  0.61514160  1
  Al  Al4  1  0.44571276  0.09914677  0.32704313  1
  Al  Al5  1  0.56546498  0.20017897  0.07328982  1
  Al  Al6  1  0.10160420  0.09748719  0.89092659  1
  Al  Al7  1  0.21613145  0.21052789  0.65103683  1
  Al  Al8  1  0.78153475  0.10276068  0.32335251  1
  Al  Al9  1  0.44874894  0.09652417  0.83061936  1
  Al  Al10  1  0.56471728  0.19061367  0.57359803  1
  Al  Al11  1  0.10958040  0.42721491  0.39885956  1
  Al  Al12  1  0.22510726  0.53590916  0.15179435  1
  Al  Al13  1  0.78102466  0.42168499  0.88854502  1
  Al  Al14  1  0.89087023  0.54660399  0.65022112  1
  Al  Al15  1  0.44234239  0.43449300  0.39862096  1
  Al  Al16  1  0.55935012  0.53093322  0.14677855  1
  Al  Al17  1  0.11014613  0.43035146  0.89952007  1
  Al  Al18  1  0.21659229  0.54303617  0.64656618  1
  Al  Al19  1  0.77526813  0.43173484  0.40482148  1
  Al  Al20  1  0.89141688  0.52891981  0.15025089  1
  Al  Al21  1  0.44040076  0.43483803  0.89592583  1
  Al  Al22  1  0.55391317  0.54145696  0.65176616  1
  Al  Al23  1  0.10158389  0.76743532  0.39036902  1
  Al  Al24  1  0.21612681  0.87542289  0.14979069  1
  Al  Al25  1  0.77657383  0.75965130  0.90497852  1
  Al  Al26  1  0.44278328  0.76130263  0.39902481  1
  Al  Al27  1  0.55852091  0.86226197  0.15009942  1
  Al  Al28  1  0.11336163  0.76012118  0.90408958  1
  Al  Al29  1  0.21590701  0.87469222  0.64984479  1
  Al  Al30  1  0.78070135  0.76464052  0.38967091  1
  Al  Al31  1  0.89254658  0.87179416  0.11708317  1
  Al  Al32  1  0.44367985  0.76325060  0.89909322  1
  Al  Al33  1  0.56272408  0.86733729  0.64463710  1
  B  B34  1  0.88633830  0.20771594  0.10479306  1
  B  B35  1  0.88799675  0.87138090  0.60482779  1
  N  N36  1  0.21342106  0.20904512  0.33409137  1
  N  N37  1  0.07838644  0.10874218  0.08698847  1
  N  N38  1  0.88866778  0.20793781  0.81993134  1
  N  N39  1  0.79260698  0.05562193  0.62984743  1
  N  N40  1  0.56067168  0.20072208  0.38539104  1
  N  N41  1  0.44861309  0.09493219  0.13269017  1
  N  N42  1  0.21621961  0.20876680  0.84312731  1
  N  N43  1  0.12267157  0.08987052  0.59032486  1
  N  N44  1  0.88486007  0.20393828  0.39860308  1
  N  N45  1  0.79103974  0.11882511  0.13097335  1
  N  N46  1  0.56261621  0.20132776  0.88476062  1
  N  N47  1  0.44594188  0.09751694  0.63666055  1
  N  N48  1  0.22135092  0.53925252  0.34037927  1
  N  N49  1  0.11121264  0.42925063  0.08708792  1
  N  N50  1  0.88931161  0.54083515  0.83801038  1
  N  N51  1  0.77260595  0.44335481  0.59238106  1
  N  N52  1  0.55704291  0.53867934  0.33455476  1
  N  N53  1  0.44196620  0.43115228  0.08637955  1
  N  N54  1  0.22038471  0.54120909  0.83416666  1
  N  N55  1  0.11068066  0.42851075  0.58670300  1
  N  N56  1  0.88816223  0.53784248  0.33810968  1
  N  N57  1  0.79349179  0.39718701  0.08603006  1
  N  N58  1  0.55508031  0.54083720  0.83953529  1
  N  N59  1  0.44340071  0.43200286  0.58899194  1
  N  N60  1  0.22063627  0.87415258  0.33786151  1
  N  N61  1  0.12330713  0.75275456  0.09107698  1
  N  N62  1  0.88617555  0.87784439  0.89745708  1
  N  N63  1  0.79407781  0.77532474  0.58530339  1
  N  N64  1  0.55680093  0.86737757  0.34151924  1
  N  N65  1  0.44212579  0.76091772  0.08772106  1
  N  N66  1  0.22123153  0.87200597  0.83802631  1
  N  N67  1  0.07971882  0.77742351  0.58725473  1
  N  N68  1  0.88824847  0.87089946  0.32044354  1
  N  N69  1  0.77538339  0.74937032  0.09181291  1
  N  N70  1  0.56142938  0.86395109  0.83568121  1
  N  N71  1  0.44159463  0.76160459  0.58748794  1
