# generated using pymatgen
data_Al17BN18
_symmetry_space_group_name_H-M   'P 1'
_cell_length_a   9.30054172
_cell_length_b   9.29830854
_cell_length_c   9.94034637
_cell_angle_alpha   90.00000166
_cell_angle_beta   90.03195449
_cell_angle_gamma   60.00794458
_symmetry_Int_Tables_number   1
_chemical_formula_structural   Al17BN18
_chemical_formula_sum   'Al34 B2 N36'
_cell_volume   744.52454403
_cell_formula_units_Z   2
loop_
 _symmetry_equiv_pos_site_id
 _symmetry_equiv_pos_as_xyz
  1  'x, y, z'
loop_
 _atom_site_type_symbol
 _atom_site_label
 _atom_site_symmetry_multiplicity
 _atom_site_fract_x
 _atom_site_fract_y
 _atom_site_fract_z
 _atom_site_occupancy
  Al  Al0  1  0.10842151  0.09559362  0.39455227  1
  Al  Al1  1  0.21709378  0.20741373  0.15152295  1
  Al  Al2  1  0.78172178  0.09439441  0.89920446  1
  Al  Al3  1  0.89030259  0.19999477  0.64978936  1
  Al  Al4  1  0.44447711  0.09478675  0.40130446  1
  Al  Al5  1  0.56082489  0.20654164  0.15163318  1
  Al  Al6  1  0.10550432  0.09713330  0.90590130  1
  Al  Al7  1  0.22100417  0.20463843  0.65145543  1
  Al  Al8  1  0.78172179  0.09055089  0.39920434  1
  Al  Al9  1  0.44441723  0.09421039  0.90211861  1
  Al  Al10  1  0.56082545  0.19930010  0.65163309  1
  Al  Al11  1  0.11080680  0.42809727  0.40161632  1
  Al  Al12  1  0.22100399  0.54102427  0.15145536  1
  Al  Al13  1  0.78074349  0.42209441  0.90541407  1
  Al  Al14  1  0.88961908  0.54102785  0.65116507  1
  Al  Al15  1  0.44441714  0.42803896  0.40211863  1
  Al  Al16  1  0.55900358  0.53388016  0.15143236  1
  Al  Al17  1  0.11080666  0.42776211  0.90161639  1
  Al  Al18  1  0.21709405  0.54215913  0.65152298  1
  Al  Al19  1  0.77894509  0.42517567  0.39465340  1
  Al  Al20  1  0.88961859  0.53601984  0.15116505  1
  Al  Al21  1  0.44447682  0.42740256  0.90130446  1
  Al  Al22  1  0.55729815  0.53757850  0.65192750  1
  Al  Al23  1  0.10550448  0.76402855  0.40590124  1
  Al  Al24  1  0.21611985  0.87502123  0.15125106  1
  Al  Al25  1  0.77894526  0.76254594  0.89465326  1
  Al  Al26  1  0.44436004  0.76075241  0.40134467  1
  Al  Al27  1  0.55729831  0.87179003  0.15192744  1
  Al  Al28  1  0.10842129  0.76265124  0.89455228  1
  Al  Al29  1  0.21612018  0.87552603  0.65125113  1
  Al  Al30  1  0.78074405  0.76382858  0.40541414  1
  Al  Al31  1  0.89030208  0.87636967  0.14978939  1
  Al  Al32  1  0.44435997  0.76155483  0.90134457  1
  Al  Al33  1  0.55900413  0.87378305  0.65143232  1
  B  B34  1  0.88899664  0.20472490  0.15410312  1
  B  B35  1  0.88899707  0.87294507  0.65410309  1
  N  N36  1  0.22227927  0.20610141  0.34156646  1
  N  N37  1  0.08588737  0.10691565  0.10005358  1
  N  N38  1  0.88929933  0.20562367  0.83797524  1
  N  N39  1  0.79091578  0.06992006  0.59536241  1
  N  N40  1  0.55746220  0.20512427  0.34353476  1
  N  N41  1  0.44438492  0.09521223  0.09371883  1
  N  N42  1  0.22098674  0.20427165  0.84427187  1
  N  N43  1  0.10940555  0.09547190  0.58664935  1
  N  N44  1  0.88799444  0.20442310  0.32152259  1
  N  N45  1  0.79091536  0.10583133  0.09536252  1
  N  N46  1  0.55746224  0.20408014  0.84353472  1
  N  N47  1  0.44337453  0.09514141  0.59234771  1
  N  N48  1  0.22098671  0.54140788  0.34427184  1
  N  N49  1  0.11101085  0.42874711  0.09237540  1
  N  N50  1  0.88786828  0.53731760  0.84294534  1
  N  N51  1  0.77912087  0.42504813  0.58774819  1
  N  N52  1  0.55501874  0.53894519  0.34167772  1
  N  N53  1  0.44337415  0.42815112  0.09234767  1
  N  N54  1  0.22227900  0.53828567  0.84156652  1
  N  N55  1  0.11101115  0.42690860  0.59237537  1
  N  N56  1  0.88786838  0.54148058  0.34294531  1
  N  N57  1  0.79060613  0.40282968  0.09977490  1
  N  N58  1  0.55786529  0.53773050  0.84427134  1
  N  N59  1  0.44438504  0.42706949  0.59371885  1
  N  N60  1  0.22113801  0.87042184  0.34301801  1
  N  N61  1  0.10940523  0.76178961  0.08664944  1
  N  N62  1  0.88799441  0.87424946  0.82152254  1
  N  N63  1  0.79060666  0.77323046  0.59977493  1
  N  N64  1  0.55786582  0.87107061  0.34427128  1
  N  N65  1  0.44390959  0.76145376  0.09332152  1
  N  N66  1  0.22113790  0.87510667  0.84301806  1
  N  N67  1  0.08588781  0.77386362  0.60005363  1
  N  N68  1  0.88929940  0.87174378  0.33797527  1
  N  N69  1  0.77912067  0.76249775  0.08774804  1
  N  N70  1  0.55501909  0.87270280  0.84167758  1
  N  N71  1  0.44390985  0.76130365  0.59332162  1
