# generated using pymatgen
data_Al17BN18
_symmetry_space_group_name_H-M   'P 1'
_cell_length_a   9.31802759
_cell_length_b   9.32652105
_cell_length_c   10.13974649
_cell_angle_alpha   90.06027580
_cell_angle_beta   89.74851108
_cell_angle_gamma   59.97422305
_symmetry_Int_Tables_number   1
_chemical_formula_structural   Al17BN18
_chemical_formula_sum   'Al34 B2 N36'
_cell_volume   762.92402386
_cell_formula_units_Z   2
loop_
 _symmetry_equiv_pos_site_id
 _symmetry_equiv_pos_as_xyz
  1  'x, y, z'
loop_
 _atom_site_type_symbol
 _atom_site_label
 _atom_site_symmetry_multiplicity
 _atom_site_fract_x
 _atom_site_fract_y
 _atom_site_fract_z
 _atom_site_occupancy
  Al  Al0  1  0.11325608  0.09383838  0.39407154  1
  Al  Al1  1  0.21014461  0.20984140  0.13421068  1
  Al  Al2  1  0.78308156  0.08273132  0.81295354  1
  Al  Al3  1  0.89080510  0.20319042  0.60518177  1
  Al  Al4  1  0.44640488  0.09840947  0.31855653  1
  Al  Al5  1  0.56563520  0.20001900  0.06328642  1
  Al  Al6  1  0.10183011  0.09758496  0.88067591  1
  Al  Al7  1  0.21566470  0.21107991  0.64070978  1
  Al  Al8  1  0.78176394  0.10310636  0.31334916  1
  Al  Al9  1  0.44989804  0.09449035  0.81881432  1
  Al  Al10  1  0.56509389  0.19144555  0.56365657  1
  Al  Al11  1  0.10994512  0.42701376  0.38892232  1
  Al  Al12  1  0.22528591  0.53562004  0.14166385  1
  Al  Al13  1  0.78096175  0.42184692  0.87833994  1
  Al  Al14  1  0.89046451  0.54742855  0.64030261  1
  Al  Al15  1  0.44250330  0.43431548  0.38829883  1
  Al  Al16  1  0.55940700  0.53064452  0.13626188  1
  Al  Al17  1  0.11085235  0.42951292  0.88931476  1
  Al  Al18  1  0.21651507  0.54315290  0.63635448  1
  Al  Al19  1  0.77530359  0.43208214  0.39464911  1
  Al  Al20  1  0.89169672  0.52862802  0.13976355  1
  Al  Al21  1  0.44045015  0.43402302  0.88539933  1
  Al  Al22  1  0.55359722  0.54172607  0.64176544  1
  Al  Al23  1  0.10161213  0.76754435  0.38025592  1
  Al  Al24  1  0.21548403  0.87564516  0.13936087  1
  Al  Al25  1  0.77641182  0.75978971  0.89398134  1
  Al  Al26  1  0.44183443  0.76061550  0.38805361  1
  Al  Al27  1  0.55777588  0.86333580  0.13729446  1
  Al  Al28  1  0.11333234  0.75973930  0.89391350  1
  Al  Al29  1  0.21489700  0.87500692  0.63983198  1
  Al  Al30  1  0.78218097  0.76402333  0.37825628  1
  Al  Al31  1  0.89281797  0.87204631  0.10657393  1
  Al  Al32  1  0.44339339  0.76317291  0.88784879  1
  Al  Al33  1  0.56129371  0.86864181  0.62644556  1
  B  B34  1  0.88639767  0.20801588  0.09469400  1
  B  B35  1  0.88814902  0.87160022  0.59458010  1
  N  N36  1  0.21403741  0.20864290  0.32486289  1
  N  N37  1  0.07841628  0.10903762  0.07720111  1
  N  N38  1  0.88859259  0.20792727  0.81009039  1
  N  N39  1  0.79275184  0.05580900  0.61964279  1
  N  N40  1  0.56111448  0.20098671  0.37502224  1
  N  N41  1  0.44897971  0.09510190  0.12372509  1
  N  N42  1  0.21718319  0.20791597  0.83285056  1
  N  N43  1  0.12246333  0.09015352  0.58065995  1
  N  N44  1  0.88494004  0.20433554  0.38870427  1
  N  N45  1  0.79126408  0.11919003  0.12051476  1
  N  N46  1  0.56234829  0.20050973  0.87407643  1
  N  N47  1  0.44534686  0.09844665  0.62451052  1
  N  N48  1  0.22138849  0.53925096  0.33067386  1
  N  N49  1  0.11168050  0.42875064  0.07727494  1
  N  N50  1  0.88979448  0.54036441  0.82836033  1
  N  N51  1  0.77222955  0.44427307  0.58257439  1
  N  N52  1  0.55718611  0.53824752  0.32426073  1
  N  N53  1  0.44211136  0.43074776  0.07634274  1
  N  N54  1  0.22037104  0.54088746  0.82421990  1
  N  N55  1  0.11028176  0.42904246  0.57698640  1
  N  N56  1  0.88880739  0.53725952  0.32783811  1
  N  N57  1  0.79353683  0.39735430  0.07603483  1
  N  N58  1  0.55495834  0.54024008  0.82974206  1
  N  N59  1  0.44343067  0.43208157  0.57921347  1
  N  N60  1  0.21994418  0.87446919  0.32756525  1
  N  N61  1  0.12348541  0.75236288  0.08110910  1
  N  N62  1  0.88620432  0.87775190  0.88767199  1
  N  N63  1  0.79511247  0.77530246  0.57448570  1
  N  N64  1  0.55661470  0.86785851  0.33600219  1
  N  N65  1  0.44159903  0.76091090  0.07763315  1
  N  N66  1  0.22053292  0.87197243  0.82816872  1
  N  N67  1  0.07964344  0.77766816  0.57734867  1
  N  N68  1  0.88865240  0.87131293  0.30991896  1
  N  N69  1  0.77564004  0.74951377  0.08210242  1
  N  N70  1  0.56130671  0.86341374  0.82479008  1
  N  N71  1  0.43964724  0.76112826  0.57679771  1
