# generated using pymatgen
data_Al17BN18
_symmetry_space_group_name_H-M   'P 1'
_cell_length_a   9.29563385
_cell_length_b   9.29517703
_cell_length_c   9.98204814
_cell_angle_alpha   89.98261394
_cell_angle_beta   89.97683128
_cell_angle_gamma   59.99003839
_symmetry_Int_Tables_number   1
_chemical_formula_structural   Al17BN18
_chemical_formula_sum   'Al34 B2 N36'
_cell_volume   746.86709230
_cell_formula_units_Z   2
loop_
 _symmetry_equiv_pos_site_id
 _symmetry_equiv_pos_as_xyz
  1  'x, y, z'
loop_
 _atom_site_type_symbol
 _atom_site_label
 _atom_site_symmetry_multiplicity
 _atom_site_fract_x
 _atom_site_fract_y
 _atom_site_fract_z
 _atom_site_occupancy
  Al  Al0  1  0.10793981  0.09579402  0.39631077  1
  Al  Al1  1  0.21597846  0.20748252  0.14810829  1
  Al  Al2  1  0.78194761  0.09361549  0.88916515  1
  Al  Al3  1  0.89049522  0.20077939  0.64121479  1
  Al  Al4  1  0.44396705  0.09490405  0.39740718  1
  Al  Al5  1  0.56156337  0.20661613  0.14822860  1
  Al  Al6  1  0.10630824  0.09671284  0.89664141  1
  Al  Al7  1  0.22250668  0.20507314  0.64898876  1
  Al  Al8  1  0.78123047  0.09044996  0.40034176  1
  Al  Al9  1  0.44498146  0.09370948  0.89938286  1
  Al  Al10  1  0.55967830  0.19963333  0.64846510  1
  Al  Al11  1  0.11029136  0.42769960  0.39804773  1
  Al  Al12  1  0.22105820  0.54082168  0.14905297  1
  Al  Al13  1  0.78058505  0.42261078  0.89617283  1
  Al  Al14  1  0.89024723  0.54277145  0.64901451  1
  Al  Al15  1  0.44525958  0.42757847  0.39829486  1
  Al  Al16  1  0.55977270  0.53269203  0.14810585  1
  Al  Al17  1  0.11152815  0.42782313  0.89892842  1
  Al  Al18  1  0.21734224  0.54231542  0.64765813  1
  Al  Al19  1  0.77854338  0.42563044  0.39667113  1
  Al  Al20  1  0.88989816  0.53472369  0.14781981  1
  Al  Al21  1  0.44428565  0.42732024  0.89835259  1
  Al  Al22  1  0.55583253  0.53922814  0.64941449  1
  Al  Al23  1  0.10495696  0.76495553  0.40212561  1
  Al  Al24  1  0.21489180  0.87583279  0.14784956  1
  Al  Al25  1  0.77878344  0.76252960  0.89234102  1
  Al  Al26  1  0.44384084  0.76090233  0.39761543  1
  Al  Al27  1  0.55718545  0.87170512  0.14948997  1
  Al  Al28  1  0.10878416  0.76167937  0.89177958  1
  Al  Al29  1  0.21702895  0.87414229  0.64881236  1
  Al  Al30  1  0.78067155  0.76365451  0.40154324  1
  Al  Al31  1  0.89043977  0.87715815  0.14641054  1
  Al  Al32  1  0.44447708  0.76155525  0.89887790  1
  Al  Al33  1  0.55892573  0.87373001  0.64772029  1
  B  B34  1  0.88863959  0.20475032  0.12619875  1
  B  B35  1  0.88804002  0.87274211  0.65077578  1
  N  N36  1  0.22160130  0.20536041  0.33742724  1
  N  N37  1  0.08286242  0.10831969  0.09137371  1
  N  N38  1  0.88953051  0.20562445  0.83005373  1
  N  N39  1  0.78971958  0.06801164  0.59532646  1
  N  N40  1  0.55776173  0.20435085  0.33928685  1
  N  N41  1  0.44450115  0.09499723  0.09030889  1
  N  N42  1  0.22218933  0.20478499  0.84090448  1
  N  N43  1  0.11359079  0.09372782  0.58745068  1
  N  N44  1  0.88699122  0.20474786  0.34094202  1
  N  N45  1  0.79238886  0.10709174  0.08653646  1
  N  N46  1  0.55638269  0.20448212  0.83954136  1
  N  N47  1  0.44371317  0.09508422  0.58805778  1
  N  N48  1  0.22092649  0.54138522  0.34092755  1
  N  N49  1  0.11120565  0.42859560  0.08900830  1
  N  N50  1  0.88903336  0.53795484  0.83995572  1
  N  N51  1  0.77742888  0.43025753  0.58873243  1
  N  N52  1  0.55578126  0.53892897  0.33761039  1
  N  N53  1  0.44342825  0.42795611  0.08881184  1
  N  N54  1  0.22271834  0.53792697  0.83762289  1
  N  N55  1  0.11129422  0.42695641  0.58854168  1
  N  N56  1  0.88710008  0.54118888  0.33881788  1
  N  N57  1  0.79201195  0.39956139  0.09115907  1
  N  N58  1  0.55644607  0.53848332  0.84087020  1
  N  N59  1  0.44504782  0.42701081  0.58962379  1
  N  N60  1  0.22057017  0.87168342  0.33882648  1
  N  N61  1  0.10949432  0.76145193  0.08333657  1
  N  N62  1  0.88891503  0.87208651  0.81806657  1
  N  N63  1  0.79069419  0.77334806  0.59586514  1
  N  N64  1  0.55761107  0.87104313  0.34081220  1
  N  N65  1  0.44392903  0.76136219  0.09012495  1
  N  N66  1  0.22195698  0.87332686  0.83975078  1
  N  N67  1  0.08602355  0.77392581  0.59604069  1
  N  N68  1  0.88826636  0.87280114  0.33402779  1
  N  N69  1  0.77904510  0.76243893  0.08474569  1
  N  N70  1  0.55514464  0.87242496  0.83791551  1
  N  N71  1  0.44352451  0.76162691  0.58921963  1
