# generated using pymatgen
data_Al17BN18
_symmetry_space_group_name_H-M   'P 1'
_cell_length_a   9.30069373
_cell_length_b   9.35641463
_cell_length_c   10.20720431
_cell_angle_alpha   90.00023754
_cell_angle_beta   89.36190607
_cell_angle_gamma   59.79574478
_symmetry_Int_Tables_number   1
_chemical_formula_structural   Al17BN18
_chemical_formula_sum   'Al34 B2 N36'
_cell_volume   767.58877258
_cell_formula_units_Z   2
loop_
 _symmetry_equiv_pos_site_id
 _symmetry_equiv_pos_as_xyz
  1  'x, y, z'
loop_
 _atom_site_type_symbol
 _atom_site_label
 _atom_site_symmetry_multiplicity
 _atom_site_fract_x
 _atom_site_fract_y
 _atom_site_fract_z
 _atom_site_occupancy
  Al  Al0  1  0.11559445  0.09245450  0.39708045  1
  Al  Al1  1  0.21160207  0.20944898  0.13914686  1
  Al  Al2  1  0.78209067  0.08563714  0.82051571  1
  Al  Al3  1  0.88857535  0.20109207  0.59755050  1
  Al  Al4  1  0.45183093  0.09020669  0.31794982  1
  Al  Al5  1  0.56010236  0.20931181  0.06743737  1
  Al  Al6  1  0.09988150  0.09932981  0.88891035  1
  Al  Al7  1  0.21723340  0.20758245  0.64572804  1
  Al  Al8  1  0.78209022  0.09894314  0.32051582  1
  Al  Al9  1  0.45060079  0.09166772  0.82272671  1
  Al  Al10  1  0.56010037  0.19725047  0.56743774  1
  Al  Al11  1  0.11475846  0.42456116  0.39055515  1
  Al  Al12  1  0.21723397  0.54184437  0.14572807  1
  Al  Al13  1  0.77677797  0.42886302  0.81382945  1
  Al  Al14  1  0.88901327  0.54666967  0.59710013  1
  Al  Al15  1  0.45060166  0.42440389  0.32272666  1
  Al  Al16  1  0.55751383  0.53359665  0.07018716  1
  Al  Al17  1  0.11475746  0.42735089  0.89055539  1
  Al  Al18  1  0.21160038  0.54561097  0.63914670  1
  Al  Al19  1  0.78269424  0.41905703  0.32928355  1
  Al  Al20  1  0.88901302  0.53097957  0.09710047  1
  Al  Al21  1  0.45183055  0.42463534  0.81795012  1
  Al  Al22  1  0.55407912  0.54155916  0.56552840  1
  Al  Al23  1  0.09988240  0.76745828  0.38891051  1
  Al  Al24  1  0.20898487  0.87925096  0.14425524  1
  Al  Al25  1  0.78269397  0.76491983  0.82928340  1
  Al  Al26  1  0.44967828  0.75915502  0.32064163  1
  Al  Al27  1  0.55407870  0.87102644  0.06552832  1
  Al  Al28  1  0.11559494  0.75862040  0.89708066  1
  Al  Al29  1  0.20898556  0.87842537  0.64425601  1
  Al  Al30  1  0.77677917  0.76103057  0.31382991  1
  Al  Al31  1  0.88857616  0.87699480  0.09755097  1
  Al  Al32  1  0.44967851  0.75783961  0.82064153  1
  Al  Al33  1  0.55751360  0.87555317  0.57018686  1
  B  B34  1  0.88607900  0.20761013  0.10772409  1
  B  B35  1  0.88607906  0.87297688  0.60772403  1
  N  N36  1  0.21624140  0.20658050  0.32652955  1
  N  N37  1  0.07855495  0.11059137  0.08372360  1
  N  N38  1  0.88922346  0.20334274  0.82261628  1
  N  N39  1  0.79116632  0.05808347  0.62532061  1
  N  N40  1  0.55654703  0.20379393  0.38083335  1
  N  N41  1  0.45291516  0.09113131  0.12750658  1
  N  N42  1  0.21657648  0.20682396  0.83524127  1
  N  N43  1  0.12283622  0.08987320  0.58157399  1
  N  N44  1  0.88194437  0.20671939  0.39564474  1
  N  N45  1  0.79117134  0.11742125  0.12532021  1
  N  N46  1  0.55654604  0.20632087  0.88083341  1
  N  N47  1  0.45065783  0.09206282  0.63352730  1
  N  N48  1  0.21657752  0.54325556  0.33524114  1
  N  N49  1  0.11829427  0.42558030  0.07858735  1
  N  N50  1  0.88741596  0.53983338  0.85976903  1
  N  N51  1  0.77233847  0.43740606  0.62520114  1
  N  N52  1  0.55475487  0.53994026  0.37944342  1
  N  N53  1  0.45065884  0.42395491  0.13352727  1
  N  N54  1  0.21624062  0.54383519  0.82652981  1
  N  N55  1  0.11829571  0.42279618  0.57858679  1
  N  N56  1  0.88741645  0.53940816  0.35976897  1
  N  N57  1  0.79332181  0.39553101  0.13009786  1
  N  N58  1  0.55552553  0.53844061  0.88358013  1
  N  N59  1  0.45291508  0.42263027  0.62750622  1
  N  N60  1  0.21480823  0.87589171  0.33258724  1
  N  N61  1  0.12283768  0.75396198  0.08157391  1
  N  N62  1  0.88194433  0.87799459  0.89564483  1
  N  N63  1  0.79332541  0.77781898  0.63009767  1
  N  N64  1  0.55552556  0.87269545  0.38358025  1
  N  N65  1  0.44865042  0.75866949  0.13034922  1
  N  N66  1  0.21480881  0.87595672  0.83258722  1
  N  N67  1  0.07855486  0.77752200  0.58372377  1
  N  N68  1  0.88922434  0.87409036  0.32261637  1
  N  N69  1  0.77233733  0.75693170  0.12520203  1
  N  N70  1  0.55475537  0.87196614  0.87944319  1
  N  N71  1  0.44865032  0.75935662  0.63034982  1
