# generated using pymatgen
data_Al17BN18
_symmetry_space_group_name_H-M   'P 1'
_cell_length_a   9.32823676
_cell_length_b   9.33974430
_cell_length_c   10.23935817
_cell_angle_alpha   89.99460103
_cell_angle_beta   89.73099779
_cell_angle_gamma   59.91766030
_symmetry_Int_Tables_number   1
_chemical_formula_structural   Al17BN18
_chemical_formula_sum   'Al34 B2 N36'
_cell_volume   771.91718623
_cell_formula_units_Z   2
loop_
 _symmetry_equiv_pos_site_id
 _symmetry_equiv_pos_as_xyz
  1  'x, y, z'
loop_
 _atom_site_type_symbol
 _atom_site_label
 _atom_site_symmetry_multiplicity
 _atom_site_fract_x
 _atom_site_fract_y
 _atom_site_fract_z
 _atom_site_occupancy
  Al  Al0  1  0.11541355  0.09259712  0.39632896  1
  Al  Al1  1  0.21014893  0.21014765  0.13717889  1
  Al  Al2  1  0.78330202  0.08277249  0.81371967  1
  Al  Al3  1  0.89231196  0.20157955  0.60592033  1
  Al  Al4  1  0.45185353  0.09034211  0.31568915  1
  Al  Al5  1  0.56187311  0.20687792  0.06385825  1
  Al  Al6  1  0.10083462  0.09903372  0.88282492  1
  Al  Al7  1  0.21770743  0.21000229  0.64385986  1
  Al  Al8  1  0.78314899  0.10189141  0.31567291  1
  Al  Al9  1  0.45192850  0.09127459  0.82039320  1
  Al  Al10  1  0.56214745  0.19622679  0.56473595  1
  Al  Al11  1  0.11213330  0.42475238  0.39104101  1
  Al  Al12  1  0.21553750  0.53961169  0.14273141  1
  Al  Al13  1  0.78214623  0.42109089  0.88051247  1
  Al  Al14  1  0.89027249  0.54940652  0.64139107  1
  Al  Al15  1  0.44970538  0.42078940  0.32104668  1
  Al  Al16  1  0.56248910  0.53078711  0.11994827  1
  Al  Al17  1  0.11066651  0.42931665  0.89066179  1
  Al  Al18  1  0.21044627  0.54640992  0.63681844  1
  Al  Al19  1  0.77820238  0.42934887  0.39594552  1
  Al  Al20  1  0.88999819  0.52955065  0.14255043  1
  Al  Al21  1  0.44747343  0.42202342  0.82107931  1
  Al  Al22  1  0.55995967  0.53909775  0.62830309  1
  Al  Al23  1  0.10270826  0.76664246  0.38357443  1
  Al  Al24  1  0.20607304  0.88116831  0.14123151  1
  Al  Al25  1  0.78402700  0.75607003  0.89686048  1
  Al  Al26  1  0.44795116  0.76173878  0.31793533  1
  Al  Al27  1  0.54666587  0.87541591  0.06830626  1
  Al  Al28  1  0.11411983  0.75948247  0.89672947  1
  Al  Al29  1  0.20784753  0.87872046  0.64226463  1
  Al  Al30  1  0.78611240  0.76077923  0.37744623  1
  Al  Al31  1  0.89012836  0.87282569  0.11032969  1
  Al  Al32  1  0.44515648  0.76548064  0.82363042  1
  Al  Al33  1  0.55134902  0.87882432  0.56828195  1
  B  B34  1  0.88659122  0.20739684  0.09613566  1
  B  B35  1  0.88657559  0.87222767  0.59614579  1
  N  N36  1  0.21680385  0.20652746  0.32532746  1
  N  N37  1  0.07814225  0.10994971  0.07792795  1
  N  N38  1  0.88818198  0.20863300  0.81053030  1
  N  N39  1  0.79231352  0.05664966  0.62127828  1
  N  N40  1  0.55965788  0.20073723  0.37892937  1
  N  N41  1  0.45131438  0.09331024  0.12736709  1
  N  N42  1  0.21695910  0.20849565  0.83332687  1
  N  N43  1  0.12443656  0.09050340  0.58104717  1
  N  N44  1  0.88690902  0.20177998  0.39098928  1
  N  N45  1  0.79147589  0.11891064  0.12254352  1
  N  N46  1  0.56029319  0.20307827  0.87861492  1
  N  N47  1  0.45067710  0.09360428  0.63229974  1
  N  N48  1  0.21637397  0.54134867  0.33333261  1
  N  N49  1  0.10969841  0.42810508  0.07725508  1
  N  N50  1  0.88839609  0.54124067  0.82791122  1
  N  N51  1  0.77822540  0.44126291  0.58258582  1
  N  N52  1  0.56352066  0.53447930  0.33325179  1
  N  N53  1  0.44546648  0.42001486  0.12762535  1
  N  N54  1  0.21427759  0.54387427  0.82573645  1
  N  N55  1  0.11135827  0.42727894  0.57766395  1
  N  N56  1  0.89039075  0.53527973  0.32877311  1
  N  N57  1  0.79637899  0.39568231  0.07627849  1
  N  N58  1  0.55621776  0.53910188  0.84947210  1
  N  N59  1  0.45005015  0.42008824  0.62607331  1
  N  N60  1  0.21444603  0.87679949  0.32970645  1
  N  N61  1  0.12138455  0.75336027  0.08138110  1
  N  N62  1  0.88625806  0.87843800  0.88745710  1
  N  N63  1  0.79730837  0.77486295  0.57615046  1
  N  N64  1  0.55165508  0.87390523  0.38162912  1
  N  N65  1  0.44115043  0.76524986  0.12588216  1
  N  N66  1  0.21250767  0.87662326  0.83047997  1
  N  N67  1  0.07960172  0.77835986  0.57804348  1
  N  N68  1  0.88882878  0.87083851  0.31120534  1
  N  N69  1  0.77730659  0.74878871  0.08596893  1
  N  N70  1  0.55045281  0.87604499  0.88140028  1
  N  N71  1  0.44431301  0.76621915  0.63004029  1
