# generated using pymatgen
data_Al17BN18
_symmetry_space_group_name_H-M   'P 1'
_cell_length_a   9.31366136
_cell_length_b   9.32544677
_cell_length_c   10.06412727
_cell_angle_alpha   90.00060610
_cell_angle_beta   89.71339451
_cell_angle_gamma   59.94617496
_symmetry_Int_Tables_number   1
_chemical_formula_structural   Al17BN18
_chemical_formula_sum   'Al34 B2 N36'
_cell_volume   756.57810371
_cell_formula_units_Z   2
loop_
 _symmetry_equiv_pos_site_id
 _symmetry_equiv_pos_as_xyz
  1  'x, y, z'
loop_
 _atom_site_type_symbol
 _atom_site_label
 _atom_site_symmetry_multiplicity
 _atom_site_fract_x
 _atom_site_fract_y
 _atom_site_fract_z
 _atom_site_occupancy
  Al  Al0  1  0.11374706  0.09335244  0.40548708  1
  Al  Al1  1  0.21536907  0.20728927  0.14751331  1
  Al  Al2  1  0.78561359  0.08196163  0.82874898  1
  Al  Al3  1  0.89173623  0.20219366  0.61663113  1
  Al  Al4  1  0.44361951  0.09449382  0.39655283  1
  Al  Al5  1  0.55608720  0.20975949  0.13812993  1
  Al  Al6  1  0.10279826  0.09776968  0.89223350  1
  Al  Al7  1  0.22395385  0.20556066  0.65328092  1
  Al  Al8  1  0.78561403  0.09910018  0.32874958  1
  Al  Al9  1  0.44609567  0.09288475  0.89819607  1
  Al  Al10  1  0.55607853  0.20081353  0.63813103  1
  Al  Al11  1  0.11116567  0.42589138  0.40015320  1
  Al  Al12  1  0.22395400  0.53714208  0.15328114  1
  Al  Al13  1  0.78095575  0.42174051  0.89086609  1
  Al  Al14  1  0.89142713  0.54600271  0.65133739  1
  Al  Al15  1  0.44609806  0.42769464  0.39819558  1
  Al  Al16  1  0.55955385  0.53328275  0.14707534  1
  Al  Al17  1  0.11116380  0.42962146  0.90015364  1
  Al  Al18  1  0.21536446  0.54400300  0.64751437  1
  Al  Al19  1  0.77529034  0.43158620  0.40613405  1
  Al  Al20  1  0.89142477  0.52923278  0.15133777  1
  Al  Al21  1  0.44361922  0.42856280  0.89655368  1
  Al  Al22  1  0.55442299  0.54237111  0.65298154  1
  Al  Al23  1  0.10279693  0.76610823  0.39223418  1
  Al  Al24  1  0.21585154  0.87634668  0.15114722  1
  Al  Al25  1  0.77528798  0.75980081  0.90613598  1
  Al  Al26  1  0.44327397  0.76025800  0.39996863  1
  Al  Al27  1  0.55442037  0.86986752  0.15298262  1
  Al  Al28  1  0.11374686  0.75957699  0.90548839  1
  Al  Al29  1  0.21585445  0.87445971  0.65114581  1
  Al  Al30  1  0.78095906  0.76397971  0.39086738  1
  Al  Al31  1  0.89173808  0.87272916  0.11663021  1
  Al  Al32  1  0.44327314  0.76314508  0.89996779  1
  Al  Al33  1  0.55955710  0.87381760  0.64707456  1
  B  B34  1  0.88745846  0.20758203  0.10631200  1
  B  B35  1  0.88745856  0.87162936  0.60631059  1
  N  N36  1  0.22066488  0.20444541  0.33647339  1
  N  N37  1  0.08003289  0.10967796  0.08962892  1
  N  N38  1  0.88926210  0.20777959  0.82303823  1
  N  N39  1  0.79423730  0.05460131  0.63014417  1
  N  N40  1  0.55316746  0.20636460  0.33886688  1
  N  N41  1  0.44503975  0.09193848  0.08888959  1
  N  N42  1  0.22208937  0.20565485  0.84315805  1
  N  N43  1  0.12341527  0.09003906  0.59356203  1
  N  N44  1  0.88556555  0.20396394  0.40118315  1
  N  N45  1  0.79424739  0.11784269  0.13014800  1
  N  N46  1  0.55316257  0.20711667  0.83886823  1
  N  N47  1  0.44315110  0.09400109  0.58628705  1
  N  N48  1  0.22209191  0.53890136  0.34315698  1
  N  N49  1  0.11243097  0.42796664  0.08985935  1
  N  N50  1  0.88915991  0.54065427  0.84066798  1
  N  N51  1  0.77304528  0.44282900  0.59492356  1
  N  N52  1  0.55710620  0.53846640  0.33652881  1
  N  N53  1  0.44315229  0.42952971  0.08628718  1
  N  N54  1  0.22066281  0.54153876  0.83647443  1
  N  N55  1  0.11243494  0.42628295  0.58985858  1
  N  N56  1  0.88916038  0.53683293  0.34066852  1
  N  N57  1  0.79382938  0.39770026  0.08856342  1
  N  N58  1  0.55493162  0.54071084  0.84235487  1
  N  N59  1  0.44503889  0.42970803  0.58889006  1
  N  N60  1  0.22066980  0.87382412  0.34047779  1
  N  N61  1  0.12341798  0.75322998  0.09356178  1
  N  N62  1  0.88556233  0.87711629  0.90118368  1
  N  N63  1  0.79383861  0.77514971  0.58856323  1
  N  N64  1  0.55493459  0.87100344  0.34235698  1
  N  N65  1  0.44214848  0.76246870  0.09023571  1
  N  N66  1  0.22067046  0.87215205  0.84047588  1
  N  N67  1  0.08003211  0.77696230  0.58962678  1
  N  N68  1  0.88926318  0.86960377  0.32303840  1
  N  N69  1  0.77304277  0.75081551  0.09492260  1
  N  N70  1  0.55710425  0.87107586  0.83652811  1
  N  N71  1  0.44214900  0.76206822  0.59023464  1
