# generated using pymatgen
data_Al17BN18
_symmetry_space_group_name_H-M   'P 1'
_cell_length_a   9.30054119
_cell_length_b   9.29830789
_cell_length_c   9.94034700
_cell_angle_alpha   90.00000181
_cell_angle_beta   90.03195755
_cell_angle_gamma   60.00794406
_symmetry_Int_Tables_number   1
_chemical_formula_structural   Al17BN18
_chemical_formula_sum   'Al34 B2 N36'
_cell_volume   744.52449325
_cell_formula_units_Z   2
loop_
 _symmetry_equiv_pos_site_id
 _symmetry_equiv_pos_as_xyz
  1  'x, y, z'
loop_
 _atom_site_type_symbol
 _atom_site_label
 _atom_site_symmetry_multiplicity
 _atom_site_fract_x
 _atom_site_fract_y
 _atom_site_fract_z
 _atom_site_occupancy
  Al  Al0  1  0.10841403  0.09559727  0.40228261  1
  Al  Al1  1  0.21708662  0.20741741  0.15925461  1
  Al  Al2  1  0.78171441  0.09439802  0.90693666  1
  Al  Al3  1  0.89029536  0.19999847  0.65752142  1
  Al  Al4  1  0.44446991  0.09479025  0.40903612  1
  Al  Al5  1  0.56081751  0.20654518  0.15936466  1
  Al  Al6  1  0.10549715  0.09713696  0.91363300  1
  Al  Al7  1  0.22099659  0.20464206  0.65918642  1
  Al  Al8  1  0.78171442  0.09055460  0.40693654  1
  Al  Al9  1  0.44440974  0.09421422  0.90984949  1
  Al  Al10  1  0.56081806  0.19930392  0.65936457  1
  Al  Al11  1  0.11079944  0.42810107  0.40934772  1
  Al  Al12  1  0.22099641  0.54102819  0.15918638  1
  Al  Al13  1  0.78073593  0.42209828  0.91314534  1
  Al  Al14  1  0.88961171  0.54103124  0.65889627  1
  Al  Al15  1  0.44440963  0.42804260  0.40984954  1
  Al  Al16  1  0.55899613  0.53388395  0.15916400  1
  Al  Al17  1  0.11079931  0.42776565  0.90934782  1
  Al  Al18  1  0.21708687  0.54216259  0.65925463  1
  Al  Al19  1  0.77893789  0.42517914  0.40238354  1
  Al  Al20  1  0.88961120  0.53602378  0.15889624  1
  Al  Al21  1  0.44446959  0.42740626  0.90903614  1
  Al  Al22  1  0.55729093  0.53758200  0.65965809  1
  Al  Al23  1  0.10549728  0.76403205  0.41363294  1
  Al  Al24  1  0.21611254  0.87502461  0.15898244  1
  Al  Al25  1  0.77893808  0.76254960  0.90238337  1
  Al  Al26  1  0.44435270  0.76075625  0.40907601  1
  Al  Al27  1  0.55729112  0.87179371  0.15965800  1
  Al  Al28  1  0.10841382  0.76265504  0.90228262  1
  Al  Al29  1  0.21611286  0.87552994  0.65898248  1
  Al  Al30  1  0.78073650  0.76383220  0.41314540  1
  Al  Al31  1  0.89029488  0.87637313  0.15752142  1
  Al  Al32  1  0.44435263  0.76155831  0.90907592  1
  Al  Al33  1  0.55899668  0.87378667  0.65916392  1
  B  B34  1  0.88898919  0.20472839  0.16183440  1
  B  B35  1  0.88898961  0.87294900  0.66183437  1
  N  N36  1  0.22227206  0.20610512  0.34929801  1
  N  N37  1  0.08588019  0.10691923  0.10778531  1
  N  N38  1  0.88929202  0.20562727  0.84570729  1
  N  N39  1  0.79090846  0.06992381  0.60309426  1
  N  N40  1  0.55745495  0.20512777  0.35126625  1
  N  N41  1  0.44437748  0.09521602  0.10144986  1
  N  N42  1  0.22097926  0.20427534  0.85200299  1
  N  N43  1  0.10939796  0.09547562  0.59438015  1
  N  N44  1  0.88798697  0.20442658  0.32925360  1
  N  N45  1  0.79090805  0.10583483  0.10309437  1
  N  N46  1  0.55745499  0.20408389  0.85126623  1
  N  N47  1  0.44336722  0.09514501  0.60007926  1
  N  N48  1  0.22097922  0.54141166  0.35200297  1
  N  N49  1  0.11100351  0.42875068  0.10010674  1
  N  N50  1  0.88786102  0.53732104  0.85067647  1
  N  N51  1  0.77911369  0.42505149  0.59547878  1
  N  N52  1  0.55501126  0.53894897  0.34940915  1
  N  N53  1  0.44336682  0.42815480  0.10007926  1
  N  N54  1  0.22227175  0.53828915  0.84929804  1
  N  N55  1  0.11100382  0.42691235  0.60010666  1
  N  N56  1  0.88786111  0.54148430  0.35067643  1
  N  N57  1  0.79059863  0.40283352  0.10750637  1
  N  N58  1  0.55785790  0.53773413  0.85200226  1
  N  N59  1  0.44437759  0.42707311  0.60144990  1
  N  N60  1  0.22113070  0.87042528  0.35074931  1
  N  N61  1  0.10939769  0.76179345  0.09438024  1
  N  N62  1  0.88798695  0.87425342  0.82925357  1
  N  N63  1  0.79059917  0.77323408  0.60750640  1
  N  N64  1  0.55785845  0.87107433  0.35200214  1
  N  N65  1  0.44390224  0.76145732  0.10105281  1
  N  N66  1  0.22113060  0.87511050  0.85074934  1
  N  N67  1  0.08588063  0.77386719  0.60778532  1
  N  N68  1  0.88929207  0.87174744  0.34570728  1
  N  N69  1  0.77911352  0.76250152  0.09547860  1
  N  N70  1  0.55501160  0.87270646  0.84940896  1
  N  N71  1  0.44390250  0.76130741  0.60105289  1
