# generated using pymatgen
data_Al17BN18
_symmetry_space_group_name_H-M   'P 1'
_cell_length_a   9.32709141
_cell_length_b   9.33836337
_cell_length_c   10.23679953
_cell_angle_alpha   89.99453944
_cell_angle_beta   89.73139899
_cell_angle_gamma   59.92007209
_symmetry_Int_Tables_number   1
_chemical_formula_structural   Al17BN18
_chemical_formula_sum   'Al34 B2 N36'
_cell_volume   771.53430127
_cell_formula_units_Z   2
loop_
 _symmetry_equiv_pos_site_id
 _symmetry_equiv_pos_as_xyz
  1  'x, y, z'
loop_
 _atom_site_type_symbol
 _atom_site_label
 _atom_site_symmetry_multiplicity
 _atom_site_fract_x
 _atom_site_fract_y
 _atom_site_fract_z
 _atom_site_occupancy
  Al  Al0  1  0.11559516  0.09240156  0.39628146  1
  Al  Al1  1  0.21008171  0.21016787  0.13721599  1
  Al  Al2  1  0.78318844  0.08279097  0.81383409  1
  Al  Al3  1  0.89248207  0.20138887  0.60611296  1
  Al  Al4  1  0.45181495  0.09039537  0.31581825  1
  Al  Al5  1  0.56195737  0.20675046  0.06398292  1
  Al  Al6  1  0.10097179  0.09888581  0.88292806  1
  Al  Al7  1  0.21767607  0.21003034  0.64391646  1
  Al  Al8  1  0.78305220  0.10194865  0.31566788  1
  Al  Al9  1  0.45187467  0.09132849  0.82054794  1
  Al  Al10  1  0.56233567  0.19598253  0.56470862  1
  Al  Al11  1  0.11229335  0.42477383  0.39099002  1
  Al  Al12  1  0.21548488  0.53958041  0.14298751  1
  Al  Al13  1  0.78264925  0.42088746  0.88006580  1
  Al  Al14  1  0.89036208  0.54946368  0.64155855  1
  Al  Al15  1  0.45036974  0.42141720  0.32053938  1
  Al  Al16  1  0.55978694  0.53232779  0.10608030  1
  Al  Al17  1  0.11082746  0.42931603  0.89073243  1
  Al  Al18  1  0.21016665  0.54654367  0.63714281  1
  Al  Al19  1  0.77904412  0.42886475  0.39561902  1
  Al  Al20  1  0.88978216  0.52945826  0.14264009  1
  Al  Al21  1  0.44827228  0.42281662  0.82111044  1
  Al  Al22  1  0.55771444  0.54024093  0.61502862  1
  Al  Al23  1  0.10284621  0.76655222  0.38346873  1
  Al  Al24  1  0.20601497  0.88124217  0.14147838  1
  Al  Al25  1  0.78393809  0.75614486  0.89689241  1
  Al  Al26  1  0.44849925  0.76061628  0.31766001  1
  Al  Al27  1  0.54668512  0.87548132  0.06836837  1
  Al  Al28  1  0.11421445  0.75944028  0.89670549  1
  Al  Al29  1  0.20761345  0.87880625  0.64257747  1
  Al  Al30  1  0.78598065  0.76084428  0.37737132  1
  Al  Al31  1  0.89020356  0.87278802  0.11033311  1
  Al  Al32  1  0.44596928  0.76396042  0.82365328  1
  Al  Al33  1  0.55150358  0.87893393  0.56833551  1
  B  B34  1  0.88667957  0.20741959  0.09636633  1
  B  B35  1  0.88659988  0.87219997  0.59617916  1
  N  N36  1  0.21676508  0.20655483  0.32536381  1
  N  N37  1  0.07836531  0.10974574  0.07793068  1
  N  N38  1  0.88821690  0.20851396  0.81045652  1
  N  N39  1  0.79234193  0.05660695  0.62130766  1
  N  N40  1  0.55950950  0.20097044  0.37896887  1
  N  N41  1  0.45127732  0.09335168  0.12739656  1
  N  N42  1  0.21689181  0.20853404  0.83334137  1
  N  N43  1  0.12466002  0.09031138  0.58106610  1
  N  N44  1  0.88709890  0.20154900  0.39105625  1
  N  N45  1  0.79155553  0.11875678  0.12253459  1
  N  N46  1  0.56016185  0.20332183  0.87860706  1
  N  N47  1  0.45065044  0.09365394  0.63235520  1
  N  N48  1  0.21645251  0.54125990  0.33329879  1
  N  N49  1  0.10972205  0.42813634  0.07729661  1
  N  N50  1  0.88844450  0.54131879  0.82792595  1
  N  N51  1  0.77919630  0.44063829  0.58338327  1
  N  N52  1  0.56123379  0.53576747  0.34245958  1
  N  N53  1  0.44589501  0.42009292  0.12835962  1
  N  N54  1  0.21450319  0.54379393  0.82572246  1
  N  N55  1  0.11148020  0.42727507  0.57768927  1
  N  N56  1  0.89044857  0.53532573  0.32880393  1
  N  N57  1  0.79710215  0.39519215  0.07684912  1
  N  N58  1  0.55432817  0.54003620  0.86131275  1
  N  N59  1  0.45047788  0.42021030  0.62710493  1
  N  N60  1  0.21448910  0.87680508  0.32968275  1
  N  N61  1  0.12159657  0.75324676  0.08136289  1
  N  N62  1  0.88632103  0.87838368  0.88743825  1
  N  N63  1  0.79731877  0.77483919  0.57622823  1
  N  N64  1  0.55148373  0.87392512  0.38172476  1
  N  N65  1  0.44152027  0.76493011  0.12657642  1
  N  N66  1  0.21274168  0.87649447  0.83044646  1
  N  N67  1  0.07969712  0.77829974  0.57809414  1
  N  N68  1  0.88882434  0.87082661  0.31123319  1
  N  N69  1  0.77729946  0.74876594  0.08598800  1
  N  N70  1  0.55032329  0.87595671  0.88133511  1
  N  N71  1  0.44481286  0.76554816  0.63096901  1
