# generated using pymatgen
data_Al17BN18
_symmetry_space_group_name_H-M   'P 1'
_cell_length_a   9.30055403
_cell_length_b   9.29832121
_cell_length_c   9.94031795
_cell_angle_alpha   89.99999887
_cell_angle_beta   89.96823031
_cell_angle_gamma   60.00793934
_symmetry_Int_Tables_number   1
_chemical_formula_structural   Al17BN18
_chemical_formula_sum   'Al34 B2 N36'
_cell_volume   744.52437810
_cell_formula_units_Z   2
loop_
 _symmetry_equiv_pos_site_id
 _symmetry_equiv_pos_as_xyz
  1  'x, y, z'
loop_
 _atom_site_type_symbol
 _atom_site_label
 _atom_site_symmetry_multiplicity
 _atom_site_fract_x
 _atom_site_fract_y
 _atom_site_fract_z
 _atom_site_occupancy
  Al  Al0  1  0.10554273  0.09711414  0.30279129  1
  Al  Al1  1  0.21713226  0.20739455  0.05716991  1
  Al  Al2  1  0.78176018  0.09053171  0.80948808  1
  Al  Al3  1  0.89034112  0.19997556  0.55890297  1
  Al  Al4  1  0.44445549  0.09419132  0.30657472  1
  Al  Al5  1  0.56086331  0.20652231  0.05705982  1
  Al  Al6  1  0.10845982  0.09557440  0.81414132  1
  Al  Al7  1  0.22104247  0.20461918  0.55723789  1
  Al  Al8  1  0.78176017  0.09437514  0.30948795  1
  Al  Al9  1  0.44451555  0.09476743  0.80738845  1
  Al  Al10  1  0.56086389  0.19928094  0.55705990  1
  Al  Al11  1  0.11084504  0.42774278  0.30707664  1
  Al  Al12  1  0.22104227  0.54100518  0.05723795  1
  Al  Al13  1  0.77898357  0.42515633  0.81404032  1
  Al  Al14  1  0.88965746  0.54100844  0.55752801  1
  Al  Al15  1  0.44451525  0.42738340  0.30738846  1
  Al  Al16  1  0.55904192  0.53386095  0.05726046  1
  Al  Al17  1  0.11084516  0.42807818  0.80707674  1
  Al  Al18  1  0.21713254  0.54213976  0.55716988  1
  Al  Al19  1  0.78078174  0.42207528  0.30327880  1
  Al  Al20  1  0.88965694  0.53600081  0.05752806  1
  Al  Al21  1  0.44445539  0.42801972  0.80657467  1
  Al  Al22  1  0.55733663  0.53755919  0.55676608  1
  Al  Al23  1  0.10845960  0.76263211  0.31414131  1
  Al  Al24  1  0.21615827  0.87500176  0.05744194  1
  Al  Al25  1  0.78078229  0.76380937  0.80327873  1
  Al  Al26  1  0.44439835  0.76153549  0.30734849  1
  Al  Al27  1  0.55733679  0.87177082  0.05676614  1
  Al  Al28  1  0.10554288  0.76400925  0.80279136  1
  Al  Al29  1  0.21615861  0.87550702  0.55744187  1
  Al  Al30  1  0.77898375  0.76252674  0.31404047  1
  Al  Al31  1  0.89034062  0.87635027  0.05890294  1
  Al  Al32  1  0.44439841  0.76073333  0.80734840  1
  Al  Al33  1  0.55904249  0.87376383  0.55726053  1
  B  B34  1  0.88903517  0.20470544  0.05458932  1
  B  B35  1  0.88903561  0.87292595  0.55458936  1
  N  N36  1  0.22102519  0.20425232  0.36442058  1
  N  N37  1  0.08592579  0.10689642  0.10863824  1
  N  N38  1  0.88803285  0.20440370  0.88716957  1
  N  N39  1  0.79095452  0.06990068  0.61332939  1
  N  N40  1  0.55750084  0.20406089  0.36515744  1
  N  N41  1  0.44442336  0.09519302  0.11497366  1
  N  N42  1  0.22231785  0.20608217  0.86712577  1
  N  N43  1  0.10944401  0.09545264  0.62204325  1
  N  N44  1  0.88933792  0.20560431  0.37071650  1
  N  N45  1  0.79095409  0.10581190  0.11332927  1
  N  N46  1  0.55750080  0.20510487  0.86515742  1
  N  N47  1  0.44341316  0.09512206  0.61634453  1
  N  N48  1  0.22231755  0.53826628  0.36712573  1
  N  N49  1  0.11104941  0.42872774  0.11631696  1
  N  N50  1  0.88790690  0.54146138  0.86574703  1
  N  N51  1  0.77915962  0.42502858  0.62094449  1
  N  N52  1  0.55790384  0.53771118  0.36442126  1
  N  N53  1  0.44341275  0.42813180  0.11634457  1
  N  N54  1  0.22102517  0.54138870  0.86442059  1
  N  N55  1  0.11104973  0.42688937  0.61631703  1
  N  N56  1  0.88790681  0.53729816  0.36574697  1
  N  N57  1  0.79064466  0.40281033  0.10891710  1
  N  N58  1  0.55505719  0.53892595  0.86701447  1
  N  N59  1  0.44442350  0.42705019  0.61497362  1
  N  N60  1  0.22117641  0.87508756  0.36567422  1
  N  N61  1  0.10944369  0.76177036  0.12204317  1
  N  N62  1  0.88933798  0.87172446  0.87071646  1
  N  N63  1  0.79064521  0.77321120  0.60891706  1
  N  N64  1  0.55505754  0.87268351  0.36701464  1
  N  N65  1  0.44394813  0.76143435  0.11537082  1
  N  N66  1  0.22117651  0.87040239  0.86567427  1
  N  N67  1  0.08592626  0.77384437  0.60863823  1
  N  N68  1  0.88803284  0.87423039  0.38716962  1
  N  N69  1  0.77915939  0.76247854  0.12094465  1
  N  N70  1  0.55790437  0.87105133  0.86442132  1
  N  N71  1  0.44394840  0.76128446  0.61537073  1
