# generated using pymatgen
data_Al17BN18
_symmetry_space_group_name_H-M   'P 1'
_cell_length_a   9.30848834
_cell_length_b   9.30952888
_cell_length_c   9.98193184
_cell_angle_alpha   89.97179335
_cell_angle_beta   89.97085570
_cell_angle_gamma   60.01292171
_symmetry_Int_Tables_number   1
_chemical_formula_structural   Al17BN18
_chemical_formula_sum   'Al34 B2 N36'
_cell_volume   749.21860799
_cell_formula_units_Z   2
loop_
 _symmetry_equiv_pos_site_id
 _symmetry_equiv_pos_as_xyz
  1  'x, y, z'
loop_
 _atom_site_type_symbol
 _atom_site_label
 _atom_site_symmetry_multiplicity
 _atom_site_fract_x
 _atom_site_fract_y
 _atom_site_fract_z
 _atom_site_occupancy
  Al  Al0  1  0.10496767  0.09710401  0.30788752  1
  Al  Al1  1  0.21788755  0.20704858  0.06240541  1
  Al  Al2  1  0.78161901  0.09139890  0.82316280  1
  Al  Al3  1  0.89080205  0.19870042  0.56312095  1
  Al  Al4  1  0.44592093  0.09372508  0.31137224  1
  Al  Al5  1  0.55953932  0.20762286  0.06044937  1
  Al  Al6  1  0.10839390  0.09717439  0.82011473  1
  Al  Al7  1  0.22094867  0.20507520  0.56026331  1
  Al  Al8  1  0.78074879  0.09667689  0.30643248  1
  Al  Al9  1  0.44404202  0.09507358  0.81098354  1
  Al  Al10  1  0.56127718  0.19842720  0.56117071  1
  Al  Al11  1  0.11002864  0.42946915  0.31184125  1
  Al  Al12  1  0.22385719  0.53675048  0.06051305  1
  Al  Al13  1  0.77875883  0.42512118  0.81630687  1
  Al  Al14  1  0.89003411  0.54205027  0.56163689  1
  Al  Al15  1  0.44385166  0.42816145  0.31252554  1
  Al  Al16  1  0.55962715  0.53292389  0.06181835  1
  Al  Al17  1  0.11172184  0.42667604  0.81006013  1
  Al  Al18  1  0.21496072  0.54416979  0.56155077  1
  Al  Al19  1  0.78081188  0.42260263  0.30794686  1
  Al  Al20  1  0.89060010  0.53246323  0.05975932  1
  Al  Al21  1  0.44492625  0.42771379  0.80957511  1
  Al  Al22  1  0.55710208  0.53790567  0.55961613  1
  Al  Al23  1  0.10874677  0.76315379  0.30963019  1
  Al  Al24  1  0.21829006  0.87552532  0.06353262  1
  Al  Al25  1  0.78033168  0.76300623  0.81642194  1
  Al  Al26  1  0.44419652  0.76203150  0.31201566  1
  Al  Al27  1  0.55605379  0.87123672  0.05952722  1
  Al  Al28  1  0.10611596  0.76266684  0.82065020  1
  Al  Al29  1  0.21449867  0.87608098  0.56917520  1
  Al  Al30  1  0.77816246  0.76200480  0.30960726  1
  Al  Al31  1  0.88948727  0.87563943  0.07436263  1
  Al  Al32  1  0.44570855  0.75963891  0.81230339  1
  Al  Al33  1  0.55982000  0.87469267  0.56142929  1
  B  B34  1  0.88627790  0.20731654  0.05812855  1
  B  B35  1  0.88868392  0.87285148  0.60082450  1
  N  N36  1  0.22115549  0.20491682  0.36858327  1
  N  N37  1  0.08599886  0.10748445  0.11330747  1
  N  N38  1  0.88833953  0.20654766  0.89117487  1
  N  N39  1  0.79309044  0.06560426  0.62483449  1
  N  N40  1  0.55801818  0.20492239  0.37043643  1
  N  N41  1  0.44583995  0.09411809  0.11980333  1
  N  N42  1  0.22310369  0.20629170  0.87233869  1
  N  N43  1  0.10855389  0.09762995  0.62797903  1
  N  N44  1  0.88798140  0.20598812  0.37565177  1
  N  N45  1  0.78847540  0.11231725  0.11196560  1
  N  N46  1  0.55574196  0.20600269  0.86924312  1
  N  N47  1  0.44318251  0.09546057  0.62045621  1
  N  N48  1  0.22105967  0.54102451  0.37213916  1
  N  N49  1  0.11121543  0.42810632  0.12132071  1
  N  N50  1  0.88951468  0.53856601  0.86862554  1
  N  N51  1  0.77877082  0.42515411  0.62409296  1
  N  N52  1  0.55784063  0.53812691  0.36848315  1
  N  N53  1  0.44419335  0.42720170  0.12175391  1
  N  N54  1  0.22302290  0.53737108  0.86895059  1
  N  N55  1  0.11107082  0.42711088  0.61999820  1
  N  N56  1  0.88676060  0.53899499  0.37085129  1
  N  N57  1  0.79086539  0.40258913  0.11342531  1
  N  N58  1  0.55566304  0.53786637  0.87151468  1
  N  N59  1  0.44401112  0.42764207  0.61865428  1
  N  N60  1  0.22064697  0.87443043  0.36984568  1
  N  N61  1  0.11627716  0.75695599  0.11780315  1
  N  N62  1  0.88771173  0.87224682  0.88247978  1
  N  N63  1  0.79251472  0.77601263  0.62028596  1
  N  N64  1  0.55649418  0.87174561  0.37205718  1
  N  N65  1  0.44524928  0.76030492  0.11985517  1
  N  N66  1  0.22256892  0.87162653  0.86923162  1
  N  N67  1  0.08070616  0.77575579  0.62312677  1
  N  N68  1  0.88652344  0.87552877  0.34686712  1
  N  N69  1  0.77628703  0.75615717  0.11792927  1
  N  N70  1  0.55609522  0.87219164  0.86836479  1
  N  N71  1  0.44536227  0.76077167  0.62073482  1
