# generated using pymatgen
data_Al17BN18
_symmetry_space_group_name_H-M   'P 1'
_cell_length_a   9.31305758
_cell_length_b   9.34829616
_cell_length_c   10.16393800
_cell_angle_alpha   90.01112362
_cell_angle_beta   89.47636411
_cell_angle_gamma   59.94445332
_symmetry_Int_Tables_number   1
_chemical_formula_structural   Al17BN18
_chemical_formula_sum   'Al34 B2 N36'
_cell_volume   765.85983796
_cell_formula_units_Z   2
loop_
 _symmetry_equiv_pos_site_id
 _symmetry_equiv_pos_as_xyz
  1  'x, y, z'
loop_
 _atom_site_type_symbol
 _atom_site_label
 _atom_site_symmetry_multiplicity
 _atom_site_fract_x
 _atom_site_fract_y
 _atom_site_fract_z
 _atom_site_occupancy
  Al  Al0  1  0.11462799  0.09351446  0.39889880  1
  Al  Al1  1  0.21464639  0.20435903  0.13717749  1
  Al  Al2  1  0.78145024  0.08634841  0.82180354  1
  Al  Al3  1  0.88821904  0.20276454  0.60175934  1
  Al  Al4  1  0.45261888  0.08935414  0.32002118  1
  Al  Al5  1  0.56228130  0.20871742  0.06861339  1
  Al  Al6  1  0.09938148  0.10056995  0.89007469  1
  Al  Al7  1  0.22157535  0.19934821  0.64477512  1
  Al  Al8  1  0.78205911  0.09984272  0.32166076  1
  Al  Al9  1  0.45152658  0.09144605  0.82583378  1
  Al  Al10  1  0.56226791  0.19505740  0.56841013  1
  Al  Al11  1  0.10879517  0.43414378  0.32476428  1
  Al  Al12  1  0.22834585  0.53297739  0.08027250  1
  Al  Al13  1  0.77622647  0.43105588  0.81434534  1
  Al  Al14  1  0.89068909  0.54516980  0.56901535  1
  Al  Al15  1  0.44541842  0.42732195  0.32486590  1
  Al  Al16  1  0.55927610  0.53431629  0.07254491  1
  Al  Al17  1  0.10730961  0.43426705  0.82250966  1
  Al  Al18  1  0.22097975  0.53637448  0.57954652  1
  Al  Al19  1  0.78332632  0.42065002  0.32788448  1
  Al  Al20  1  0.89131382  0.53091753  0.06857070  1
  Al  Al21  1  0.44802617  0.42674425  0.81865004  1
  Al  Al22  1  0.55597725  0.54117540  0.56695103  1
  Al  Al23  1  0.09751145  0.77159905  0.38887590  1
  Al  Al24  1  0.20845019  0.88043480  0.14574948  1
  Al  Al25  1  0.78238989  0.76304499  0.82747793  1
  Al  Al26  1  0.44872120  0.75964359  0.32209795  1
  Al  Al27  1  0.55566382  0.86948274  0.06667810  1
  Al  Al28  1  0.11061858  0.76543419  0.89731088  1
  Al  Al29  1  0.20772892  0.87662445  0.64556059  1
  Al  Al30  1  0.77608761  0.75891171  0.31380226  1
  Al  Al31  1  0.88785377  0.87538496  0.10315895  1
  Al  Al32  1  0.44844724  0.75784378  0.82206422  1
  Al  Al33  1  0.55901362  0.87317851  0.57233019  1
  B  B34  1  0.88565679  0.20977279  0.10925484  1
  B  B35  1  0.88593992  0.87152987  0.61069709  1
  N  N36  1  0.21974670  0.20171453  0.33010432  1
  N  N37  1  0.07719970  0.11191248  0.08458870  1
  N  N38  1  0.88940066  0.20456303  0.82144762  1
  N  N39  1  0.79056074  0.05760761  0.62642379  1
  N  N40  1  0.55788327  0.20352142  0.38091853  1
  N  N41  1  0.45440200  0.09061551  0.12745677  1
  N  N42  1  0.21970720  0.20332238  0.84098508  1
  N  N43  1  0.12138746  0.08826782  0.58324058  1
  N  N44  1  0.88177506  0.20856619  0.39617231  1
  N  N45  1  0.79080089  0.11928209  0.12612149  1
  N  N46  1  0.55800636  0.20668684  0.88143942  1
  N  N47  1  0.45201252  0.09044181  0.63425107  1
  N  N48  1  0.22410094  0.53752607  0.38605785  1
  N  N49  1  0.10785801  0.43446065  0.13235568  1
  N  N50  1  0.88670311  0.53884329  0.88138876  1
  N  N51  1  0.77341445  0.44126364  0.62704408  1
  N  N52  1  0.55634942  0.53952759  0.37912119  1
  N  N53  1  0.44771210  0.42595076  0.13597016  1
  N  N54  1  0.22520205  0.53682331  0.87141186  1
  N  N55  1  0.10787600  0.42960869  0.63125642  1
  N  N56  1  0.88703531  0.54159727  0.38159414  1
  N  N57  1  0.79485922  0.39838670  0.13045421  1
  N  N58  1  0.55654643  0.53815415  0.88454483  1
  N  N59  1  0.45143508  0.42296564  0.62918022  1
  N  N60  1  0.21453406  0.87648421  0.33419849  1
  N  N61  1  0.11915523  0.75959235  0.08509089  1
  N  N62  1  0.87963286  0.87779839  0.89586072  1
  N  N63  1  0.79411706  0.77383490  0.63068752  1
  N  N64  1  0.55691179  0.87115024  0.38461720  1
  N  N65  1  0.44681409  0.76015201  0.13101732  1
  N  N66  1  0.21428139  0.87708096  0.83388448  1
  N  N67  1  0.07534296  0.78006863  0.58668179  1
  N  N68  1  0.88888937  0.87311778  0.31969444  1
  N  N69  1  0.77289074  0.75154355  0.12686499  1
  N  N70  1  0.55615122  0.87011812  0.87957843  1
  N  N71  1  0.44662191  0.75925817  0.63085674  1
