# generated using pymatgen
data_Al17BN18
_symmetry_space_group_name_H-M   'P 1'
_cell_length_a   9.31054238
_cell_length_b   9.33549470
_cell_length_c   10.12256873
_cell_angle_alpha   90.03765418
_cell_angle_beta   89.74926990
_cell_angle_gamma   60.02617168
_symmetry_Int_Tables_number   1
_chemical_formula_structural   Al17BN18
_chemical_formula_sum   'Al34 B2 N36'
_cell_volume   762.15211520
_cell_formula_units_Z   2
loop_
 _symmetry_equiv_pos_site_id
 _symmetry_equiv_pos_as_xyz
  1  'x, y, z'
loop_
 _atom_site_type_symbol
 _atom_site_label
 _atom_site_symmetry_multiplicity
 _atom_site_fract_x
 _atom_site_fract_y
 _atom_site_fract_z
 _atom_site_occupancy
  Al  Al0  1  0.10505145  0.10054611  0.34703846  1
  Al  Al1  1  0.21405479  0.20495518  0.06117980  1
  Al  Al2  1  0.78027623  0.08695303  0.81263683  1
  Al  Al3  1  0.88657362  0.20371836  0.58421862  1
  Al  Al4  1  0.44718512  0.09326136  0.30750177  1
  Al  Al5  1  0.56163111  0.20778988  0.05766482  1
  Al  Al6  1  0.10750417  0.10053381  0.80449405  1
  Al  Al7  1  0.22789919  0.20685234  0.55906871  1
  Al  Al8  1  0.77864637  0.10061168  0.31077923  1
  Al  Al9  1  0.44430010  0.09429623  0.81116641  1
  Al  Al10  1  0.56207103  0.19635224  0.55825793  1
  Al  Al11  1  0.11221904  0.42972773  0.30846984  1
  Al  Al12  1  0.22847634  0.52968101  0.06054676  1
  Al  Al13  1  0.77553096  0.43118390  0.80453685  1
  Al  Al14  1  0.89223983  0.54487277  0.55878872  1
  Al  Al15  1  0.44414144  0.42817446  0.30999853  1
  Al  Al16  1  0.55906275  0.53393322  0.06141879  1
  Al  Al17  1  0.11136962  0.42710764  0.81059104  1
  Al  Al18  1  0.22123031  0.53525141  0.56217819  1
  Al  Al19  1  0.78204322  0.42327814  0.31659713  1
  Al  Al20  1  0.89114718  0.53016326  0.05815983  1
  Al  Al21  1  0.44638981  0.42684202  0.80920832  1
  Al  Al22  1  0.55709169  0.53956469  0.55539160  1
  Al  Al23  1  0.09726310  0.77021073  0.37529353  1
  Al  Al24  1  0.21007554  0.87879263  0.13672348  1
  Al  Al25  1  0.78224421  0.76281818  0.81728600  1
  Al  Al26  1  0.45177261  0.75844194  0.31267813  1
  Al  Al27  1  0.55380377  0.87022437  0.05562631  1
  Al  Al28  1  0.11020975  0.76745049  0.88669980  1
  Al  Al29  1  0.21387149  0.86821436  0.62209822  1
  Al  Al30  1  0.77658828  0.75900240  0.30232077  1
  Al  Al31  1  0.88861709  0.87610176  0.09272073  1
  Al  Al32  1  0.44923941  0.75664203  0.80780836  1
  Al  Al33  1  0.56088254  0.87400425  0.56033013  1
  B  B34  1  0.88863295  0.20876744  0.10627505  1
  B  B35  1  0.88613369  0.87128694  0.59850202  1
  N  N36  1  0.22576433  0.20870243  0.37029055  1
  N  N37  1  0.07632042  0.11527307  0.11957470  1
  N  N38  1  0.88405306  0.20739717  0.81898827  1
  N  N39  1  0.79063894  0.05775821  0.61471715  1
  N  N40  1  0.55642529  0.20526038  0.36954977  1
  N  N41  1  0.44560502  0.09360920  0.11776659  1
  N  N42  1  0.22088924  0.20387297  0.87135105  1
  N  N43  1  0.11766376  0.09489491  0.60360405  1
  N  N44  1  0.88128706  0.20892665  0.38774211  1
  N  N45  1  0.78884822  0.12005497  0.11663166  1
  N  N46  1  0.55603004  0.20517943  0.86925646  1
  N  N47  1  0.44621138  0.09417687  0.62199704  1
  N  N48  1  0.22428519  0.53682858  0.37255203  1
  N  N49  1  0.11178072  0.42651044  0.12066038  1
  N  N50  1  0.88874374  0.53772063  0.86936934  1
  N  N51  1  0.77434857  0.44050962  0.61556466  1
  N  N52  1  0.55688010  0.53786134  0.36750202  1
  N  N53  1  0.44619978  0.42583276  0.12203260  1
  N  N54  1  0.22537682  0.53303412  0.86861201  1
  N  N55  1  0.11204094  0.42655506  0.62219737  1
  N  N56  1  0.89014945  0.54053571  0.36975180  1
  N  N57  1  0.79250114  0.40044177  0.12100416  1
  N  N58  1  0.55582595  0.53867182  0.87266034  1
  N  N59  1  0.44866333  0.42521645  0.61894310  1
  N  N60  1  0.21964708  0.87243008  0.33090584  1
  N  N61  1  0.12002296  0.75839335  0.07564625  1
  N  N62  1  0.87993983  0.87743983  0.88478015  1
  N  N63  1  0.79426104  0.77401881  0.61937428  1
  N  N64  1  0.55810955  0.87290972  0.37213698  1
  N  N65  1  0.44683596  0.75953062  0.12111525  1
  N  N66  1  0.21729544  0.86966297  0.81472712  1
  N  N67  1  0.07450369  0.77810924  0.57203810  1
  N  N68  1  0.88844514  0.87417938  0.30831234  1
  N  N69  1  0.77260329  0.75204528  0.11477955  1
  N  N70  1  0.55463234  0.87130602  0.86670879  1
  N  N71  1  0.45040935  0.75818797  0.61519540  1
