# generated using pymatgen
data_Al17BN18
_symmetry_space_group_name_H-M   'P 1'
_cell_length_a   9.30386956
_cell_length_b   9.30721401
_cell_length_c   10.09009232
_cell_angle_alpha   90.02976327
_cell_angle_beta   89.67161854
_cell_angle_gamma   59.99258790
_symmetry_Int_Tables_number   1
_chemical_formula_structural   Al17BN18
_chemical_formula_sum   'Al34 B2 N36'
_cell_volume   756.59974530
_cell_formula_units_Z   2
loop_
 _symmetry_equiv_pos_site_id
 _symmetry_equiv_pos_as_xyz
  1  'x, y, z'
loop_
 _atom_site_type_symbol
 _atom_site_label
 _atom_site_symmetry_multiplicity
 _atom_site_fract_x
 _atom_site_fract_y
 _atom_site_fract_z
 _atom_site_occupancy
  Al  Al0  1  0.11483984  0.09344563  0.40498713  1
  Al  Al1  1  0.21489333  0.20764823  0.14771094  1
  Al  Al2  1  0.78743364  0.08119651  0.82416314  1
  Al  Al3  1  0.89106656  0.20278461  0.61445529  1
  Al  Al4  1  0.44348069  0.09536840  0.39772647  1
  Al  Al5  1  0.55417612  0.21040336  0.14550374  1
  Al  Al6  1  0.10395700  0.09679742  0.89252275  1
  Al  Al7  1  0.22334409  0.20574063  0.65309755  1
  Al  Al8  1  0.78458127  0.10058320  0.33530528  1
  Al  Al9  1  0.44690196  0.09263754  0.89907731  1
  Al  Al10  1  0.55287802  0.20282481  0.64392825  1
  Al  Al11  1  0.11030949  0.42727363  0.39994209  1
  Al  Al12  1  0.22279313  0.53850198  0.15203543  1
  Al  Al13  1  0.78125148  0.42001182  0.89148534  1
  Al  Al14  1  0.89081478  0.54582683  0.65289583  1
  Al  Al15  1  0.44494358  0.42864054  0.39912802  1
  Al  Al16  1  0.55956863  0.53238941  0.14748899  1
  Al  Al17  1  0.11155250  0.42851807  0.90026634  1
  Al  Al18  1  0.21514883  0.54402749  0.64894566  1
  Al  Al19  1  0.77477562  0.43368642  0.40574047  1
  Al  Al20  1  0.89056592  0.53126770  0.15026108  1
  Al  Al21  1  0.44529795  0.42597330  0.89755582  1
  Al  Al22  1  0.55393433  0.54224102  0.65288611  1
  Al  Al23  1  0.10393585  0.76614038  0.39732903  1
  Al  Al24  1  0.21536927  0.87610926  0.14999260  1
  Al  Al25  1  0.77748739  0.75974641  0.90234104  1
  Al  Al26  1  0.44316634  0.76100303  0.39949401  1
  Al  Al27  1  0.55516572  0.87091333  0.15210467  1
  Al  Al28  1  0.11275431  0.75859088  0.90167275  1
  Al  Al29  1  0.21625567  0.87441780  0.65215795  1
  Al  Al30  1  0.77999912  0.76472488  0.39635324  1
  Al  Al31  1  0.89282169  0.87120441  0.13419713  1
  Al  Al32  1  0.44426146  0.76183585  0.90015763  1
  Al  Al33  1  0.55881671  0.87441752  0.64824849  1
  B  B34  1  0.88745008  0.20578077  0.10717333  1
  B  B35  1  0.88666696  0.87252511  0.61670466  1
  N  N36  1  0.22111359  0.20532544  0.33633214  1
  N  N37  1  0.08004784  0.10928949  0.08966878  1
  N  N38  1  0.89089011  0.20655733  0.82308883  1
  N  N39  1  0.79084374  0.05965662  0.62535884  1
  N  N40  1  0.55150836  0.20794983  0.33665400  1
  N  N41  1  0.44455144  0.09328845  0.08911945  1
  N  N42  1  0.22324608  0.20465713  0.84286141  1
  N  N43  1  0.12325882  0.08974831  0.59270007  1
  N  N44  1  0.88690550  0.20622441  0.39957079  1
  N  N45  1  0.79469232  0.11452614  0.13139267  1
  N  N46  1  0.55376651  0.20587883  0.83575274  1
  N  N47  1  0.44285255  0.09482131  0.58634691  1
  N  N48  1  0.22139275  0.54050035  0.34217678  1
  N  N49  1  0.11170696  0.42834455  0.08971417  1
  N  N50  1  0.88948114  0.53797466  0.84161222  1
  N  N51  1  0.77244538  0.44325820  0.59422635  1
  N  N52  1  0.55666283  0.53864549  0.33651971  1
  N  N53  1  0.44322778  0.42833227  0.08670577  1
  N  N54  1  0.22363234  0.53789750  0.83719170  1
  N  N55  1  0.11150294  0.42697496  0.58952997  1
  N  N56  1  0.88808656  0.53952398  0.33963983  1
  N  N57  1  0.79332645  0.39700416  0.08918063  1
  N  N58  1  0.55554059  0.53905694  0.84219073  1
  N  N59  1  0.44409387  0.42970736  0.58869853  1
  N  N60  1  0.22042180  0.87366482  0.33937554  1
  N  N61  1  0.11807084  0.75616385  0.09023217  1
  N  N62  1  0.89218325  0.86566916  0.86661695  1
  N  N63  1  0.79275874  0.77530825  0.59114927  1
  N  N64  1  0.55570759  0.87180211  0.34174043  1
  N  N65  1  0.44321600  0.76160413  0.09039509  1
  N  N66  1  0.22238418  0.87111494  0.84097315  1
  N  N67  1  0.08078047  0.77700485  0.59176601  1
  N  N68  1  0.88945067  0.87017453  0.32849795  1
  N  N69  1  0.77537171  0.75569829  0.09198769  1
  N  N70  1  0.55681038  0.87080610  0.83726309  1
  N  N71  1  0.44214491  0.76227879  0.58968549  1
