# generated using pymatgen
data_Al17BN18
_symmetry_space_group_name_H-M   'P 1'
_cell_length_a   9.31706290
_cell_length_b   9.35263244
_cell_length_c   10.15872406
_cell_angle_alpha   90.00494537
_cell_angle_beta   89.47254670
_cell_angle_gamma   59.93556335
_symmetry_Int_Tables_number   1
_chemical_formula_structural   Al17BN18
_chemical_formula_sum   'Al34 B2 N36'
_cell_volume   766.08248150
_cell_formula_units_Z   2
loop_
 _symmetry_equiv_pos_site_id
 _symmetry_equiv_pos_as_xyz
  1  'x, y, z'
loop_
 _atom_site_type_symbol
 _atom_site_label
 _atom_site_symmetry_multiplicity
 _atom_site_fract_x
 _atom_site_fract_y
 _atom_site_fract_z
 _atom_site_occupancy
  Al  Al0  1  0.11452843  0.09320068  0.39885796  1
  Al  Al1  1  0.21477614  0.20406760  0.13704559  1
  Al  Al2  1  0.78154289  0.08626049  0.82190878  1
  Al  Al3  1  0.88812849  0.20285706  0.60181061  1
  Al  Al4  1  0.45268992  0.08919452  0.32002893  1
  Al  Al5  1  0.56210193  0.20873984  0.06842018  1
  Al  Al6  1  0.09933383  0.10053785  0.88992458  1
  Al  Al7  1  0.22166266  0.19900572  0.64439063  1
  Al  Al8  1  0.78233347  0.09954655  0.32156745  1
  Al  Al9  1  0.45140596  0.09157127  0.82579706  1
  Al  Al10  1  0.56247908  0.19477692  0.56826152  1
  Al  Al11  1  0.10849157  0.43315545  0.32640508  1
  Al  Al12  1  0.22714779  0.53551156  0.09290923  1
  Al  Al13  1  0.77617160  0.43109121  0.81427379  1
  Al  Al14  1  0.89042507  0.54514728  0.56875482  1
  Al  Al15  1  0.44653408  0.42667238  0.32626676  1
  Al  Al16  1  0.55946903  0.53440804  0.07234569  1
  Al  Al17  1  0.10690169  0.43414086  0.82193123  1
  Al  Al18  1  0.22035272  0.53796198  0.58644070  1
  Al  Al19  1  0.78329103  0.42062379  0.32774357  1
  Al  Al20  1  0.89109276  0.53100834  0.06836328  1
  Al  Al21  1  0.44838447  0.42678074  0.81806049  1
  Al  Al22  1  0.55629153  0.54114347  0.56682162  1
  Al  Al23  1  0.09772506  0.77109412  0.38933658  1
  Al  Al24  1  0.20846160  0.88085861  0.14560570  1
  Al  Al25  1  0.78255853  0.76310044  0.82754401  1
  Al  Al26  1  0.44862798  0.75969743  0.32212575  1
  Al  Al27  1  0.55568003  0.86948155  0.06660867  1
  Al  Al28  1  0.11147507  0.76380025  0.89671043  1
  Al  Al29  1  0.20770080  0.87677766  0.64582174  1
  Al  Al30  1  0.77616255  0.75897700  0.31373637  1
  Al  Al31  1  0.88743418  0.87573384  0.10254364  1
  Al  Al32  1  0.44827891  0.75794387  0.82217673  1
  Al  Al33  1  0.55903177  0.87310975  0.57237424  1
  B  B34  1  0.88557564  0.20981420  0.10914732  1
  B  B35  1  0.88580152  0.87167618  0.61058272  1
  N  N36  1  0.21986329  0.20112587  0.33005186  1
  N  N37  1  0.07711926  0.11192707  0.08457609  1
  N  N38  1  0.88927813  0.20463433  0.82141932  1
  N  N39  1  0.79062488  0.05748833  0.62641694  1
  N  N40  1  0.55830149  0.20286711  0.38079988  1
  N  N41  1  0.45438065  0.09063397  0.12739986  1
  N  N42  1  0.21963410  0.20337962  0.84098777  1
  N  N43  1  0.12128853  0.08806402  0.58321613  1
  N  N44  1  0.88171425  0.20857807  0.39607020  1
  N  N45  1  0.79077518  0.11933748  0.12595469  1
  N  N46  1  0.55783686  0.20687277  0.88137803  1
  N  N47  1  0.45207080  0.09033442  0.63418037  1
  N  N48  1  0.22385434  0.53803956  0.38303445  1
  N  N49  1  0.10740855  0.43400233  0.13245169  1
  N  N50  1  0.88656357  0.53886461  0.88130543  1
  N  N51  1  0.77343830  0.44131614  0.62701852  1
  N  N52  1  0.55665042  0.53969058  0.37906432  1
  N  N53  1  0.44894658  0.42550290  0.13655273  1
  N  N54  1  0.22362889  0.53990223  0.85979163  1
  N  N55  1  0.10736933  0.42843770  0.62965541  1
  N  N56  1  0.88648717  0.54174537  0.38140555  1
  N  N57  1  0.79489363  0.39836615  0.13030458  1
  N  N58  1  0.55658895  0.53817639  0.88454277  1
  N  N59  1  0.45325301  0.42191148  0.62813021  1
  N  N60  1  0.21442639  0.87637159  0.33403298  1
  N  N61  1  0.11926448  0.75965145  0.08467809  1
  N  N62  1  0.87981897  0.87780378  0.89619806  1
  N  N63  1  0.79429458  0.77377636  0.63063203  1
  N  N64  1  0.55695308  0.87106930  0.38454689  1
  N  N65  1  0.44673705  0.76019018  0.13089686  1
  N  N66  1  0.21417899  0.87730293  0.83424764  1
  N  N67  1  0.07519922  0.78044811  0.58638676  1
  N  N68  1  0.88915355  0.87295262  0.31952172  1
  N  N69  1  0.77294054  0.75152760  0.12673627  1
  N  N70  1  0.55619771  0.87015286  0.87949105  1
  N  N71  1  0.44655414  0.75921660  0.63084915  1
