# generated using pymatgen
data_Al17BN18
_symmetry_space_group_name_H-M   'P 1'
_cell_length_a   9.32907003
_cell_length_b   9.33200848
_cell_length_c   10.13953973
_cell_angle_alpha   90.06832010
_cell_angle_beta   89.75033035
_cell_angle_gamma   59.93346116
_symmetry_Int_Tables_number   1
_chemical_formula_structural   Al17BN18
_chemical_formula_sum   'Al34 B2 N36'
_cell_volume   763.94720076
_cell_formula_units_Z   2
loop_
 _symmetry_equiv_pos_site_id
 _symmetry_equiv_pos_as_xyz
  1  'x, y, z'
loop_
 _atom_site_type_symbol
 _atom_site_label
 _atom_site_symmetry_multiplicity
 _atom_site_fract_x
 _atom_site_fract_y
 _atom_site_fract_z
 _atom_site_occupancy
  Al  Al0  1  0.11333830  0.09397919  0.39420657  1
  Al  Al1  1  0.20939121  0.21017438  0.13502363  1
  Al  Al2  1  0.78281315  0.08286231  0.81301947  1
  Al  Al3  1  0.89095812  0.20322062  0.60532364  1
  Al  Al4  1  0.44806669  0.09554113  0.31873260  1
  Al  Al5  1  0.56617955  0.20042250  0.06310521  1
  Al  Al6  1  0.10198358  0.09775837  0.88055344  1
  Al  Al7  1  0.21552292  0.21123958  0.64140361  1
  Al  Al8  1  0.78150902  0.10344770  0.31373996  1
  Al  Al9  1  0.45162144  0.09125945  0.81783423  1
  Al  Al10  1  0.56521388  0.19211114  0.56404019  1
  Al  Al11  1  0.11052941  0.42647617  0.38919750  1
  Al  Al12  1  0.22527873  0.53556368  0.14177038  1
  Al  Al13  1  0.78088281  0.42195079  0.87830715  1
  Al  Al14  1  0.89002762  0.54805346  0.64064478  1
  Al  Al15  1  0.44249004  0.43390610  0.38840876  1
  Al  Al16  1  0.55953458  0.53008935  0.13680033  1
  Al  Al17  1  0.11133185  0.42896398  0.88920594  1
  Al  Al18  1  0.21650991  0.54319575  0.63642243  1
  Al  Al19  1  0.77536556  0.43207297  0.39497197  1
  Al  Al20  1  0.89213060  0.52787238  0.14026325  1
  Al  Al21  1  0.44041759  0.43352303  0.88524149  1
  Al  Al22  1  0.55362307  0.54172163  0.64224133  1
  Al  Al23  1  0.10165644  0.76758893  0.38074733  1
  Al  Al24  1  0.21454842  0.87576189  0.13988770  1
  Al  Al25  1  0.77850466  0.75905660  0.89338121  1
  Al  Al26  1  0.44035030  0.75925864  0.38754074  1
  Al  Al27  1  0.55527075  0.86785409  0.11028013  1
  Al  Al28  1  0.11330549  0.75969130  0.89403255  1
  Al  Al29  1  0.21439095  0.87506653  0.64034769  1
  Al  Al30  1  0.78456615  0.76292854  0.37669859  1
  Al  Al31  1  0.89353523  0.87227371  0.10711377  1
  Al  Al32  1  0.44180180  0.76228668  0.88699903  1
  Al  Al33  1  0.55811859  0.87367402  0.59454511  1
  B  B34  1  0.88640989  0.20812389  0.09480822  1
  B  B35  1  0.88870409  0.87135380  0.59504887  1
  N  N36  1  0.21466836  0.20814705  0.32487640  1
  N  N37  1  0.07846337  0.10904099  0.07740415  1
  N  N38  1  0.88856184  0.20793249  0.81022668  1
  N  N39  1  0.79290620  0.05596459  0.61967828  1
  N  N40  1  0.56088532  0.20092998  0.37501622  1
  N  N41  1  0.44953057  0.09509678  0.12581604  1
  N  N42  1  0.21749569  0.20774970  0.83276824  1
  N  N43  1  0.12275705  0.09018274  0.58073931  1
  N  N44  1  0.88509635  0.20436333  0.38869851  1
  N  N45  1  0.79135746  0.11938075  0.12067971  1
  N  N46  1  0.56201144  0.20033266  0.87410585  1
  N  N47  1  0.44591992  0.09834473  0.62584239  1
  N  N48  1  0.22133855  0.53929706  0.33082800  1
  N  N49  1  0.11196672  0.42843002  0.07737713  1
  N  N50  1  0.89008594  0.53999886  0.82856135  1
  N  N51  1  0.77212352  0.44459180  0.58271330  1
  N  N52  1  0.55742032  0.53773730  0.32438585  1
  N  N53  1  0.44206682  0.43060369  0.07654644  1
  N  N54  1  0.22031301  0.54088037  0.82435592  1
  N  N55  1  0.11034313  0.42897356  0.57718771  1
  N  N56  1  0.88931412  0.53653373  0.32792581  1
  N  N57  1  0.79347337  0.39750298  0.07621981  1
  N  N58  1  0.55499530  0.53959973  0.82993414  1
  N  N59  1  0.44352604  0.43190525  0.57940968  1
  N  N60  1  0.21936205  0.87468882  0.32754633  1
  N  N61  1  0.12353876  0.75215518  0.08120191  1
  N  N62  1  0.88664773  0.87796502  0.88796211  1
  N  N63  1  0.79764223  0.77449890  0.57528157  1
  N  N64  1  0.55525220  0.87183881  0.36054470  1
  N  N65  1  0.43965465  0.75922364  0.07898608  1
  N  N66  1  0.21953625  0.87217224  0.82833353  1
  N  N67  1  0.07998559  0.77776311  0.57747130  1
  N  N68  1  0.88920644  0.87165461  0.30972487  1
  N  N69  1  0.77849641  0.74851932  0.08418822  1
  N  N70  1  0.55852150  0.86705631  0.84444010  1
  N  N71  1  0.43739203  0.75975002  0.57770292  1
