# generated using pymatgen
data_Al17BN18
_symmetry_space_group_name_H-M   'P 1'
_cell_length_a   9.30310265
_cell_length_b   9.32705419
_cell_length_c   10.16936723
_cell_angle_alpha   90.00171896
_cell_angle_beta   89.50061985
_cell_angle_gamma   59.91635882
_symmetry_Int_Tables_number   1
_chemical_formula_structural   Al17BN18
_chemical_formula_sum   'Al34 B2 N36'
_cell_volume   763.49837254
_cell_formula_units_Z   2
loop_
 _symmetry_equiv_pos_site_id
 _symmetry_equiv_pos_as_xyz
  1  'x, y, z'
loop_
 _atom_site_type_symbol
 _atom_site_label
 _atom_site_symmetry_multiplicity
 _atom_site_fract_x
 _atom_site_fract_y
 _atom_site_fract_z
 _atom_site_occupancy
  Al  Al0  1  0.11017751  0.09254914  0.38736179  1
  Al  Al1  1  0.22091795  0.20841611  0.06288058  1
  Al  Al2  1  0.77965612  0.08543100  0.81041422  1
  Al  Al3  1  0.88910158  0.20309140  0.59428912  1
  Al  Al4  1  0.44700002  0.09380803  0.30892573  1
  Al  Al5  1  0.56270828  0.20726043  0.05753000  1
  Al  Al6  1  0.09708852  0.09689752  0.87553474  1
  Al  Al7  1  0.22944137  0.20807200  0.56140649  1
  Al  Al8  1  0.77967706  0.10156427  0.31041660  1
  Al  Al9  1  0.44405789  0.09370978  0.81093163  1
  Al  Al10  1  0.56273517  0.19667430  0.55751404  1
  Al  Al11  1  0.11229873  0.42989809  0.31042837  1
  Al  Al12  1  0.22941716  0.52918299  0.06138770  1
  Al  Al13  1  0.77585608  0.43167938  0.80338579  1
  Al  Al14  1  0.89210315  0.54500343  0.55850460  1
  Al  Al15  1  0.44406262  0.42889285  0.31092579  1
  Al  Al16  1  0.55919459  0.53370535  0.06131554  1
  Al  Al17  1  0.11227754  0.42449367  0.81043589  1
  Al  Al18  1  0.22098064  0.53726587  0.56290518  1
  Al  Al19  1  0.78288501  0.42200156  0.31675951  1
  Al  Al20  1  0.89208076  0.52958180  0.05851176  1
  Al  Al21  1  0.44701103  0.42585079  0.80894335  1
  Al  Al22  1  0.55546554  0.54167728  0.55570275  1
  Al  Al23  1  0.09706650  0.77267417  0.37568276  1
  Al  Al24  1  0.20831893  0.88103595  0.13382852  1
  Al  Al25  1  0.78285826  0.76179390  0.81677524  1
  Al  Al26  1  0.44920268  0.76051057  0.31038265  1
  Al  Al27  1  0.55540969  0.86953133  0.05572085  1
  Al  Al28  1  0.11018330  0.76396252  0.88732705  1
  Al  Al29  1  0.20836316  0.87727965  0.63371389  1
  Al  Al30  1  0.77587752  0.75913790  0.30337214  1
  Al  Al31  1  0.88911081  0.87448238  0.09427451  1
  Al  Al32  1  0.44919018  0.75695184  0.81031438  1
  Al  Al33  1  0.55923377  0.87376527  0.56129217  1
  B  B34  1  0.88628804  0.20881468  0.09930510  1
  B  B35  1  0.88628097  0.87155565  0.59930952  1
  N  N36  1  0.22612160  0.20978101  0.36949304  1
  N  N37  1  0.07538168  0.11102171  0.07443730  1
  N  N38  1  0.88795366  0.20441202  0.80811584  1
  N  N39  1  0.78988872  0.05795264  0.61518029  1
  N  N40  1  0.55669019  0.20556278  0.36978032  1
  N  N41  1  0.44869513  0.09255813  0.11949491  1
  N  N42  1  0.22351924  0.20439514  0.87395757  1
  N  N43  1  0.12009251  0.08915927  0.57502151  1
  N  N44  1  0.88004920  0.20982029  0.38449741  1
  N  N45  1  0.78987400  0.11882326  0.11519229  1
  N  N46  1  0.55667988  0.20441597  0.86979629  1
  N  N47  1  0.44698237  0.09436449  0.62300818  1
  N  N48  1  0.22354643  0.53873630  0.37399107  1
  N  N49  1  0.11175748  0.42743380  0.12314600  1
  N  N50  1  0.88939268  0.53635501  0.87041025  1
  N  N51  1  0.77318129  0.44239836  0.61606899  1
  N  N52  1  0.55543647  0.54031525  0.36779663  1
  N  N53  1  0.44695509  0.42533226  0.12300418  1
  N  N54  1  0.22611714  0.53078152  0.86947427  1
  N  N55  1  0.11176749  0.42747273  0.62316048  1
  N  N56  1  0.88940907  0.54092714  0.37039926  1
  N  N57  1  0.79411976  0.39856059  0.11972287  1
  N  N58  1  0.55636508  0.53739861  0.87335445  1
  N  N59  1  0.44875415  0.42537262  0.61950912  1
  N  N60  1  0.21482507  0.87778030  0.32188303  1
  N  N61  1  0.12009661  0.75744428  0.07498029  1
  N  N62  1  0.88004829  0.87680771  0.88447542  1
  N  N63  1  0.79412533  0.77397765  0.61972852  1
  N  N64  1  0.55639185  0.87291663  0.37334390  1
  N  N65  1  0.44707506  0.75969757  0.11955507  1
  N  N66  1  0.21481757  0.87404211  0.82175162  1
  N  N67  1  0.07538241  0.78023305  0.57442594  1
  N  N68  1  0.88800038  0.87428627  0.30812842  1
  N  N69  1  0.77315575  0.75112087  0.11605754  1
  N  N70  1  0.55539828  0.87091792  0.86780090  1
  N  N71  1  0.44711604  0.75987005  0.61947919  1
