# generated using pymatgen
data_Al17BN18
_symmetry_space_group_name_H-M   'P 1'
_cell_length_a   9.34216712
_cell_length_b   9.34180673
_cell_length_c   10.21127194
_cell_angle_alpha   90.02930519
_cell_angle_beta   89.74378976
_cell_angle_gamma   59.88667027
_symmetry_Int_Tables_number   1
_chemical_formula_structural   Al17BN18
_chemical_formula_sum   'Al34 B2 N36'
_cell_volume   770.87746083
_cell_formula_units_Z   2
loop_
 _symmetry_equiv_pos_site_id
 _symmetry_equiv_pos_as_xyz
  1  'x, y, z'
loop_
 _atom_site_type_symbol
 _atom_site_label
 _atom_site_symmetry_multiplicity
 _atom_site_fract_x
 _atom_site_fract_y
 _atom_site_fract_z
 _atom_site_occupancy
  Al  Al0  1  0.11422055  0.09406014  0.39618822  1
  Al  Al1  1  0.21013497  0.20992909  0.13650095  1
  Al  Al2  1  0.78296527  0.08277222  0.81329426  1
  Al  Al3  1  0.89157613  0.20227307  0.60636137  1
  Al  Al4  1  0.45162285  0.09139651  0.31486988  1
  Al  Al5  1  0.56158547  0.20825025  0.06363048  1
  Al  Al6  1  0.10040955  0.09927867  0.88250499  1
  Al  Al7  1  0.21757295  0.20971466  0.64322728  1
  Al  Al8  1  0.78297050  0.10245235  0.31535757  1
  Al  Al9  1  0.45201140  0.09026127  0.81962271  1
  Al  Al10  1  0.56173904  0.19679775  0.56472053  1
  Al  Al11  1  0.11174794  0.42494982  0.39096711  1
  Al  Al12  1  0.21637505  0.53967831  0.14217815  1
  Al  Al13  1  0.78200902  0.42088108  0.88091387  1
  Al  Al14  1  0.88995547  0.54921197  0.64106046  1
  Al  Al15  1  0.44844926  0.42041262  0.32268609  1
  Al  Al16  1  0.56464176  0.53103450  0.13390245  1
  Al  Al17  1  0.11090505  0.42881320  0.89024828  1
  Al  Al18  1  0.21090218  0.54662763  0.63503755  1
  Al  Al19  1  0.77786611  0.43024375  0.39737388  1
  Al  Al20  1  0.89067876  0.52940531  0.14211255  1
  Al  Al21  1  0.44648070  0.41995988  0.81844206  1
  Al  Al22  1  0.56010899  0.54194047  0.63945449  1
  Al  Al23  1  0.10190903  0.76748683  0.38404195  1
  Al  Al24  1  0.20967179  0.87865841  0.14018426  1
  Al  Al25  1  0.78468711  0.75565139  0.89657995  1
  Al  Al26  1  0.44445993  0.76157514  0.34180521  1
  Al  Al27  1  0.54882118  0.87552973  0.07086889  1
  Al  Al28  1  0.11287811  0.75916685  0.89608233  1
  Al  Al29  1  0.21269086  0.87667475  0.64085442  1
  Al  Al30  1  0.78720743  0.76105268  0.37671878  1
  Al  Al31  1  0.89069409  0.87337300  0.11033162  1
  Al  Al32  1  0.44089242  0.76331819  0.85341056  1
  Al  Al33  1  0.55185202  0.87839074  0.56827252  1
  B  B34  1  0.88636062  0.20759013  0.09577958  1
  B  B35  1  0.88662779  0.87254978  0.59611689  1
  N  N36  1  0.21692988  0.20656886  0.32525200  1
  N  N37  1  0.07791983  0.10988528  0.07790568  1
  N  N38  1  0.88797229  0.20823623  0.81114029  1
  N  N39  1  0.79172105  0.05722318  0.62083291  1
  N  N40  1  0.56005381  0.20068195  0.37852816  1
  N  N41  1  0.45090915  0.09441291  0.12666437  1
  N  N42  1  0.21733315  0.20766784  0.83338621  1
  N  N43  1  0.12307777  0.09107435  0.58139668  1
  N  N44  1  0.88636745  0.20291638  0.38985568  1
  N  N45  1  0.79118829  0.11938828  0.12186716  1
  N  N46  1  0.56013307  0.20268094  0.87801427  1
  N  N47  1  0.45029384  0.09362495  0.63148671  1
  N  N48  1  0.21603853  0.54203701  0.33395683  1
  N  N49  1  0.11015922  0.42809271  0.07724734  1
  N  N50  1  0.88871231  0.54049662  0.82835257  1
  N  N51  1  0.77662839  0.44212213  0.58292833  1
  N  N52  1  0.56515986  0.53434292  0.32725606  1
  N  N53  1  0.44591717  0.42075515  0.12809275  1
  N  N54  1  0.21428075  0.54358898  0.82531094  1
  N  N55  1  0.11100971  0.42736637  0.57769226  1
  N  N56  1  0.89034953  0.53531182  0.32881153  1
  N  N57  1  0.79483404  0.39685221  0.07600389  1
  N  N58  1  0.55891910  0.53712281  0.83513226  1
  N  N59  1  0.44970676  0.42046171  0.62403504  1
  N  N60  1  0.21466079  0.87704616  0.32869825  1
  N  N61  1  0.12095939  0.75361429  0.08117222  1
  N  N62  1  0.88606715  0.87841264  0.88672665  1
  N  N63  1  0.79753341  0.77490823  0.57602265  1
  N  N64  1  0.55414145  0.87527640  0.37877570  1
  N  N65  1  0.43970247  0.76243748  0.10856700  1
  N  N66  1  0.21346381  0.87545990  0.83013718  1
  N  N67  1  0.07909395  0.77928687  0.57817869  1
  N  N68  1  0.88938985  0.87158742  0.31106625  1
  N  N69  1  0.77850063  0.74897501  0.08648463  1
  N  N70  1  0.55241974  0.87556009  0.88065019  1
  N  N71  1  0.44050974  0.76429216  0.60723788  1
