# generated using pymatgen
data_Al17BN18
_symmetry_space_group_name_H-M   'P 1'
_cell_length_a   9.33816235
_cell_length_b   9.33118578
_cell_length_c   10.17758235
_cell_angle_alpha   89.95739316
_cell_angle_beta   89.73360422
_cell_angle_gamma   59.85485951
_symmetry_Int_Tables_number   1
_chemical_formula_structural   Al17BN18
_chemical_formula_sum   'Al34 B2 N36'
_cell_volume   766.88643252
_cell_formula_units_Z   2
loop_
 _symmetry_equiv_pos_site_id
 _symmetry_equiv_pos_as_xyz
  1  'x, y, z'
loop_
 _atom_site_type_symbol
 _atom_site_label
 _atom_site_symmetry_multiplicity
 _atom_site_fract_x
 _atom_site_fract_y
 _atom_site_fract_z
 _atom_site_occupancy
  Al  Al0  1  0.11380274  0.09398843  0.39467069  1
  Al  Al1  1  0.20950902  0.21022927  0.13563522  1
  Al  Al2  1  0.78351907  0.08246693  0.81229496  1
  Al  Al3  1  0.89130173  0.20309820  0.60554015  1
  Al  Al4  1  0.45110439  0.09091039  0.31453313  1
  Al  Al5  1  0.56418038  0.20468377  0.06357784  1
  Al  Al6  1  0.10167988  0.09760856  0.88161715  1
  Al  Al7  1  0.21688964  0.20984370  0.64277376  1
  Al  Al8  1  0.78147502  0.10384182  0.31395430  1
  Al  Al9  1  0.45231027  0.08869036  0.81917053  1
  Al  Al10  1  0.56400110  0.19311684  0.56524421  1
  Al  Al11  1  0.11128494  0.42486990  0.38985137  1
  Al  Al12  1  0.22356139  0.53638665  0.14193763  1
  Al  Al13  1  0.78136872  0.42148034  0.87957042  1
  Al  Al14  1  0.89018658  0.54870247  0.64042015  1
  Al  Al15  1  0.44375744  0.43070986  0.37802124  1
  Al  Al16  1  0.55928979  0.53215767  0.13751821  1
  Al  Al17  1  0.11124744  0.42818734  0.88996593  1
  Al  Al18  1  0.21478431  0.54425388  0.63457847  1
  Al  Al19  1  0.77669657  0.43158252  0.39577557  1
  Al  Al20  1  0.89103057  0.52908912  0.14087833  1
  Al  Al21  1  0.44237855  0.42910283  0.86680294  1
  Al  Al22  1  0.55544934  0.54297815  0.64014656  1
  Al  Al23  1  0.10113047  0.76838899  0.38232925  1
  Al  Al24  1  0.21461541  0.87524213  0.14095134  1
  Al  Al25  1  0.78419476  0.75601768  0.89499671  1
  Al  Al26  1  0.43944842  0.75881125  0.38745909  1
  Al  Al27  1  0.55085435  0.87584388  0.07154937  1
  Al  Al28  1  0.11314993  0.75940871  0.89514110  1
  Al  Al29  1  0.21474549  0.87501640  0.64071838  1
  Al  Al30  1  0.78613004  0.76179475  0.37436419  1
  Al  Al31  1  0.89242750  0.87272860  0.10978372  1
  Al  Al32  1  0.43786713  0.75919507  0.88922767  1
  Al  Al33  1  0.55583879  0.87911914  0.56921917  1
  B  B34  1  0.88630242  0.20812152  0.09514833  1
  B  B35  1  0.88818129  0.87181183  0.59571355  1
  N  N36  1  0.21643633  0.20667083  0.32476250  1
  N  N37  1  0.07852028  0.10900318  0.07771445  1
  N  N38  1  0.88854013  0.20799911  0.81068711  1
  N  N39  1  0.79260423  0.05692169  0.61998525  1
  N  N40  1  0.56073969  0.19873846  0.37625318  1
  N  N41  1  0.45025459  0.09460012  0.12606546  1
  N  N42  1  0.21760561  0.20713785  0.83327381  1
  N  N43  1  0.12318386  0.09037689  0.58087827  1
  N  N44  1  0.88550528  0.20391034  0.38886468  1
  N  N45  1  0.79134004  0.11939388  0.12094531  1
  N  N46  1  0.56249017  0.19909078  0.87449375  1
  N  N47  1  0.44936817  0.09381346  0.63100683  1
  N  N48  1  0.21893018  0.54052059  0.33204039  1
  N  N49  1  0.11092457  0.42871082  0.07733966  1
  N  N50  1  0.88953657  0.53992311  0.82810106  1
  N  N51  1  0.77395437  0.44416648  0.58239339  1
  N  N52  1  0.55922538  0.53837815  0.32573156  1
  N  N53  1  0.44258457  0.42958915  0.08690252  1
  N  N54  1  0.21760457  0.54167001  0.82311311  1
  N  N55  1  0.11105331  0.42749952  0.57723678  1
  N  N56  1  0.89014249  0.53560003  0.32803874  1
  N  N57  1  0.79337350  0.39801417  0.07625319  1
  N  N58  1  0.55655400  0.54010478  0.82830952  1
  N  N59  1  0.44512150  0.42939800  0.58660412  1
  N  N60  1  0.21910861  0.87463954  0.32815394  1
  N  N61  1  0.12180137  0.75335649  0.08146570  1
  N  N62  1  0.88730038  0.87745355  0.88566857  1
  N  N63  1  0.79846952  0.77461971  0.57628276  1
  N  N64  1  0.55465549  0.87473461  0.37753723  1
  N  N65  1  0.43763229  0.75900292  0.08068357  1
  N  N66  1  0.21871619  0.87206388  0.82816875  1
  N  N67  1  0.07979652  0.77872333  0.57752302  1
  N  N68  1  0.88931490  0.87223885  0.31039077  1
  N  N69  1  0.77894178  0.74942478  0.08650320  1
  N  N70  1  0.55362155  0.87326215  0.87719214  1
  N  N71  1  0.43709174  0.76090023  0.57892446  1
