# generated using pymatgen
data_Al17BN18
_symmetry_space_group_name_H-M   'P 1'
_cell_length_a   9.30431059
_cell_length_b   9.31539577
_cell_length_c   10.16791638
_cell_angle_alpha   90.02593877
_cell_angle_beta   89.73221610
_cell_angle_gamma   60.03075773
_symmetry_Int_Tables_number   1
_chemical_formula_structural   Al17BN18
_chemical_formula_sum   'Al34 B2 N36'
_cell_volume   763.44127532
_cell_formula_units_Z   2
loop_
 _symmetry_equiv_pos_site_id
 _symmetry_equiv_pos_as_xyz
  1  'x, y, z'
loop_
 _atom_site_type_symbol
 _atom_site_label
 _atom_site_symmetry_multiplicity
 _atom_site_fract_x
 _atom_site_fract_y
 _atom_site_fract_z
 _atom_site_occupancy
  Al  Al0  1  0.11327922  0.09368534  0.39791751  1
  Al  Al1  1  0.20983679  0.20999919  0.13739881  1
  Al  Al2  1  0.78297474  0.08276226  0.81657542  1
  Al  Al3  1  0.89093543  0.20267000  0.60896823  1
  Al  Al4  1  0.44571237  0.09915720  0.32083052  1
  Al  Al5  1  0.56547651  0.20015763  0.06709567  1
  Al  Al6  1  0.10162279  0.09748571  0.88475348  1
  Al  Al7  1  0.21612169  0.21053742  0.64486609  1
  Al  Al8  1  0.78153255  0.10275903  0.31717608  1
  Al  Al9  1  0.44876863  0.09653574  0.82438481  1
  Al  Al10  1  0.56472595  0.19060129  0.56741068  1
  Al  Al11  1  0.10957464  0.42721469  0.39268890  1
  Al  Al12  1  0.22511923  0.53589446  0.14562316  1
  Al  Al13  1  0.78103423  0.42168803  0.88237220  1
  Al  Al14  1  0.89087173  0.54660802  0.64405442  1
  Al  Al15  1  0.44233897  0.43448795  0.39246137  1
  Al  Al16  1  0.55935606  0.53091989  0.14061473  1
  Al  Al17  1  0.11015614  0.43034954  0.89335111  1
  Al  Al18  1  0.21659713  0.54303480  0.64040510  1
  Al  Al19  1  0.77526504  0.43173161  0.39866007  1
  Al  Al20  1  0.89141955  0.52891666  0.14408133  1
  Al  Al21  1  0.44041390  0.43483568  0.88976431  1
  Al  Al22  1  0.55391377  0.54145263  0.64559729  1
  Al  Al23  1  0.10158987  0.76742670  0.38419794  1
  Al  Al24  1  0.21613927  0.87541412  0.14362320  1
  Al  Al25  1  0.77658498  0.75965986  0.89881242  1
  Al  Al26  1  0.44278487  0.76130076  0.39285461  1
  Al  Al27  1  0.55853264  0.86224869  0.14393560  1
  Al  Al28  1  0.11338405  0.76011707  0.89793062  1
  Al  Al29  1  0.21591289  0.87469095  0.64367830  1
  Al  Al30  1  0.78069628  0.76464039  0.38349855  1
  Al  Al31  1  0.89256091  0.87178638  0.11092117  1
  Al  Al32  1  0.44369935  0.76325279  0.89292205  1
  Al  Al33  1  0.56273371  0.86732352  0.63846515  1
  B  B34  1  0.88634116  0.20770992  0.09861169  1
  B  B35  1  0.88800086  0.87138025  0.59864874  1
  N  N36  1  0.21341117  0.20904812  0.32790476  1
  N  N37  1  0.07839371  0.10873208  0.08080199  1
  N  N38  1  0.88869075  0.20793952  0.81375139  1
  N  N39  1  0.79260814  0.05562219  0.62368899  1
  N  N40  1  0.56067366  0.20070694  0.37923610  1
  N  N41  1  0.44862128  0.09493448  0.12654706  1
  N  N42  1  0.21623245  0.20877102  0.83693632  1
  N  N43  1  0.12267972  0.08986670  0.58413927  1
  N  N44  1  0.88485716  0.20392642  0.39244911  1
  N  N45  1  0.79103918  0.11882020  0.12481487  1
  N  N46  1  0.56263543  0.20131565  0.87859578  1
  N  N47  1  0.44594750  0.09752014  0.63050837  1
  N  N48  1  0.22135848  0.53924089  0.33419301  1
  N  N49  1  0.11121537  0.42924509  0.08090348  1
  N  N50  1  0.88932460  0.54084221  0.83182865  1
  N  N51  1  0.77260746  0.44335712  0.58620315  1
  N  N52  1  0.55704531  0.53866894  0.32837692  1
  N  N53  1  0.44197583  0.43114090  0.08019468  1
  N  N54  1  0.22040247  0.54120485  0.82799021  1
  N  N55  1  0.11067953  0.42851660  0.58051833  1
  N  N56  1  0.88815932  0.53783818  0.33192562  1
  N  N57  1  0.79349379  0.39718457  0.07984508  1
  N  N58  1  0.55509168  0.54083528  0.83334999  1
  N  N59  1  0.44340048  0.43200086  0.58281051  1
  N  N60  1  0.22064259  0.87414756  0.33167803  1
  N  N61  1  0.12332240  0.75274272  0.08490006  1
  N  N62  1  0.88619787  0.87784981  0.89129414  1
  N  N63  1  0.79407662  0.77532471  0.57911188  1
  N  N64  1  0.55680101  0.86737652  0.33533325  1
  N  N65  1  0.44213856  0.76090915  0.08153735  1
  N  N66  1  0.22125313  0.87200214  0.83184432  1
  N  N67  1  0.07972529  0.77742154  0.58107410  1
  N  N68  1  0.88825946  0.87088758  0.31426607  1
  N  N69  1  0.77539163  0.74936872  0.08563065  1
  N  N70  1  0.56145256  0.86394912  0.82949082  1
  N  N71  1  0.44159792  0.76160078  0.58130290  1
