# generated using pymatgen
data_Al17BN18
_symmetry_space_group_name_H-M   'P 1'
_cell_length_a   9.31206362
_cell_length_b   9.33942046
_cell_length_c   10.15858678
_cell_angle_alpha   90.07402585
_cell_angle_beta   89.54096837
_cell_angle_gamma   59.96431615
_symmetry_Int_Tables_number   1
_chemical_formula_structural   Al17BN18
_chemical_formula_sum   'Al34 B2 N36'
_cell_volume   764.80625574
_cell_formula_units_Z   2
loop_
 _symmetry_equiv_pos_site_id
 _symmetry_equiv_pos_as_xyz
  1  'x, y, z'
loop_
 _atom_site_type_symbol
 _atom_site_label
 _atom_site_symmetry_multiplicity
 _atom_site_fract_x
 _atom_site_fract_y
 _atom_site_fract_z
 _atom_site_occupancy
  Al  Al0  1  0.11421499  0.09516189  0.39775759  1
  Al  Al1  1  0.21634046  0.20467368  0.12779977  1
  Al  Al2  1  0.78177269  0.08574951  0.82122730  1
  Al  Al3  1  0.88831171  0.20279622  0.60201664  1
  Al  Al4  1  0.45084210  0.09082636  0.31884990  1
  Al  Al5  1  0.56411255  0.20784678  0.06841711  1
  Al  Al6  1  0.09909590  0.09937702  0.89026398  1
  Al  Al7  1  0.22228336  0.20115758  0.64091483  1
  Al  Al8  1  0.78031953  0.10118412  0.32273788  1
  Al  Al9  1  0.45123735  0.09119763  0.82759567  1
  Al  Al10  1  0.56123839  0.19641127  0.56893658  1
  Al  Al11  1  0.10895062  0.43452635  0.31976470  1
  Al  Al12  1  0.23018829  0.53034970  0.07124203  1
  Al  Al13  1  0.77643297  0.43088422  0.81437357  1
  Al  Al14  1  0.89166888  0.54483629  0.56982331  1
  Al  Al15  1  0.44370415  0.42845103  0.32222400  1
  Al  Al16  1  0.55928632  0.53411038  0.07292151  1
  Al  Al17  1  0.10890796  0.43272825  0.82618827  1
  Al  Al18  1  0.22097865  0.53523281  0.57391435  1
  Al  Al19  1  0.78313318  0.42110741  0.32869914  1
  Al  Al20  1  0.89082922  0.53091432  0.06880662  1
  Al  Al21  1  0.44775104  0.42647705  0.81980659  1
  Al  Al22  1  0.55508905  0.54129769  0.56711705  1
  Al  Al23  1  0.09675897  0.77254521  0.38768160  1
  Al  Al24  1  0.20855628  0.87983910  0.14644377  1
  Al  Al25  1  0.78261538  0.76250069  0.82743109  1
  Al  Al26  1  0.44854284  0.76014668  0.32265455  1
  Al  Al27  1  0.55646222  0.86857098  0.06686111  1
  Al  Al28  1  0.10985547  0.76652916  0.89873861  1
  Al  Al29  1  0.20778502  0.87631187  0.64456806  1
  Al  Al30  1  0.77542689  0.75908648  0.31492008  1
  Al  Al31  1  0.88881350  0.87435981  0.10608308  1
  Al  Al32  1  0.44872731  0.75738383  0.82173503  1
  Al  Al33  1  0.55883033  0.87363197  0.57266492  1
  B  B34  1  0.88597919  0.20915528  0.11040243  1
  B  B35  1  0.88590920  0.87130985  0.61034962  1
  N  N36  1  0.21936568  0.20327793  0.32928758  1
  N  N37  1  0.07657278  0.11090496  0.08486377  1
  N  N38  1  0.89000861  0.20403646  0.82016227  1
  N  N39  1  0.79013439  0.05773029  0.62584251  1
  N  N40  1  0.55596163  0.20531169  0.38119975  1
  N  N41  1  0.45574722  0.09011776  0.12655925  1
  N  N42  1  0.22118603  0.20328756  0.85067759  1
  N  N43  1  0.12160527  0.08908054  0.58328948  1
  N  N44  1  0.88134122  0.20894782  0.39684904  1
  N  N45  1  0.79095738  0.11888727  0.12718446  1
  N  N46  1  0.55917976  0.20595664  0.88123006  1
  N  N47  1  0.45150235  0.09120591  0.63584901  1
  N  N48  1  0.22323174  0.53764090  0.38535645  1
  N  N49  1  0.10844320  0.43478686  0.12947436  1
  N  N50  1  0.88691705  0.53853505  0.88165263  1
  N  N51  1  0.77301487  0.44168196  0.62690488  1
  N  N52  1  0.55547707  0.53957017  0.37902028  1
  N  N53  1  0.44709005  0.42569790  0.13424135  1
  N  N54  1  0.22736360  0.53367134  0.88038889  1
  N  N55  1  0.10874514  0.43109331  0.63531889  1
  N  N56  1  0.88857053  0.54116592  0.38190277  1
  N  N57  1  0.79492185  0.39815787  0.13118279  1
  N  N58  1  0.55687746  0.53784384  0.88461795  1
  N  N59  1  0.44843915  0.42493482  0.63043944  1
  N  N60  1  0.21450513  0.87698302  0.33487734  1
  N  N61  1  0.11949537  0.75853592  0.08640581  1
  N  N62  1  0.87984546  0.87734231  0.89558864  1
  N  N63  1  0.79379444  0.77388913  0.63062470  1
  N  N64  1  0.55616773  0.87245754  0.38496540  1
  N  N65  1  0.44686425  0.76013916  0.13146692  1
  N  N66  1  0.21447824  0.87594759  0.83310535  1
  N  N67  1  0.07514510  0.77962389  0.58596031  1
  N  N68  1  0.88756982  0.87415679  0.32006211  1
  N  N69  1  0.77303628  0.75102334  0.12786039  1
  N  N70  1  0.55670843  0.86920085  0.87966563  1
  N  N71  1  0.44652249  0.75963754  0.63055894  1
