# generated using pymatgen
data_Al17BN18
_symmetry_space_group_name_H-M   'P 1'
_cell_length_a   9.30737539
_cell_length_b   9.33040286
_cell_length_c   10.12941492
_cell_angle_alpha   90.03159167
_cell_angle_beta   89.76727506
_cell_angle_gamma   60.04479726
_symmetry_Int_Tables_number   1
_chemical_formula_structural   Al17BN18
_chemical_formula_sum   'Al34 B2 N36'
_cell_volume   762.13688045
_cell_formula_units_Z   2
loop_
 _symmetry_equiv_pos_site_id
 _symmetry_equiv_pos_as_xyz
  1  'x, y, z'
loop_
 _atom_site_type_symbol
 _atom_site_label
 _atom_site_symmetry_multiplicity
 _atom_site_fract_x
 _atom_site_fract_y
 _atom_site_fract_z
 _atom_site_occupancy
  Al  Al0  1  0.10343704  0.10326363  0.33208495  1
  Al  Al1  1  0.21473918  0.20514050  0.06129065  1
  Al  Al2  1  0.78066764  0.08763025  0.81339159  1
  Al  Al3  1  0.88841756  0.20258423  0.57930462  1
  Al  Al4  1  0.44717026  0.09339230  0.30781482  1
  Al  Al5  1  0.56149040  0.20777516  0.05739355  1
  Al  Al6  1  0.10670398  0.10088414  0.80472424  1
  Al  Al7  1  0.22650732  0.20578378  0.55802440  1
  Al  Al8  1  0.77833844  0.10060994  0.31063006  1
  Al  Al9  1  0.44377172  0.09434871  0.81098280  1
  Al  Al10  1  0.56172959  0.19666114  0.55873937  1
  Al  Al11  1  0.11211659  0.43034665  0.30875418  1
  Al  Al12  1  0.22851633  0.52931064  0.06020599  1
  Al  Al13  1  0.77618733  0.42966359  0.80523506  1
  Al  Al14  1  0.89225369  0.54450731  0.55919061  1
  Al  Al15  1  0.44397275  0.42841766  0.31011361  1
  Al  Al16  1  0.55929672  0.53359585  0.06104042  1
  Al  Al17  1  0.11136954  0.42650274  0.81037577  1
  Al  Al18  1  0.22107391  0.53523430  0.56228034  1
  Al  Al19  1  0.78145435  0.42412088  0.31652412  1
  Al  Al20  1  0.89116756  0.53031222  0.05781532  1
  Al  Al21  1  0.44625918  0.42678073  0.80917002  1
  Al  Al22  1  0.55720911  0.53923370  0.55589029  1
  Al  Al23  1  0.09745445  0.77109692  0.37568294  1
  Al  Al24  1  0.21195732  0.87590539  0.13596747  1
  Al  Al25  1  0.78206571  0.76294058  0.81718743  1
  Al  Al26  1  0.45168187  0.75871591  0.31306836  1
  Al  Al27  1  0.55406894  0.87015281  0.05549961  1
  Al  Al28  1  0.11004632  0.76714415  0.88629132  1
  Al  Al29  1  0.21366385  0.86913667  0.62262150  1
  Al  Al30  1  0.77669651  0.75914566  0.30242546  1
  Al  Al31  1  0.88854725  0.87606596  0.09241273  1
  Al  Al32  1  0.44926356  0.75649281  0.80794744  1
  Al  Al33  1  0.56078049  0.87423978  0.56034542  1
  B  B34  1  0.88720379  0.20957251  0.10534897  1
  B  B35  1  0.88637795  0.87165278  0.59878080  1
  N  N36  1  0.22500417  0.20843736  0.36940169  1
  N  N37  1  0.07683453  0.11541899  0.12419850  1
  N  N38  1  0.88436753  0.20733723  0.82817207  1
  N  N39  1  0.79117256  0.05875276  0.61509864  1
  N  N40  1  0.55646175  0.20547683  0.36993310  1
  N  N41  1  0.44588571  0.09343232  0.11810217  1
  N  N42  1  0.22084512  0.20361294  0.87240277  1
  N  N43  1  0.11648271  0.09623834  0.60892245  1
  N  N44  1  0.88290413  0.20843065  0.38577802  1
  N  N45  1  0.78867563  0.12007818  0.11670287  1
  N  N46  1  0.55578361  0.20505396  0.86914436  1
  N  N47  1  0.44545174  0.09446119  0.62169043  1
  N  N48  1  0.22421867  0.53733139  0.37276493  1
  N  N49  1  0.11160658  0.42659769  0.12092129  1
  N  N50  1  0.88864196  0.53781462  0.86913856  1
  N  N51  1  0.77520531  0.43819889  0.61595066  1
  N  N52  1  0.55684175  0.53795963  0.36794629  1
  N  N53  1  0.44618377  0.42578861  0.12212749  1
  N  N54  1  0.22527950  0.53263139  0.86851869  1
  N  N55  1  0.11217028  0.42602952  0.62192246  1
  N  N56  1  0.88995372  0.54075210  0.37011427  1
  N  N57  1  0.79241175  0.40061766  0.12110561  1
  N  N58  1  0.55587401  0.53849312  0.87255645  1
  N  N59  1  0.44833482  0.42538744  0.61911169  1
  N  N60  1  0.21972611  0.87298941  0.33011757  1
  N  N61  1  0.11977855  0.75800169  0.07514543  1
  N  N62  1  0.87973620  0.87745468  0.88474576  1
  N  N63  1  0.79423140  0.77437248  0.61942204  1
  N  N64  1  0.55833812  0.87298006  0.37225136  1
  N  N65  1  0.44778267  0.75879074  0.12114335  1
  N  N66  1  0.21769346  0.86918105  0.81556652  1
  N  N67  1  0.07456566  0.77848443  0.57223214  1
  N  N68  1  0.88867289  0.87425014  0.30837764  1
  N  N69  1  0.77273811  0.75199460  0.11492395  1
  N  N70  1  0.55458689  0.87133512  0.86676881  1
  N  N71  1  0.45060834  0.75811668  0.61531770  1
