# generated using pymatgen
data_Al17BN18
_symmetry_space_group_name_H-M   'P 1'
_cell_length_a   9.29950540
_cell_length_b   9.33065032
_cell_length_c   10.20649297
_cell_angle_alpha   90.03817347
_cell_angle_beta   89.48902781
_cell_angle_gamma   59.97526776
_symmetry_Int_Tables_number   1
_chemical_formula_structural   Al17BN18
_chemical_formula_sum   'Al34 B2 N36'
_cell_volume   766.73582963
_cell_formula_units_Z   2
loop_
 _symmetry_equiv_pos_site_id
 _symmetry_equiv_pos_as_xyz
  1  'x, y, z'
loop_
 _atom_site_type_symbol
 _atom_site_label
 _atom_site_symmetry_multiplicity
 _atom_site_fract_x
 _atom_site_fract_y
 _atom_site_fract_z
 _atom_site_occupancy
  Al  Al0  1  0.11505266  0.09461886  0.39919855  1
  Al  Al1  1  0.21467545  0.20408114  0.13785721  1
  Al  Al2  1  0.78181310  0.08599214  0.82133736  1
  Al  Al3  1  0.88839940  0.20271724  0.60111334  1
  Al  Al4  1  0.45240999  0.09013269  0.31998047  1
  Al  Al5  1  0.56320678  0.20769439  0.06841118  1
  Al  Al6  1  0.09978258  0.10007288  0.89044280  1
  Al  Al7  1  0.22119821  0.20025468  0.64613136  1
  Al  Al8  1  0.78123258  0.10095376  0.32188302  1
  Al  Al9  1  0.45205510  0.09081326  0.82557296  1
  Al  Al10  1  0.56143809  0.19626221  0.56853662  1
  Al  Al11  1  0.10833788  0.43634240  0.32133932  1
  Al  Al12  1  0.22991696  0.52963946  0.07132185  1
  Al  Al13  1  0.77642188  0.43075860  0.81415947  1
  Al  Al14  1  0.89131995  0.54514029  0.56943817  1
  Al  Al15  1  0.44420629  0.42837908  0.32195390  1
  Al  Al16  1  0.55928729  0.53391903  0.07231247  1
  Al  Al17  1  0.10783711  0.43437290  0.82371643  1
  Al  Al18  1  0.22127969  0.53498320  0.57358933  1
  Al  Al19  1  0.78325092  0.42105467  0.32824495  1
  Al  Al20  1  0.89134058  0.53069471  0.06849334  1
  Al  Al21  1  0.44763189  0.42633920  0.81951395  1
  Al  Al22  1  0.55520673  0.54120194  0.56701856  1
  Al  Al23  1  0.09686788  0.77308150  0.38829214  1
  Al  Al24  1  0.20864321  0.87945121  0.14626846  1
  Al  Al25  1  0.78213601  0.76281833  0.82726966  1
  Al  Al26  1  0.44883972  0.75972686  0.32198518  1
  Al  Al27  1  0.55573564  0.86917680  0.06679349  1
  Al  Al28  1  0.11001685  0.76644964  0.89888847  1
  Al  Al29  1  0.20749737  0.87649410  0.64516772  1
  Al  Al30  1  0.77550980  0.75909519  0.31406021  1
  Al  Al31  1  0.88874991  0.87439426  0.10520668  1
  Al  Al32  1  0.44865421  0.75741727  0.82141022  1
  Al  Al33  1  0.55874975  0.87360972  0.57212149  1
  B  B34  1  0.88608809  0.20936539  0.10964572  1
  B  B35  1  0.88593922  0.87148061  0.61063784  1
  N  N36  1  0.21927734  0.20341038  0.32961548  1
  N  N37  1  0.07773953  0.11128277  0.08437700  1
  N  N38  1  0.88997979  0.20420188  0.82169314  1
  N  N39  1  0.79038046  0.05809359  0.62640014  1
  N  N40  1  0.55684805  0.20526440  0.38135068  1
  N  N41  1  0.45470406  0.09026520  0.12801383  1
  N  N42  1  0.21999402  0.20285600  0.84056809  1
  N  N43  1  0.12180131  0.08875047  0.58293728  1
  N  N44  1  0.88190917  0.20884376  0.39651423  1
  N  N45  1  0.79119016  0.11875385  0.12684382  1
  N  N46  1  0.55866029  0.20587349  0.88170954  1
  N  N47  1  0.45195347  0.09083949  0.63465869  1
  N  N48  1  0.22393108  0.53796365  0.38585046  1
  N  N49  1  0.10825148  0.43442631  0.13126086  1
  N  N50  1  0.88679730  0.53868506  0.88184626  1
  N  N51  1  0.77322035  0.44121397  0.62722375  1
  N  N52  1  0.55569640  0.53950323  0.37941117  1
  N  N53  1  0.44704173  0.42560298  0.13452375  1
  N  N54  1  0.22709470  0.53329116  0.88054855  1
  N  N55  1  0.10822318  0.43160037  0.63387622  1
  N  N56  1  0.88781790  0.54175233  0.38220472  1
  N  N57  1  0.79495705  0.39823426  0.13113115  1
  N  N58  1  0.55660678  0.53790537  0.88464257  1
  N  N59  1  0.44866270  0.42468044  0.63068555  1
  N  N60  1  0.21449103  0.87741112  0.33401750  1
  N  N61  1  0.11962431  0.75835953  0.08552029  1
  N  N62  1  0.87967137  0.87736091  0.89539856  1
  N  N63  1  0.79358664  0.77406822  0.63096967  1
  N  N64  1  0.55646713  0.87182904  0.38503893  1
  N  N65  1  0.44720453  0.75954951  0.13164942  1
  N  N66  1  0.21420614  0.87624501  0.83289256  1
  N  N67  1  0.07524872  0.77982966  0.58554503  1
  N  N68  1  0.88819759  0.87380047  0.31954207  1
  N  N69  1  0.77285029  0.75121670  0.12764499  1
  N  N70  1  0.55599885  0.86975903  0.88017470  1
  N  N71  1  0.44672504  0.75942715  0.63097481  1
