# generated using pymatgen
data_Al17BN18
_symmetry_space_group_name_H-M   'P 1'
_cell_length_a   9.31703476
_cell_length_b   9.35758944
_cell_length_c   10.18479631
_cell_angle_alpha   90.00009088
_cell_angle_beta   89.43626773
_cell_angle_gamma   59.85701364
_symmetry_Int_Tables_number   1
_chemical_formula_structural   Al17BN18
_chemical_formula_sum   'Al34 B2 N36'
_cell_volume   767.83697210
_cell_formula_units_Z   2
loop_
 _symmetry_equiv_pos_site_id
 _symmetry_equiv_pos_as_xyz
  1  'x, y, z'
loop_
 _atom_site_type_symbol
 _atom_site_label
 _atom_site_symmetry_multiplicity
 _atom_site_fract_x
 _atom_site_fract_y
 _atom_site_fract_z
 _atom_site_occupancy
  Al  Al0  1  0.11435894  0.09243545  0.39862435  1
  Al  Al1  1  0.21394001  0.20562406  0.13608562  1
  Al  Al2  1  0.78250639  0.08497166  0.82126935  1
  Al  Al3  1  0.88791005  0.20319458  0.60082400  1
  Al  Al4  1  0.45311782  0.08892216  0.31878753  1
  Al  Al5  1  0.56073987  0.20954420  0.06803974  1
  Al  Al6  1  0.09905109  0.09881746  0.89002885  1
  Al  Al7  1  0.22040962  0.20171829  0.64388561  1
  Al  Al8  1  0.78250646  0.09918740  0.32126946  1
  Al  Al9  1  0.45237264  0.09016783  0.82444396  1
  Al  Al10  1  0.56073978  0.19638290  0.56803951  1
  Al  Al11  1  0.10862055  0.42843705  0.33967331  1
  Al  Al12  1  0.22040960  0.54454072  0.14388545  1
  Al  Al13  1  0.77626722  0.43074668  0.81318224  1
  Al  Al14  1  0.88997988  0.54551647  0.56877244  1
  Al  Al15  1  0.45237267  0.42412493  0.32444376  1
  Al  Al16  1  0.55868809  0.53419794  0.07162283  1
  Al  Al17  1  0.10862118  0.42960934  0.83967360  1
  Al  Al18  1  0.21393997  0.54710377  0.63608530  1
  Al  Al19  1  0.78288557  0.42074945  0.32679015  1
  Al  Al20  1  0.88998038  0.53117025  0.06877231  1
  Al  Al21  1  0.45311813  0.42462501  0.81878750  1
  Al  Al22  1  0.55573288  0.54140738  0.56653081  1
  Al  Al23  1  0.09905044  0.76879913  0.39002879  1
  Al  Al24  1  0.20812579  0.88073781  0.14513395  1
  Al  Al25  1  0.78288577  0.76303066  0.82679022  1
  Al  Al26  1  0.44848012  0.76004381  0.32154264  1
  Al  Al27  1  0.55573272  0.86952561  0.06653072  1
  Al  Al28  1  0.11435902  0.75987295  0.89862438  1
  Al  Al29  1  0.20812588  0.87780425  0.64513395  1
  Al  Al30  1  0.77626608  0.75965161  0.31318222  1
  Al  Al31  1  0.88790902  0.87556289  0.10082390  1
  Al  Al32  1  0.44848085  0.75814077  0.82154233  1
  Al  Al33  1  0.55868794  0.87378096  0.57162297  1
  B  B34  1  0.88555902  0.20932718  0.10900524  1
  B  B35  1  0.88555886  0.87178054  0.60900515  1
  N  N36  1  0.21957914  0.20028199  0.32864926  1
  N  N37  1  0.07734997  0.11102039  0.08399853  1
  N  N38  1  0.88906062  0.20433753  0.82123898  1
  N  N39  1  0.79115777  0.05710693  0.62582103  1
  N  N40  1  0.55764223  0.20299354  0.38110536  1
  N  N41  1  0.45457509  0.09020092  0.12743258  1
  N  N42  1  0.22006441  0.20139542  0.83976184  1
  N  N43  1  0.12143177  0.08869684  0.58268590  1
  N  N44  1  0.88124423  0.20895696  0.39577073  1
  N  N45  1  0.79115689  0.11840103  0.12582144  1
  N  N46  1  0.55764261  0.20603160  0.88110543  1
  N  N47  1  0.45199427  0.09044913  0.63425878  1
  N  N48  1  0.22006427  0.54521020  0.33976196  1
  N  N49  1  0.10974548  0.43059943  0.11696230  1
  N  N50  1  0.88418857  0.53968453  0.88093340  1
  N  N51  1  0.77326567  0.44139052  0.62680915  1
  N  N52  1  0.55652662  0.54036559  0.37952283  1
  N  N53  1  0.45199407  0.42422133  0.13425859  1
  N  N54  1  0.21957968  0.54680852  0.82864909  1
  N  N55  1  0.10974489  0.42632083  0.61696225  1
  N  N56  1  0.88418812  0.54279535  0.38093350  1
  N  N57  1  0.79462336  0.39806304  0.13038713  1
  N  N58  1  0.55662133  0.53859595  0.88428113  1
  N  N59  1  0.45457480  0.42188826  0.62743270  1
  N  N60  1  0.21408009  0.87638215  0.33362942  1
  N  N61  1  0.12143097  0.75653744  0.08268593  1
  N  N62  1  0.88124426  0.87646716  0.89577076  1
  N  N63  1  0.79462254  0.77397918  0.63038727  1
  N  N64  1  0.55662065  0.87145054  0.38428121  1
  N  N65  1  0.44697568  0.76006257  0.13079412  1
  N  N66  1  0.21408054  0.87620695  0.83362959  1
  N  N67  1  0.07734988  0.77829609  0.58399852  1
  N  N68  1  0.88905982  0.87327017  0.32123899  1
  N  N69  1  0.77326559  0.75200811  0.12680886  1
  N  N70  1  0.55652653  0.86977554  0.87952283  1
  N  N71  1  0.44697600  0.75962553  0.63079378  1
