# generated using pymatgen
data_Al17BN18
_symmetry_space_group_name_H-M   'P 1'
_cell_length_a   9.31789880
_cell_length_b   9.33290360
_cell_length_c   10.05943266
_cell_angle_alpha   90.00023641
_cell_angle_beta   89.73630263
_cell_angle_gamma   59.94231858
_symmetry_Int_Tables_number   1
_chemical_formula_structural   Al17BN18
_chemical_formula_sum   'Al34 B2 N36'
_cell_volume   757.14667912
_cell_formula_units_Z   2
loop_
 _symmetry_equiv_pos_site_id
 _symmetry_equiv_pos_as_xyz
  1  'x, y, z'
loop_
 _atom_site_type_symbol
 _atom_site_label
 _atom_site_symmetry_multiplicity
 _atom_site_fract_x
 _atom_site_fract_y
 _atom_site_fract_z
 _atom_site_occupancy
  Al  Al0  1  0.11335688  0.09338672  0.40549595  1
  Al  Al1  1  0.21525403  0.20745429  0.14793166  1
  Al  Al2  1  0.78346333  0.08281087  0.82811029  1
  Al  Al3  1  0.89224021  0.20246135  0.61724891  1
  Al  Al4  1  0.44255955  0.09351778  0.39621722  1
  Al  Al5  1  0.56058263  0.20741590  0.11603210  1
  Al  Al6  1  0.10230345  0.09774766  0.89217255  1
  Al  Al7  1  0.22378598  0.20568070  0.65375137  1
  Al  Al8  1  0.78346364  0.10039468  0.32811050  1
  Al  Al9  1  0.44517601  0.09197203  0.89791699  1
  Al  Al10  1  0.56057928  0.19866657  0.61603207  1
  Al  Al11  1  0.11112778  0.42591454  0.40029708  1
  Al  Al12  1  0.22378619  0.53719710  0.15375143  1
  Al  Al13  1  0.78097472  0.42153797  0.89074248  1
  Al  Al14  1  0.89147908  0.54594795  0.65138936  1
  Al  Al15  1  0.44517654  0.42952302  0.39791651  1
  Al  Al16  1  0.55953607  0.53362324  0.14768305  1
  Al  Al17  1  0.11112653  0.42962907  0.90029711  1
  Al  Al18  1  0.21525213  0.54395731  0.64793203  1
  Al  Al19  1  0.77550115  0.43128169  0.40612331  1
  Al  Al20  1  0.89147877  0.52923729  0.15138971  1
  Al  Al21  1  0.44255894  0.43059348  0.89621733  1
  Al  Al22  1  0.55451952  0.54268448  0.65335296  1
  Al  Al23  1  0.10230297  0.76661919  0.39217271  1
  Al  Al24  1  0.21595585  0.87620278  0.15122928  1
  Al  Al25  1  0.77549951  0.75988711  0.90612396  1
  Al  Al26  1  0.44328275  0.76024288  0.40021196  1
  Al  Al27  1  0.55451867  0.86946070  0.15335323  1
  Al  Al28  1  0.11335622  0.75992693  0.90549635  1
  Al  Al29  1  0.21595701  0.87450506  0.65122908  1
  Al  Al30  1  0.78097597  0.76415645  0.39074284  1
  Al  Al31  1  0.89224047  0.87196150  0.11724851  1
  Al  Al32  1  0.44328232  0.76314500  0.90021168  1
  Al  Al33  1  0.55953698  0.87350358  0.64768294  1
  B  B34  1  0.88790056  0.20781474  0.10662595  1
  B  B35  1  0.88790062  0.87095121  0.60662560  1
  N  N36  1  0.22012220  0.20464156  0.33665085  1
  N  N37  1  0.07983632  0.10974114  0.08985451  1
  N  N38  1  0.88898406  0.20766552  0.82278623  1
  N  N39  1  0.79442167  0.05449500  0.63055170  1
  N  N40  1  0.55574246  0.20497237  0.35510050  1
  N  N41  1  0.44411454  0.09091919  0.09003391  1
  N  N42  1  0.22149163  0.20577093  0.84342668  1
  N  N43  1  0.12340507  0.09002296  0.59367208  1
  N  N44  1  0.88561486  0.20383628  0.40063473  1
  N  N45  1  0.79442479  0.11775382  0.13055233  1
  N  N46  1  0.55574100  0.20594626  0.85510047  1
  N  N47  1  0.44203170  0.09269311  0.58746816  1
  N  N48  1  0.22149265  0.53939788  0.34342620  1
  N  N49  1  0.11249448  0.42792774  0.09003747  1
  N  N50  1  0.88910840  0.54062122  0.84078017  1
  N  N51  1  0.77306145  0.44280703  0.59498937  1
  N  N52  1  0.55722482  0.53885153  0.33680273  1
  N  N53  1  0.44203182  0.43194795  0.08746838  1
  N  N54  1  0.22012136  0.54189777  0.83665108  1
  N  N55  1  0.11249558  0.42624945  0.59003725  1
  N  N56  1  0.88910910  0.53693004  0.34078052  1
  N  N57  1  0.79383713  0.39752986  0.08870720  1
  N  N58  1  0.55501684  0.54117361  0.84248676  1
  N  N59  1  0.44411349  0.43164044  0.59003401  1
  N  N60  1  0.22070202  0.87379908  0.34065007  1
  N  N61  1  0.12340545  0.75324490  0.09367192  1
  N  N62  1  0.88561333  0.87720784  0.90063522  1
  N  N63  1  0.79383985  0.77530310  0.58870701  1
  N  N64  1  0.55501790  0.87046969  0.34248738  1
  N  N65  1  0.44216422  0.76245423  0.09042930  1
  N  N66  1  0.22070202  0.87215928  0.84064961  1
  N  N67  1  0.07983590  0.77709114  0.58985378  1
  N  N68  1  0.88898454  0.87000940  0.32278626  1
  N  N69  1  0.77306038  0.75080445  0.09498893  1
  N  N70  1  0.55722354  0.87058540  0.83680261  1
  N  N71  1  0.44216449  0.76205416  0.59042904  1
