# generated using pymatgen
data_Sc11Al25N36
_symmetry_space_group_name_H-M   'P 1'
_cell_length_a   9.86955586
_cell_length_b   9.82351910
_cell_length_c   10.21805790
_cell_angle_alpha   89.87065682
_cell_angle_beta   90.05260106
_cell_angle_gamma   60.09224821
_symmetry_Int_Tables_number   1
_chemical_formula_structural   Sc11Al25N36
_chemical_formula_sum   'Sc11 Al25 N36'
_cell_volume   858.74521664
_cell_formula_units_Z   1
loop_
 _symmetry_equiv_pos_site_id
 _symmetry_equiv_pos_as_xyz
  1  'x, y, z'
loop_
 _atom_site_type_symbol
 _atom_site_label
 _atom_site_symmetry_multiplicity
 _atom_site_fract_x
 _atom_site_fract_y
 _atom_site_fract_z
 _atom_site_occupancy
  Sc  Sc0  1  0.10847289  0.09831603  0.31649161  1
  Sc  Sc1  1  0.88116053  0.20480400  0.57001010  1
  Sc  Sc2  1  0.44891125  0.09036551  0.31149370  1
  Sc  Sc3  1  0.11649209  0.09299524  0.81615539  1
  Sc  Sc4  1  0.10831211  0.43570251  0.30723653  1
  Sc  Sc5  1  0.88927265  0.54125540  0.58461705  1
  Sc  Sc6  1  0.44487477  0.42883408  0.31894618  1
  Sc  Sc7  1  0.76892449  0.43559606  0.30187131  1
  Sc  Sc8  1  0.23061168  0.86403158  0.07619620  1
  Sc  Sc9  1  0.10850907  0.75999878  0.81451833  1
  Sc  Sc10  1  0.77463377  0.76698313  0.31342543  1
  Al  Al11  1  0.22534572  0.20939282  0.04906597  1
  Al  Al12  1  0.76664530  0.09509102  0.81177746  1
  Al  Al13  1  0.55581600  0.20514384  0.05175083  1
  Al  Al14  1  0.23352122  0.20327339  0.56572076  1
  Al  Al15  1  0.77970160  0.09292059  0.30665763  1
  Al  Al16  1  0.88239810  0.20856184  0.05023948  1
  Al  Al17  1  0.44945418  0.09384451  0.80962878  1
  Al  Al18  1  0.55742598  0.19985219  0.56601128  1
  Al  Al19  1  0.22465344  0.53249605  0.05341367  1
  Al  Al20  1  0.76666248  0.43124244  0.81555704  1
  Al  Al21  1  0.55746145  0.53722171  0.05035049  1
  Al  Al22  1  0.12480631  0.42234009  0.81043484  1
  Al  Al23  1  0.22509092  0.54004262  0.56326536  1
  Al  Al24  1  0.89042749  0.53915822  0.04124171  1
  Al  Al25  1  0.44715050  0.42390189  0.80778278  1
  Al  Al26  1  0.54758307  0.54500413  0.56726000  1
  Al  Al27  1  0.10772148  0.76212478  0.31271951  1
  Al  Al28  1  0.76967078  0.77171953  0.80937190  1
  Al  Al29  1  0.88553179  0.87833494  0.55939340  1
  Al  Al30  1  0.44974318  0.75590425  0.31437085  1
  Al  Al31  1  0.56059097  0.86674636  0.05104282  1
  Al  Al32  1  0.22934331  0.86503473  0.55283486  1
  Al  Al33  1  0.88212730  0.87228781  0.05832216  1
  Al  Al34  1  0.44895407  0.75736381  0.80712026  1
  Al  Al35  1  0.54978669  0.87473078  0.56723332  1
  N  N36  1  0.22553570  0.21156243  0.38084703  1
  N  N37  1  0.10138895  0.11432597  0.09958800  1
  N  N38  1  0.86990532  0.21033996  0.86067000  1
  N  N39  1  0.76685039  0.08465834  0.62730655  1
  N  N40  1  0.57674718  0.19185797  0.37926263  1
  N  N41  1  0.44700472  0.09090108  0.10056876  1
  N  N42  1  0.23698088  0.21028108  0.86434715  1
  N  N43  1  0.13013451  0.08341038  0.60292860  1
  N  N44  1  0.87478624  0.20464968  0.36341964  1
  N  N45  1  0.77530554  0.09459901  0.11488900  1
  N  N46  1  0.55405281  0.20666755  0.86430587  1
  N  N47  1  0.44709799  0.09265660  0.61997636  1
  N  N48  1  0.21287833  0.55709333  0.37841341  1
  N  N49  1  0.10983111  0.42756978  0.09592399  1
  N  N50  1  0.89176302  0.53997060  0.84937478  1
  N  N51  1  0.75372512  0.43840351  0.63049043  1
  N  N52  1  0.54744232  0.55397530  0.38262654  1
  N  N53  1  0.44635216  0.42649910  0.10631050  1
  N  N54  1  0.23550090  0.52256647  0.86769585  1
  N  N55  1  0.13535766  0.41736316  0.62406673  1
  N  N56  1  0.88618138  0.54034028  0.37798060  1
  N  N57  1  0.77838641  0.42892026  0.08933192  1
  N  N58  1  0.55005458  0.54113628  0.86417813  1
  N  N59  1  0.44443951  0.42643257  0.61591502  1
  N  N60  1  0.23267316  0.85452893  0.35608665  1
  N  N61  1  0.09892165  0.74828717  0.11834484  1
  N  N62  1  0.86877432  0.88324322  0.87289934  1
  N  N63  1  0.76581270  0.78454701  0.62043912  1
  N  N64  1  0.54514881  0.86389551  0.38201313  1
  N  N65  1  0.47336905  0.74494910  0.12514420  1
  N  N66  1  0.24376666  0.85819161  0.87207271  1
  N  N67  1  0.10945994  0.76489033  0.60707074  1
  N  N68  1  0.89766770  0.88388499  0.37096610  1
  N  N69  1  0.77783272  0.75722578  0.10135382  1
  N  N70  1  0.55416050  0.87031532  0.86254522  1
  N  N71  1  0.44108832  0.76230244  0.62017135  1
