# generated using pymatgen
data_Sc11Al25N36
_symmetry_space_group_name_H-M   'P 1'
_cell_length_a   10.44273320
_cell_length_b   10.40012796
_cell_length_c   8.64606358
_cell_angle_alpha   90.02005612
_cell_angle_beta   90.10778067
_cell_angle_gamma   60.02850304
_symmetry_Int_Tables_number   1
_chemical_formula_structural   Sc11Al25N36
_chemical_formula_sum   'Sc11 Al25 N36'
_cell_volume   813.44036086
_cell_formula_units_Z   1
loop_
 _symmetry_equiv_pos_site_id
 _symmetry_equiv_pos_as_xyz
  1  'x, y, z'
loop_
 _atom_site_type_symbol
 _atom_site_label
 _atom_site_symmetry_multiplicity
 _atom_site_fract_x
 _atom_site_fract_y
 _atom_site_fract_z
 _atom_site_occupancy
  Sc  Sc0  1  0.11319886  0.09305442  0.35313242  1
  Sc  Sc1  1  0.87945349  0.20271251  0.60504206  1
  Sc  Sc2  1  0.45221836  0.08737853  0.35040466  1
  Sc  Sc3  1  0.11343688  0.09833408  0.85369054  1
  Sc  Sc4  1  0.11378275  0.43237264  0.34878123  1
  Sc  Sc5  1  0.88895076  0.54078971  0.61245868  1
  Sc  Sc6  1  0.44579090  0.42761660  0.35081368  1
  Sc  Sc7  1  0.76775979  0.43291981  0.34610575  1
  Sc  Sc8  1  0.23216754  0.86171624  0.10471154  1
  Sc  Sc9  1  0.10608077  0.75957392  0.84749240  1
  Sc  Sc10  1  0.77273702  0.77009784  0.34871916  1
  Al  Al11  1  0.22634993  0.20824320  0.09880803  1
  Al  Al12  1  0.76857009  0.09531524  0.85524063  1
  Al  Al13  1  0.55832797  0.20298387  0.09560879  1
  Al  Al14  1  0.23359331  0.20404478  0.61385129  1
  Al  Al15  1  0.78087850  0.09023566  0.33373542  1
  Al  Al16  1  0.88341293  0.20737588  0.09588798  1
  Al  Al17  1  0.44920591  0.09452899  0.85429968  1
  Al  Al18  1  0.55653322  0.20198629  0.61175983  1
  Al  Al19  1  0.22248220  0.53816799  0.09175770  1
  Al  Al20  1  0.76917555  0.42984575  0.85723231  1
  Al  Al21  1  0.55395629  0.54211536  0.09468175  1
  Al  Al22  1  0.12109891  0.42404247  0.85453821  1
  Al  Al23  1  0.22795285  0.53589922  0.60436479  1
  Al  Al24  1  0.88842959  0.54069146  0.09216853  1
  Al  Al25  1  0.44635899  0.42270621  0.85458656  1
  Al  Al26  1  0.54862948  0.54066517  0.61939066  1
  Al  Al27  1  0.10880690  0.76427142  0.35864004  1
  Al  Al28  1  0.77145113  0.76944765  0.85223736  1
  Al  Al29  1  0.88094086  0.87963203  0.60067923  1
  Al  Al30  1  0.44414042  0.75778697  0.36906215  1
  Al  Al31  1  0.55710538  0.86824013  0.08548583  1
  Al  Al32  1  0.22994090  0.86655748  0.60543055  1
  Al  Al33  1  0.88681689  0.87258045  0.09419776  1
  Al  Al34  1  0.45082208  0.75712606  0.85126497  1
  Al  Al35  1  0.55300131  0.87301517  0.60962501  1
  N  N36  1  0.22790402  0.20627597  0.34131091  1
  N  N37  1  0.10527108  0.10719207  0.10091133  1
  N  N38  1  0.87156462  0.21137582  0.86085221  1
  N  N39  1  0.76465534  0.08782355  0.61549815  1
  N  N40  1  0.57580879  0.19408745  0.34639427  1
  N  N41  1  0.45046268  0.08824659  0.09044957  1
  N  N42  1  0.23564970  0.21111637  0.85596558  1
  N  N43  1  0.12750045  0.09026941  0.60406676  1
  N  N44  1  0.87937253  0.19861327  0.34531329  1
  N  N45  1  0.77752734  0.09225222  0.09782937  1
  N  N46  1  0.55473776  0.20572854  0.85715451  1
  N  N47  1  0.44716462  0.09427279  0.61349172  1
  N  N48  1  0.21701908  0.55658879  0.36114929  1
  N  N49  1  0.11323104  0.42968059  0.09013787  1
  N  N50  1  0.88953614  0.53978341  0.86244497  1
  N  N51  1  0.75771137  0.43777737  0.61192011  1
  N  N52  1  0.54217770  0.55614362  0.34262879  1
  N  N53  1  0.44336094  0.42744671  0.09144929  1
  N  N54  1  0.23253062  0.52518848  0.85119289  1
  N  N55  1  0.12875038  0.41859248  0.61265725  1
  N  N56  1  0.88727350  0.54177881  0.34568530  1
  N  N57  1  0.77452455  0.42956696  0.08994625  1
  N  N58  1  0.55207674  0.53809674  0.85388440  1
  N  N59  1  0.44739564  0.42399664  0.61314293  1
  N  N60  1  0.23296107  0.85492276  0.36188598  1
  N  N61  1  0.10228499  0.75268078  0.10642580  1
  N  N62  1  0.87149543  0.88173312  0.85756980  1
  N  N63  1  0.76925238  0.77754010  0.61197145  1
  N  N64  1  0.54521934  0.86097131  0.36329773  1
  N  N65  1  0.46386415  0.75279315  0.08869042  1
  N  N66  1  0.23850184  0.86192851  0.84587886  1
  N  N67  1  0.10583245  0.76475034  0.59742844  1
  N  N68  1  0.89682812  0.88259924  0.35413916  1
  N  N69  1  0.77385411  0.76532264  0.09179637  1
  N  N70  1  0.55468809  0.87218424  0.84827989  1
  N  N71  1  0.44700109  0.75647204  0.60889557  1
