# generated using pymatgen
data_Sc11Al25N36
_symmetry_space_group_name_H-M   'P 1'
_cell_length_a   10.34439084
_cell_length_b   10.29446471
_cell_length_c   8.91103826
_cell_angle_alpha   90.00061833
_cell_angle_beta   90.05380122
_cell_angle_gamma   60.04742373
_symmetry_Int_Tables_number   1
_chemical_formula_structural   Sc11Al25N36
_chemical_formula_sum   'Sc11 Al25 N36'
_cell_volume   822.19478429
_cell_formula_units_Z   1
loop_
 _symmetry_equiv_pos_site_id
 _symmetry_equiv_pos_as_xyz
  1  'x, y, z'
loop_
 _atom_site_type_symbol
 _atom_site_label
 _atom_site_symmetry_multiplicity
 _atom_site_fract_x
 _atom_site_fract_y
 _atom_site_fract_z
 _atom_site_occupancy
  Sc  Sc0  1  0.11441545  0.09264059  0.34814589  1
  Sc  Sc1  1  0.87979166  0.20462059  0.59932672  1
  Sc  Sc2  1  0.45066750  0.08897540  0.34823141  1
  Sc  Sc3  1  0.11139591  0.09790758  0.84996615  1
  Sc  Sc4  1  0.11482243  0.43069235  0.34632630  1
  Sc  Sc5  1  0.88809529  0.54170358  0.60719317  1
  Sc  Sc6  1  0.44607246  0.42817561  0.34634033  1
  Sc  Sc7  1  0.76629802  0.43413517  0.34049766  1
  Sc  Sc8  1  0.23179829  0.86062976  0.10027565  1
  Sc  Sc9  1  0.10577070  0.75885401  0.84260541  1
  Sc  Sc10  1  0.77303909  0.77047727  0.34456366  1
  Al  Al11  1  0.22599445  0.20820166  0.09632250  1
  Al  Al12  1  0.76977351  0.09620676  0.86456346  1
  Al  Al13  1  0.56134350  0.20111699  0.10160014  1
  Al  Al14  1  0.23483495  0.20371786  0.62350698  1
  Al  Al15  1  0.77887997  0.08973346  0.35591812  1
  Al  Al16  1  0.88381957  0.20499188  0.09868941  1
  Al  Al17  1  0.45132677  0.09249076  0.86150444  1
  Al  Al18  1  0.55429317  0.20336789  0.62114741  1
  Al  Al19  1  0.21985743  0.54209450  0.10306536  1
  Al  Al20  1  0.77060155  0.42869439  0.85867022  1
  Al  Al21  1  0.55308282  0.54307894  0.09509162  1
  Al  Al22  1  0.11962905  0.42598215  0.85830416  1
  Al  Al23  1  0.23070215  0.53113367  0.61341067  1
  Al  Al24  1  0.88973696  0.54035869  0.08789482  1
  Al  Al25  1  0.44587399  0.42258684  0.86097161  1
  Al  Al26  1  0.54920315  0.53922678  0.62545323  1
  Al  Al27  1  0.10929355  0.76481921  0.36663395  1
  Al  Al28  1  0.77050592  0.76981059  0.86050874  1
  Al  Al29  1  0.87550262  0.87965981  0.61262712  1
  Al  Al30  1  0.44454072  0.75705100  0.37253942  1
  Al  Al31  1  0.55518242  0.86733428  0.10146837  1
  Al  Al32  1  0.23081102  0.86789223  0.60434871  1
  Al  Al33  1  0.89028644  0.87455551  0.10759335  1
  Al  Al34  1  0.45227230  0.75776526  0.85279651  1
  Al  Al35  1  0.55395642  0.87496434  0.61944779  1
  N  N36  1  0.22772851  0.20560898  0.31670442  1
  N  N37  1  0.10344289  0.10595396  0.09232714  1
  N  N38  1  0.86990342  0.21207868  0.84646617  1
  N  N39  1  0.76183175  0.08866655  0.58179318  1
  N  N40  1  0.57527866  0.19436830  0.32018543  1
  N  N41  1  0.45091087  0.08922257  0.08115828  1
  N  N42  1  0.23605339  0.21141438  0.84762995  1
  N  N43  1  0.12893295  0.09132676  0.59812251  1
  N  N44  1  0.87970891  0.19795793  0.33771504  1
  N  N45  1  0.77960905  0.09164075  0.08108531  1
  N  N46  1  0.55636859  0.20495030  0.84208055  1
  N  N47  1  0.44677786  0.09368316  0.60001379  1
  N  N48  1  0.21545547  0.55929503  0.33115049  1
  N  N49  1  0.11184131  0.43117063  0.08184603  1
  N  N50  1  0.88874484  0.54045779  0.85469285  1
  N  N51  1  0.75591170  0.43961801  0.59724519  1
  N  N52  1  0.54007284  0.55931486  0.31802087  1
  N  N53  1  0.44302952  0.42674655  0.08205816  1
  N  N54  1  0.23413048  0.52251650  0.83597765  1
  N  N55  1  0.13021898  0.41674202  0.59920237  1
  N  N56  1  0.88778484  0.54160464  0.33808044  1
  N  N57  1  0.77640353  0.42758468  0.08326863  1
  N  N58  1  0.55353956  0.53608470  0.84370222  1
  N  N59  1  0.44753314  0.42462512  0.59786511  1
  N  N60  1  0.23308840  0.85411572  0.35399507  1
  N  N61  1  0.10155352  0.75487737  0.08379681  1
  N  N62  1  0.86713960  0.88484448  0.83342848  1
  N  N63  1  0.76524910  0.77814600  0.59393234  1
  N  N64  1  0.54289568  0.86043959  0.32655473  1
  N  N65  1  0.46309305  0.75229995  0.06791949  1
  N  N66  1  0.23989196  0.86125232  0.83422860  1
  N  N67  1  0.10605242  0.76112196  0.59027478  1
  N  N68  1  0.90070947  0.88102404  0.33124476  1
  N  N69  1  0.77635218  0.76599517  0.08457580  1
  N  N70  1  0.55587201  0.87299046  0.83756001  1
  N  N71  1  0.44997969  0.75673433  0.59546651  1
