# generated using pymatgen
data_Sc11Al25N36
_symmetry_space_group_name_H-M   'P 1'
_cell_length_a   10.42274383
_cell_length_b   10.38083488
_cell_length_c   8.68627503
_cell_angle_alpha   89.97588449
_cell_angle_beta   90.05401509
_cell_angle_gamma   60.05326256
_symmetry_Int_Tables_number   1
_chemical_formula_structural   Sc11Al25N36
_chemical_formula_sum   'Sc11 Al25 N36'
_cell_volume   814.34975781
_cell_formula_units_Z   1
loop_
 _symmetry_equiv_pos_site_id
 _symmetry_equiv_pos_as_xyz
  1  'x, y, z'
loop_
 _atom_site_type_symbol
 _atom_site_label
 _atom_site_symmetry_multiplicity
 _atom_site_fract_x
 _atom_site_fract_y
 _atom_site_fract_z
 _atom_site_occupancy
  Sc  Sc0  1  0.11255963  0.09322585  0.35285328  1
  Sc  Sc1  1  0.87963848  0.20240763  0.60520628  1
  Sc  Sc2  1  0.45255075  0.08689008  0.34947033  1
  Sc  Sc3  1  0.11389887  0.09827555  0.85295029  1
  Sc  Sc4  1  0.11354802  0.43308764  0.34812272  1
  Sc  Sc5  1  0.88923332  0.54086673  0.61229077  1
  Sc  Sc6  1  0.44529500  0.42756522  0.35056028  1
  Sc  Sc7  1  0.76780363  0.43273504  0.34573841  1
  Sc  Sc8  1  0.23061339  0.86234092  0.10409240  1
  Sc  Sc9  1  0.10605154  0.75999585  0.84687192  1
  Sc  Sc10  1  0.77283748  0.77017618  0.34893763  1
  Al  Al11  1  0.22620169  0.20841252  0.09638421  1
  Al  Al12  1  0.76798658  0.09529986  0.85327260  1
  Al  Al13  1  0.55764340  0.20354948  0.09135413  1
  Al  Al14  1  0.23360842  0.20373747  0.60825063  1
  Al  Al15  1  0.78104786  0.09025426  0.33080510  1
  Al  Al16  1  0.88308520  0.20800449  0.09432545  1
  Al  Al17  1  0.44881703  0.09496420  0.85156779  1
  Al  Al18  1  0.55738125  0.20116543  0.60502292  1
  Al  Al19  1  0.22287396  0.53781843  0.08812809  1
  Al  Al20  1  0.76895100  0.43015704  0.85363971  1
  Al  Al21  1  0.55488996  0.53993409  0.08418767  1
  Al  Al22  1  0.12139345  0.42351692  0.85284148  1
  Al  Al23  1  0.22811021  0.53596869  0.60302465  1
  Al  Al24  1  0.88818562  0.54092810  0.09099531  1
  Al  Al25  1  0.44704251  0.42249070  0.84907463  1
  Al  Al26  1  0.54783401  0.54312042  0.60561451  1
  Al  Al27  1  0.10893561  0.76436363  0.35852283  1
  Al  Al28  1  0.77156365  0.76923282  0.85083479  1
  Al  Al29  1  0.88125665  0.87998832  0.59838854  1
  Al  Al30  1  0.44508480  0.75803164  0.35351741  1
  Al  Al31  1  0.55760031  0.86776186  0.08204279  1
  Al  Al32  1  0.23118971  0.86635972  0.60219569  1
  Al  Al33  1  0.88640576  0.87207490  0.09201577  1
  Al  Al34  1  0.45015276  0.75687003  0.84420242  1
  Al  Al35  1  0.55190666  0.87261600  0.60646623  1
  N  N36  1  0.22777341  0.20652021  0.34849393  1
  N  N37  1  0.10492028  0.10858034  0.10131198  1
  N  N38  1  0.87148297  0.21143948  0.86177122  1
  N  N39  1  0.76514123  0.08735406  0.62012892  1
  N  N40  1  0.57653507  0.19354284  0.35438089  1
  N  N41  1  0.44989688  0.08845214  0.09215498  1
  N  N42  1  0.23576843  0.21101605  0.85707819  1
  N  N43  1  0.12743903  0.08911440  0.60419746  1
  N  N44  1  0.87896995  0.19880460  0.34659179  1
  N  N45  1  0.77664701  0.09261599  0.09973979  1
  N  N46  1  0.55430529  0.20597329  0.85981078  1
  N  N47  1  0.44758790  0.09360721  0.61476394  1
  N  N48  1  0.21682410  0.55701261  0.36473720  1
  N  N49  1  0.11355477  0.42914652  0.09104163  1
  N  N50  1  0.88987857  0.53973455  0.86263700  1
  N  N51  1  0.75878325  0.43724432  0.61453754  1
  N  N52  1  0.54260426  0.55494364  0.36412819  1
  N  N53  1  0.44442585  0.42809939  0.09357849  1
  N  N54  1  0.23288478  0.52510621  0.85294748  1
  N  N55  1  0.12884716  0.41879614  0.61370879  1
  N  N56  1  0.88710477  0.54179554  0.34732876  1
  N  N57  1  0.77319463  0.43030611  0.09064147  1
  N  N58  1  0.55156629  0.53935223  0.85494130  1
  N  N59  1  0.44710469  0.42322601  0.61454896  1
  N  N60  1  0.23302069  0.85505846  0.36092974  1
  N  N61  1  0.10181853  0.75209077  0.10708279  1
  N  N62  1  0.87140306  0.88155965  0.86036038  1
  N  N63  1  0.76908807  0.77808674  0.61344150  1
  N  N64  1  0.54587522  0.86116110  0.36890416  1
  N  N65  1  0.46506302  0.75035557  0.10289395  1
  N  N66  1  0.23886364  0.86193490  0.85013649  1
  N  N67  1  0.10645358  0.76543770  0.59852722  1
  N  N68  1  0.89691787  0.88307190  0.35704814  1
  N  N69  1  0.77379877  0.76477155  0.09315891  1
  N  N70  1  0.55425724  0.87121363  0.85183167  1
  N  N71  1  0.44556720  0.75915450  0.61363997  1
