# generated using pymatgen
data_Sc11Al25N36
_symmetry_space_group_name_H-M   'P 1'
_cell_length_a   9.86943908
_cell_length_b   9.82340566
_cell_length_c   10.21852983
_cell_angle_alpha   89.86987296
_cell_angle_beta   90.05291526
_cell_angle_gamma   60.09204960
_symmetry_Int_Tables_number   1
_chemical_formula_structural   Sc11Al25N36
_chemical_formula_sum   'Sc11 Al25 N36'
_cell_volume   858.76303285
_cell_formula_units_Z   1
loop_
 _symmetry_equiv_pos_site_id
 _symmetry_equiv_pos_as_xyz
  1  'x, y, z'
loop_
 _atom_site_type_symbol
 _atom_site_label
 _atom_site_symmetry_multiplicity
 _atom_site_fract_x
 _atom_site_fract_y
 _atom_site_fract_z
 _atom_site_occupancy
  Sc  Sc0  1  0.10843112  0.09838029  0.30323507  1
  Sc  Sc1  1  0.88109493  0.20487940  0.55671636  1
  Sc  Sc2  1  0.44885176  0.09045775  0.29826619  1
  Sc  Sc3  1  0.11642555  0.09305772  0.80289281  1
  Sc  Sc4  1  0.10825295  0.43578247  0.29397634  1
  Sc  Sc5  1  0.88920664  0.54134039  0.57135001  1
  Sc  Sc6  1  0.44481647  0.42892365  0.30569960  1
  Sc  Sc7  1  0.76885023  0.43569601  0.28860571  1
  Sc  Sc8  1  0.23055437  0.86407093  0.06293447  1
  Sc  Sc9  1  0.10845169  0.76005323  0.80123975  1
  Sc  Sc10  1  0.77456766  0.76707607  0.30015894  1
  Al  Al11  1  0.22529458  0.20943832  0.03581165  1
  Al  Al12  1  0.76659578  0.09516090  0.79853761  1
  Al  Al13  1  0.55576138  0.20519947  0.03850806  1
  Al  Al14  1  0.23345857  0.20335409  0.55248151  1
  Al  Al15  1  0.77963444  0.09300074  0.29341558  1
  Al  Al16  1  0.88235238  0.20861096  0.03701041  1
  Al  Al17  1  0.44939559  0.09390969  0.79639097  1
  Al  Al18  1  0.55736398  0.19993806  0.55279060  1
  Al  Al19  1  0.22458933  0.53256382  0.04017665  1
  Al  Al20  1  0.76662041  0.43129416  0.80231559  1
  Al  Al21  1  0.55740658  0.53728269  0.03709960  1
  Al  Al22  1  0.12473649  0.42240637  0.79720455  1
  Al  Al23  1  0.22503946  0.54009955  0.55002793  1
  Al  Al24  1  0.89037414  0.53921302  0.02799838  1
  Al  Al25  1  0.44708803  0.42396670  0.79455846  1
  Al  Al26  1  0.54752860  0.54507161  0.55404005  1
  Al  Al27  1  0.10765865  0.76220342  0.29952619  1
  Al  Al28  1  0.76961693  0.77177676  0.79615079  1
  Al  Al29  1  0.88545535  0.87841815  0.54616300  1
  Al  Al30  1  0.44968095  0.75598500  0.30115642  1
  Al  Al31  1  0.56052520  0.86680929  0.03780698  1
  Al  Al32  1  0.22928841  0.86511047  0.53959995  1
  Al  Al33  1  0.88208523  0.87234167  0.04507809  1
  Al  Al34  1  0.44889732  0.75743017  0.79387420  1
  Al  Al35  1  0.54973367  0.87481261  0.55400529  1
  N  N36  1  0.22547140  0.21164892  0.36761244  1
  N  N37  1  0.10135213  0.11435902  0.08635031  1
  N  N38  1  0.86985421  0.21040131  0.84746012  1
  N  N39  1  0.76680067  0.08474461  0.61408118  1
  N  N40  1  0.57668363  0.19195611  0.36604094  1
  N  N41  1  0.44694876  0.09096057  0.08734276  1
  N  N42  1  0.23691393  0.21033797  0.85110992  1
  N  N43  1  0.13006051  0.08349489  0.58967759  1
  N  N44  1  0.87473168  0.20473878  0.35012906  1
  N  N45  1  0.77524646  0.09465076  0.10165544  1
  N  N46  1  0.55400126  0.20672493  0.85108058  1
  N  N47  1  0.44703371  0.09273764  0.60674856  1
  N  N48  1  0.21282867  0.55714812  0.36518726  1
  N  N49  1  0.10977996  0.42761669  0.08267662  1
  N  N50  1  0.89170545  0.54002946  0.83615226  1
  N  N51  1  0.75368879  0.43846162  0.61726150  1
  N  N52  1  0.54738856  0.55405013  0.36941240  1
  N  N53  1  0.44629908  0.42655995  0.09306799  1
  N  N54  1  0.23543047  0.52263558  0.85447188  1
  N  N55  1  0.13528294  0.41744219  0.61084410  1
  N  N56  1  0.88611614  0.54043254  0.36471668  1
  N  N57  1  0.77833204  0.42897794  0.07608447  1
  N  N58  1  0.55000710  0.54119860  0.85094129  1
  N  N59  1  0.44437924  0.42650954  0.60270563  1
  N  N60  1  0.23261668  0.85460367  0.34288333  1
  N  N61  1  0.09886356  0.74834242  0.10515270  1
  N  N62  1  0.86873334  0.88330045  0.85966894  1
  N  N63  1  0.76575642  0.78461439  0.60723215  1
  N  N64  1  0.54509162  0.86398387  0.36878441  1
  N  N65  1  0.47331008  0.74500526  0.11192531  1
  N  N66  1  0.24369988  0.85824759  0.85881744  1
  N  N67  1  0.10940104  0.76495705  0.59381285  1
  N  N68  1  0.89759032  0.88397211  0.35774505  1
  N  N69  1  0.77777606  0.75728585  0.08809887  1
  N  N70  1  0.55409992  0.87037794  0.84932241  1
  N  N71  1  0.44103949  0.76237593  0.60694180  1
