# generated using pymatgen
data_Sc11Al25N36
_symmetry_space_group_name_H-M   'P 1'
_cell_length_a   9.86955613
_cell_length_b   9.82351897
_cell_length_c   10.21805168
_cell_angle_alpha   89.87065507
_cell_angle_beta   90.05262972
_cell_angle_gamma   60.09225615
_symmetry_Int_Tables_number   1
_chemical_formula_structural   Sc11Al25N36
_chemical_formula_sum   'Sc11 Al25 N36'
_cell_volume   858.74477322
_cell_formula_units_Z   1
loop_
 _symmetry_equiv_pos_site_id
 _symmetry_equiv_pos_as_xyz
  1  'x, y, z'
loop_
 _atom_site_type_symbol
 _atom_site_label
 _atom_site_symmetry_multiplicity
 _atom_site_fract_x
 _atom_site_fract_y
 _atom_site_fract_z
 _atom_site_occupancy
  Sc  Sc0  1  0.10849214  0.09829382  0.32090515  1
  Sc  Sc1  1  0.88117882  0.20478168  0.57442303  1
  Sc  Sc2  1  0.44892996  0.09034179  0.31591235  1
  Sc  Sc3  1  0.11651227  0.09297071  0.82056629  1
  Sc  Sc4  1  0.10832966  0.43567977  0.31164636  1
  Sc  Sc5  1  0.88929303  0.54123217  0.58903778  1
  Sc  Sc6  1  0.44489542  0.42881089  0.32336497  1
  Sc  Sc7  1  0.76894348  0.43557517  0.30628613  1
  Sc  Sc8  1  0.23063053  0.86400825  0.08061287  1
  Sc  Sc9  1  0.10852953  0.75997464  0.81892973  1
  Sc  Sc10  1  0.77465327  0.76695937  0.31784277  1
  Al  Al11  1  0.22536549  0.20936834  0.05347881  1
  Al  Al12  1  0.76666477  0.09506762  0.81619212  1
  Al  Al13  1  0.55583547  0.20512119  0.05616983  1
  Al  Al14  1  0.23354025  0.20325186  0.57013659  1
  Al  Al15  1  0.77972159  0.09289738  0.31106901  1
  Al  Al16  1  0.88241863  0.20853838  0.05465183  1
  Al  Al17  1  0.44947463  0.09382123  0.81404732  1
  Al  Al18  1  0.55744587  0.19982788  0.57042573  1
  Al  Al19  1  0.22467413  0.53247359  0.05783000  1
  Al  Al20  1  0.76668152  0.43121832  0.81997263  1
  Al  Al21  1  0.55748081  0.53719768  0.05476582  1
  Al  Al22  1  0.12482753  0.42231684  0.81485383  1
  Al  Al23  1  0.22510922  0.54001847  0.56767549  1
  Al  Al24  1  0.89044649  0.53913516  0.04565234  1
  Al  Al25  1  0.44716967  0.42387801  0.81219505  1
  Al  Al26  1  0.54760274  0.54498172  0.57167840  1
  Al  Al27  1  0.10774025  0.76210226  0.31713650  1
  Al  Al28  1  0.76969015  0.77169728  0.81379074  1
  Al  Al29  1  0.88555025  0.87831234  0.56381004  1
  Al  Al30  1  0.44976348  0.75588083  0.31878437  1
  Al  Al31  1  0.56061066  0.86672318  0.05546070  1
  Al  Al32  1  0.22936325  0.86501185  0.55724929  1
  Al  Al33  1  0.88214838  0.87226354  0.06273880  1
  Al  Al34  1  0.44897286  0.75734079  0.81153565  1
  Al  Al35  1  0.54980641  0.87470760  0.57165282  1
  N  N36  1  0.22555333  0.21154190  0.38526227  1
  N  N37  1  0.10140857  0.11430275  0.10400221  1
  N  N38  1  0.86992613  0.21031578  0.86508275  1
  N  N39  1  0.76686959  0.08463571  0.63172148  1
  N  N40  1  0.57676804  0.19183339  0.38367693  1
  N  N41  1  0.44702383  0.09087792  0.10498596  1
  N  N42  1  0.23700077  0.21025638  0.86876090  1
  N  N43  1  0.13015331  0.08338763  0.60734077  1
  N  N44  1  0.87480499  0.20462769  0.36783229  1
  N  N45  1  0.77532610  0.09457550  0.11930229  1
  N  N46  1  0.55407261  0.20664477  0.86872315  1
  N  N47  1  0.44711733  0.09263382  0.62439312  1
  N  N48  1  0.21289667  0.55706895  0.38282492  1
  N  N49  1  0.10985024  0.42754649  0.10033383  1
  N  N50  1  0.89178225  0.53994769  0.85378761  1
  N  N51  1  0.75374466  0.43837983  0.63490636  1
  N  N52  1  0.54746257  0.55395316  0.38704401  1
  N  N53  1  0.44637230  0.42647607  0.11072859  1
  N  N54  1  0.23552185  0.52254390  0.87211210  1
  N  N55  1  0.13537824  0.41734032  0.62848491  1
  N  N56  1  0.88620203  0.54031653  0.38239918  1
  N  N57  1  0.77840635  0.42889697  0.09374442  1
  N  N58  1  0.55007333  0.54111258  0.86859258  1
  N  N59  1  0.44445838  0.42640914  0.62032716  1
  N  N60  1  0.23269311  0.85450604  0.36050046  1
  N  N61  1  0.09894131  0.74826378  0.12276191  1
  N  N62  1  0.86879561  0.88321955  0.87731518  1
  N  N63  1  0.76583208  0.78452452  0.62485738  1
  N  N64  1  0.54516828  0.86387181  0.38643110  1
  N  N65  1  0.47338909  0.74492513  0.12955879  1
  N  N66  1  0.24378524  0.85816827  0.87648806  1
  N  N67  1  0.10948002  0.76486649  0.61148203  1
  N  N68  1  0.89768620  0.88386277  0.37538177  1
  N  N69  1  0.77785307  0.75720156  0.10576963  1
  N  N70  1  0.55417976  0.87029208  0.86696236  1
  N  N71  1  0.44110707  0.76227999  0.62458750  1
