# generated using pymatgen
data_Sc11Al25N36
_symmetry_space_group_name_H-M   'P 1'
_cell_length_a   9.97548642
_cell_length_b   9.92605523
_cell_length_c   9.95042104
_cell_angle_alpha   90.00225354
_cell_angle_beta   90.02381081
_cell_angle_gamma   60.08411332
_symmetry_Int_Tables_number   1
_chemical_formula_structural   Sc11Al25N36
_chemical_formula_sum   'Sc11 Al25 N36'
_cell_volume   853.98509215
_cell_formula_units_Z   1
loop_
 _symmetry_equiv_pos_site_id
 _symmetry_equiv_pos_as_xyz
  1  'x, y, z'
loop_
 _atom_site_type_symbol
 _atom_site_label
 _atom_site_symmetry_multiplicity
 _atom_site_fract_x
 _atom_site_fract_y
 _atom_site_fract_z
 _atom_site_occupancy
  Sc  Sc0  1  0.11675262  0.09035506  0.36959915  1
  Sc  Sc1  1  0.87861692  0.20690251  0.61500456  1
  Sc  Sc2  1  0.45092749  0.08911048  0.37159131  1
  Sc  Sc3  1  0.10911287  0.10021956  0.86337519  1
  Sc  Sc4  1  0.11382160  0.43184372  0.36388292  1
  Sc  Sc5  1  0.88789654  0.54257855  0.63185594  1
  Sc  Sc6  1  0.44503272  0.42793274  0.36329312  1
  Sc  Sc7  1  0.76740629  0.43558281  0.35579949  1
  Sc  Sc8  1  0.22846864  0.86214783  0.11686943  1
  Sc  Sc9  1  0.10569153  0.75783219  0.85186263  1
  Sc  Sc10  1  0.77418993  0.76970254  0.35689210  1
  Al  Al11  1  0.22563349  0.20704075  0.11706750  1
  Al  Al12  1  0.76867207  0.09840706  0.87782413  1
  Al  Al13  1  0.56161997  0.20013776  0.11810142  1
  Al  Al14  1  0.23446713  0.20496607  0.63671762  1
  Al  Al15  1  0.77943793  0.08803787  0.37190868  1
  Al  Al16  1  0.88525821  0.20319752  0.12635152  1
  Al  Al17  1  0.45039824  0.09321254  0.87638076  1
  Al  Al18  1  0.55296283  0.20421116  0.63383387  1
  Al  Al19  1  0.21817956  0.54361237  0.12100036  1
  Al  Al20  1  0.77066842  0.42794999  0.88481216  1
  Al  Al21  1  0.55384453  0.54192120  0.11812099  1
  Al  Al22  1  0.11980852  0.42513310  0.88250029  1
  Al  Al23  1  0.23261170  0.52717719  0.63048999  1
  Al  Al24  1  0.89049768  0.53958649  0.11069616  1
  Al  Al25  1  0.44747553  0.42306000  0.87809811  1
  Al  Al26  1  0.55023345  0.54050805  0.63249625  1
  Al  Al27  1  0.11081323  0.76497984  0.38370805  1
  Al  Al28  1  0.77020047  0.76940701  0.88441560  1
  Al  Al29  1  0.87165408  0.87975424  0.62643055  1
  Al  Al30  1  0.44166552  0.75899581  0.38012169  1
  Al  Al31  1  0.55412733  0.86923444  0.12035540  1
  Al  Al32  1  0.23388465  0.86721913  0.62874328  1
  Al  Al33  1  0.89230838  0.87434129  0.12388832  1
  Al  Al34  1  0.45663987  0.75449495  0.87201257  1
  Al  Al35  1  0.55442926  0.87388324  0.63222045  1
  N  N36  1  0.22902329  0.20494542  0.30512276  1
  N  N37  1  0.10236984  0.10872259  0.08221586  1
  N  N38  1  0.86503301  0.21664105  0.82737491  1
  N  N39  1  0.76038430  0.08757635  0.56444861  1
  N  N40  1  0.57716306  0.19152594  0.30639162  1
  N  N41  1  0.44822642  0.09104137  0.07014840  1
  N  N42  1  0.23577028  0.21363577  0.82906947  1
  N  N43  1  0.12910019  0.08914352  0.59421000  1
  N  N44  1  0.88138614  0.19561269  0.32325019  1
  N  N45  1  0.78025878  0.09213251  0.06856521  1
  N  N46  1  0.55566671  0.20595958  0.82757753  1
  N  N47  1  0.44641768  0.09297438  0.58819520  1
  N  N48  1  0.21284690  0.56324189  0.31191361  1
  N  N49  1  0.11530380  0.42771776  0.07469803  1
  N  N50  1  0.88880099  0.53965568  0.84921557  1
  N  N51  1  0.75585629  0.44367835  0.57061644  1
  N  N52  1  0.53792824  0.56116480  0.30609810  1
  N  N53  1  0.44382702  0.42711101  0.07394864  1
  N  N54  1  0.23642610  0.51692386  0.82153845  1
  N  N55  1  0.12885432  0.41752776  0.57955307  1
  N  N56  1  0.88975296  0.54163406  0.30321179  1
  N  N57  1  0.77552238  0.42485178  0.07999415  1
  N  N58  1  0.55665856  0.53583540  0.82617637  1
  N  N59  1  0.44727338  0.42522867  0.58176256  1
  N  N60  1  0.23110731  0.85399345  0.33375744  1
  N  N61  1  0.09966419  0.75341327  0.06361343  1
  N  N62  1  0.86094830  0.88690888  0.81766033  1
  N  N63  1  0.76485268  0.77658805  0.57272693  1
  N  N64  1  0.54015488  0.86218222  0.30994342  1
  N  N65  1  0.46547926  0.75025461  0.05956242  1
  N  N66  1  0.24524206  0.85978246  0.82312509  1
  N  N67  1  0.10794333  0.76079509  0.58714812  1
  N  N68  1  0.90527963  0.88035616  0.31652592  1
  N  N69  1  0.77543471  0.76851625  0.07937818  1
  N  N70  1  0.55777311  0.87088241  0.82486429  1
  N  N71  1  0.44796728  0.75867972  0.57592358  1
