# generated using pymatgen
data_Sc11Al25N36
_symmetry_space_group_name_H-M   'P 1'
_cell_length_a   9.86832560
_cell_length_b   9.82655651
_cell_length_c   10.22786962
_cell_angle_alpha   89.99926355
_cell_angle_beta   90.06483825
_cell_angle_gamma   60.04095980
_symmetry_Int_Tables_number   1
_chemical_formula_structural   Sc11Al25N36
_chemical_formula_sum   'Sc11 Al25 N36'
_cell_volume   859.28923006
_cell_formula_units_Z   1
loop_
 _symmetry_equiv_pos_site_id
 _symmetry_equiv_pos_as_xyz
  1  'x, y, z'
loop_
 _atom_site_type_symbol
 _atom_site_label
 _atom_site_symmetry_multiplicity
 _atom_site_fract_x
 _atom_site_fract_y
 _atom_site_fract_z
 _atom_site_occupancy
  Sc  Sc0  1  0.11407604  0.09277536  0.40368306  1
  Sc  Sc1  1  0.87819606  0.20564914  0.65131618  1
  Sc  Sc2  1  0.45052723  0.08942746  0.40364169  1
  Sc  Sc3  1  0.11167970  0.09750646  0.89608017  1
  Sc  Sc4  1  0.11347741  0.43211165  0.39581066  1
  Sc  Sc5  1  0.88855520  0.54139364  0.66387441  1
  Sc  Sc6  1  0.44566266  0.42874629  0.39744582  1
  Sc  Sc7  1  0.76891757  0.43416448  0.38782969  1
  Sc  Sc8  1  0.22901634  0.86280550  0.15426039  1
  Sc  Sc9  1  0.10689034  0.75824875  0.88731256  1
  Sc  Sc10  1  0.77427545  0.76844874  0.39084201  1
  Al  Al11  1  0.22564528  0.20696798  0.14753314  1
  Al  Al12  1  0.76851999  0.09751206  0.90795772  1
  Al  Al13  1  0.56005221  0.20149849  0.14735916  1
  Al  Al14  1  0.23338969  0.20482732  0.66611257  1
  Al  Al15  1  0.77927110  0.08909542  0.39880418  1
  Al  Al16  1  0.88549082  0.20375324  0.15286252  1
  Al  Al17  1  0.44994134  0.09361718  0.90481817  1
  Al  Al18  1  0.55312215  0.20363161  0.66271178  1
  Al  Al19  1  0.22013754  0.54122266  0.14993334  1
  Al  Al20  1  0.77137884  0.42887935  0.91425025  1
  Al  Al21  1  0.55493319  0.54097909  0.14673882  1
  Al  Al22  1  0.11940711  0.42486327  0.91137502  1
  Al  Al23  1  0.23074238  0.52958757  0.66042235  1
  Al  Al24  1  0.89060400  0.53951762  0.14052497  1
  Al  Al25  1  0.44795192  0.42335072  0.90515410  1
  Al  Al26  1  0.55059807  0.54131167  0.66169580  1
  Al  Al27  1  0.11027178  0.76398881  0.41082770  1
  Al  Al28  1  0.77113634  0.76820401  0.91161790  1
  Al  Al29  1  0.87449245  0.87840038  0.65470351  1
  Al  Al30  1  0.44323475  0.75901410  0.40822163  1
  Al  Al31  1  0.55527496  0.86956091  0.14800337  1
  Al  Al32  1  0.23294471  0.86622612  0.65530447  1
  Al  Al33  1  0.89094646  0.87353621  0.15312500  1
  Al  Al34  1  0.45551304  0.75484867  0.90156918  1
  Al  Al35  1  0.55389608  0.87366394  0.66220228  1
  N  N36  1  0.22839898  0.20490402  0.33089985  1
  N  N37  1  0.10412071  0.10735195  0.10680611  1
  N  N38  1  0.86623964  0.21570470  0.85692515  1
  N  N39  1  0.76116959  0.08717735  0.58764533  1
  N  N40  1  0.57466050  0.19345765  0.33167925  1
  N  N41  1  0.44749415  0.09190093  0.09413422  1
  N  N42  1  0.23519236  0.21369455  0.85262850  1
  N  N43  1  0.12716147  0.08988454  0.61919234  1
  N  N44  1  0.88131599  0.19566767  0.34248877  1
  N  N45  1  0.77920004  0.09170757  0.09426977  1
  N  N46  1  0.55614586  0.20551736  0.85171038  1
  N  N47  1  0.44599074  0.09267498  0.61474089  1
  N  N48  1  0.21439547  0.56121314  0.33610946  1
  N  N49  1  0.11568256  0.42702548  0.09865422  1
  N  N50  1  0.88963328  0.53895517  0.87383804  1
  N  N51  1  0.75746139  0.44141074  0.59657424  1
  N  N52  1  0.53899327  0.56064430  0.33042093  1
  N  N53  1  0.44454155  0.42714143  0.09650690  1
  N  N54  1  0.23518452  0.51800950  0.84659923  1
  N  N55  1  0.12865892  0.41780026  0.60538012  1
  N  N56  1  0.88987555  0.54149034  0.32672263  1
  N  N57  1  0.77602489  0.42561783  0.10333833  1
  N  N58  1  0.55753816  0.53644556  0.85074445  1
  N  N59  1  0.44685204  0.42599796  0.60996932  1
  N  N60  1  0.23037752  0.85559453  0.36368178  1
  N  N61  1  0.10114813  0.75386056  0.09300547  1
  N  N62  1  0.86269374  0.88634834  0.84192335  1
  N  N63  1  0.76542768  0.77550104  0.60045664  1
  N  N64  1  0.54076872  0.86329740  0.33345826  1
  N  N65  1  0.46388192  0.75115890  0.08507471  1
  N  N66  1  0.24593979  0.85850131  0.84287331  1
  N  N67  1  0.10747629  0.76008235  0.60892337  1
  N  N68  1  0.90363750  0.87962676  0.34115650  1
  N  N69  1  0.77616585  0.76730514  0.10152817  1
  N  N70  1  0.55746874  0.87069857  0.85037089  1
  N  N71  1  0.44875573  0.75853290  0.59945368  1
