# generated using pymatgen
data_Sc11Al25N36
_symmetry_space_group_name_H-M   'P 1'
_cell_length_a   10.15123452
_cell_length_b   10.10472153
_cell_length_c   9.45155611
_cell_angle_alpha   89.95538974
_cell_angle_beta   90.00467944
_cell_angle_gamma   60.08829240
_symmetry_Int_Tables_number   1
_chemical_formula_structural   Sc11Al25N36
_chemical_formula_sum   'Sc11 Al25 N36'
_cell_volume   840.35476199
_cell_formula_units_Z   1
loop_
 _symmetry_equiv_pos_site_id
 _symmetry_equiv_pos_as_xyz
  1  'x, y, z'
loop_
 _atom_site_type_symbol
 _atom_site_label
 _atom_site_symmetry_multiplicity
 _atom_site_fract_x
 _atom_site_fract_y
 _atom_site_fract_z
 _atom_site_occupancy
  Sc  Sc0  1  0.10859822  0.09749432  0.34652347  1
  Sc  Sc1  1  0.88093899  0.20244101  0.60131527  1
  Sc  Sc2  1  0.45126122  0.08745898  0.33715204  1
  Sc  Sc3  1  0.11795337  0.09323771  0.84451053  1
  Sc  Sc4  1  0.11003161  0.43512874  0.33566958  1
  Sc  Sc5  1  0.88967640  0.54028092  0.60835799  1
  Sc  Sc6  1  0.44474613  0.42724349  0.34552355  1
  Sc  Sc7  1  0.77011678  0.43180894  0.33308999  1
  Sc  Sc8  1  0.23080983  0.86545760  0.10217174  1
  Sc  Sc9  1  0.10775737  0.76117656  0.84480038  1
  Sc  Sc10  1  0.77373887  0.76747411  0.34398024  1
  Al  Al11  1  0.22581593  0.21046418  0.07213000  1
  Al  Al12  1  0.76547716  0.09420037  0.83511895  1
  Al  Al13  1  0.55513304  0.20634534  0.07423240  1
  Al  Al14  1  0.23423318  0.20253071  0.58623106  1
  Al  Al15  1  0.78195968  0.09187667  0.32216588  1
  Al  Al16  1  0.88229131  0.20990604  0.07117053  1
  Al  Al17  1  0.44989021  0.09464327  0.83072135  1
  Al  Al18  1  0.56027502  0.19751063  0.58329964  1
  Al  Al19  1  0.22600500  0.53207167  0.07270969  1
  Al  Al20  1  0.76507081  0.43205810  0.83761967  1
  Al  Al21  1  0.55572541  0.53751125  0.07085702  1
  Al  Al22  1  0.12573067  0.42210123  0.83163228  1
  Al  Al23  1  0.22424850  0.54228775  0.58589064  1
  Al  Al24  1  0.88883356  0.54138933  0.06526580  1
  Al  Al25  1  0.44769388  0.42245652  0.82623508  1
  Al  Al26  1  0.54621450  0.54627609  0.58664061  1
  Al  Al27  1  0.10768829  0.76245257  0.33049262  1
  Al  Al28  1  0.76944167  0.77326968  0.82789989  1
  Al  Al29  1  0.88705681  0.87929003  0.57872986  1
  Al  Al30  1  0.45010896  0.75498914  0.32966216  1
  Al  Al31  1  0.56087620  0.86654658  0.06958755  1
  Al  Al32  1  0.22986147  0.86373428  0.57538888  1
  Al  Al33  1  0.88101023  0.87211914  0.07921215  1
  Al  Al34  1  0.44781201  0.75733725  0.82886064  1
  Al  Al35  1  0.54879466  0.87319021  0.58904490  1
  N  N36  1  0.22686075  0.20912953  0.38368262  1
  N  N37  1  0.10117812  0.11520021  0.10447899  1
  N  N38  1  0.87002160  0.21079366  0.86362394  1
  N  N39  1  0.76586071  0.08363457  0.63573201  1
  N  N40  1  0.57975603  0.18995383  0.38120065  1
  N  N41  1  0.44815561  0.09004816  0.10846374  1
  N  N42  1  0.23806510  0.21067784  0.87000318  1
  N  N43  1  0.13093191  0.08266685  0.60909854  1
  N  N44  1  0.87702813  0.20009289  0.37351189  1
  N  N45  1  0.77592046  0.09564645  0.11755291  1
  N  N46  1  0.55316210  0.20746563  0.87247038  1
  N  N47  1  0.44833055  0.09234161  0.62412527  1
  N  N48  1  0.21315988  0.56006404  0.38437837  1
  N  N49  1  0.11015085  0.42918127  0.10448817  1
  N  N50  1  0.89031414  0.54168223  0.85886090  1
  N  N51  1  0.75381412  0.43911178  0.63157251  1
  N  N52  1  0.54414015  0.55540169  0.38608731  1
  N  N53  1  0.44545130  0.42691336  0.11523428  1
  N  N54  1  0.23665549  0.52216833  0.87057058  1
  N  N55  1  0.13386430  0.41797488  0.62679488  1
  N  N56  1  0.88675342  0.54007353  0.38316746  1
  N  N57  1  0.77653068  0.42976686  0.09863524  1
  N  N58  1  0.54910302  0.54010847  0.86997896  1
  N  N59  1  0.44543793  0.42464676  0.61933322  1
  N  N60  1  0.23316712  0.85356201  0.35908657  1
  N  N61  1  0.09965717  0.74954402  0.11662372  1
  N  N62  1  0.86735440  0.88308904  0.87924911  1
  N  N63  1  0.76726042  0.78319383  0.62085448  1
  N  N64  1  0.54369779  0.86127470  0.38846119  1
  N  N65  1  0.47177616  0.74644999  0.12624175  1
  N  N66  1  0.24301144  0.85994977  0.87944032  1
  N  N67  1  0.10868887  0.76667630  0.61856873  1
  N  N68  1  0.89942770  0.88395800  0.37422346  1
  N  N69  1  0.77587913  0.75958358  0.11224401  1
  N  N70  1  0.55454285  0.87067454  0.86623370  1
  N  N71  1  0.44055921  0.76140749  0.62875821  1
