# generated using pymatgen
data_Sc11Al25N36
_symmetry_space_group_name_H-M   'P 1'
_cell_length_a   10.20090326
_cell_length_b   10.15637613
_cell_length_c   9.30620134
_cell_angle_alpha   89.95396154
_cell_angle_beta   90.00499192
_cell_angle_gamma   60.08289973
_symmetry_Int_Tables_number   1
_chemical_formula_structural   Sc11Al25N36
_chemical_formula_sum   'Sc11 Al25 N36'
_cell_volume   835.68470829
_cell_formula_units_Z   1
loop_
 _symmetry_equiv_pos_site_id
 _symmetry_equiv_pos_as_xyz
  1  'x, y, z'
loop_
 _atom_site_type_symbol
 _atom_site_label
 _atom_site_symmetry_multiplicity
 _atom_site_fract_x
 _atom_site_fract_y
 _atom_site_fract_z
 _atom_site_occupancy
  Sc  Sc0  1  0.10923187  0.09688730  0.34816657  1
  Sc  Sc1  1  0.88067106  0.20219782  0.60245051  1
  Sc  Sc2  1  0.45157926  0.08716957  0.33975354  1
  Sc  Sc3  1  0.11739561  0.09384841  0.84623150  1
  Sc  Sc4  1  0.11077602  0.43480115  0.33815923  1
  Sc  Sc5  1  0.88962488  0.54043143  0.60898515  1
  Sc  Sc6  1  0.44479762  0.42729355  0.34675019  1
  Sc  Sc7  1  0.76968001  0.43190863  0.33643587  1
  Sc  Sc8  1  0.23055165  0.86495254  0.10297638  1
  Sc  Sc9  1  0.10737683  0.76130726  0.84541019  1
  Sc  Sc10  1  0.77337478  0.76796932  0.34541927  1
  Al  Al11  1  0.22597956  0.21011016  0.07434588  1
  Al  Al12  1  0.76584007  0.09429662  0.83811143  1
  Al  Al13  1  0.55519339  0.20615302  0.07612101  1
  Al  Al14  1  0.23408733  0.20266568  0.58832869  1
  Al  Al15  1  0.78181025  0.09169616  0.32255190  1
  Al  Al16  1  0.88252272  0.20985985  0.07459526  1
  Al  Al17  1  0.44974898  0.09484128  0.83329930  1
  Al  Al18  1  0.56025251  0.19786450  0.58529769  1
  Al  Al19  1  0.22561565  0.53293006  0.07399837  1
  Al  Al20  1  0.76573957  0.43169551  0.84014877  1
  Al  Al21  1  0.55559311  0.53777582  0.07223806  1
  Al  Al22  1  0.12490093  0.42231968  0.83464658  1
  Al  Al23  1  0.22489838  0.54136984  0.58861261  1
  Al  Al24  1  0.88859960  0.54137328  0.06854239  1
  Al  Al25  1  0.44779603  0.42224964  0.82914570  1
  Al  Al26  1  0.54615098  0.54609359  0.58898139  1
  Al  Al27  1  0.10802476  0.76276489  0.33528687  1
  Al  Al28  1  0.76997275  0.77258687  0.83125023  1
  Al  Al29  1  0.88614532  0.87969855  0.58074202  1
  Al  Al30  1  0.44962276  0.75537803  0.33142565  1
  Al  Al31  1  0.56034517  0.86676342  0.07062729  1
  Al  Al32  1  0.23013402  0.86412866  0.57873826  1
  Al  Al33  1  0.88195036  0.87177291  0.08095699  1
  Al  Al34  1  0.44785785  0.75730029  0.83072951  1
  Al  Al35  1  0.54919104  0.87300637  0.59188757  1
  N  N36  1  0.22697905  0.20864337  0.38076545  1
  N  N37  1  0.10184103  0.11444897  0.10351808  1
  N  N38  1  0.87023612  0.21096930  0.86307707  1
  N  N39  1  0.76583694  0.08407500  0.63448121  1
  N  N40  1  0.57957323  0.19042459  0.37844808  1
  N  N41  1  0.44836055  0.08975800  0.10620351  1
  N  N42  1  0.23778061  0.21061549  0.86795433  1
  N  N43  1  0.13030216  0.08327397  0.60792324  1
  N  N44  1  0.87754049  0.19959424  0.36944768  1
  N  N45  1  0.77586107  0.09537645  0.11456858  1
  N  N46  1  0.55319341  0.20729175  0.87091634  1
  N  N47  1  0.44838739  0.09252821  0.62233525  1
  N  N48  1  0.21398739  0.55943931  0.38254719  1
  N  N49  1  0.11067240  0.42910230  0.10207938  1
  N  N50  1  0.89011272  0.54147141  0.85905329  1
  N  N51  1  0.75469084  0.43868187  0.62828307  1
  N  N52  1  0.54349947  0.55553495  0.38380578  1
  N  N53  1  0.44527236  0.42711001  0.11207167  1
  N  N54  1  0.23605946  0.52280218  0.86751440  1
  N  N55  1  0.13291754  0.41822308  0.62469605  1
  N  N56  1  0.88684800  0.54051983  0.37861419  1
  N  N57  1  0.77600060  0.43000735  0.09724344  1
  N  N58  1  0.54946324  0.53999980  0.86767283  1
  N  N59  1  0.44585999  0.42422512  0.61843744  1
  N  N60  1  0.23333482  0.85377985  0.35895652  1
  N  N61  1  0.10006419  0.74964990  0.11518714  1
  N  N62  1  0.86814538  0.88274118  0.87711019  1
  N  N63  1  0.76774709  0.78252781  0.61949955  1
  N  N64  1  0.54400283  0.86107427  0.38669764  1
  N  N65  1  0.47081542  0.74701863  0.12351615  1
  N  N66  1  0.24215498  0.86036263  0.87574765  1
  N  N67  1  0.10832480  0.76684327  0.61518254  1
  N  N68  1  0.89879701  0.88410757  0.37185289  1
  N  N69  1  0.77539242  0.76026384  0.10922151  1
  N  N70  1  0.55441056  0.87077549  0.86366961  1
  N  N71  1  0.44104730  0.76114545  0.62727852  1
