# generated using pymatgen
data_Sc11Al25N36
_symmetry_space_group_name_H-M   'P 1'
_cell_length_a   9.86955812
_cell_length_b   9.82352234
_cell_length_c   10.21804697
_cell_angle_alpha   89.87064078
_cell_angle_beta   90.05256479
_cell_angle_gamma   60.09224910
_symmetry_Int_Tables_number   1
_chemical_formula_structural   Sc11Al25N36
_chemical_formula_sum   'Sc11 Al25 N36'
_cell_volume   858.74478594
_cell_formula_units_Z   1
loop_
 _symmetry_equiv_pos_site_id
 _symmetry_equiv_pos_as_xyz
  1  'x, y, z'
loop_
 _atom_site_type_symbol
 _atom_site_label
 _atom_site_symmetry_multiplicity
 _atom_site_fract_x
 _atom_site_fract_y
 _atom_site_fract_z
 _atom_site_occupancy
  Sc  Sc0  1  0.10851127  0.09827004  0.32532445  1
  Sc  Sc1  1  0.88119922  0.20475737  0.57884542  1
  Sc  Sc2  1  0.44894984  0.09031907  0.32032598  1
  Sc  Sc3  1  0.11653250  0.09294766  0.82498720  1
  Sc  Sc4  1  0.10835129  0.43565607  0.31606914  1
  Sc  Sc5  1  0.88931276  0.54120850  0.59345082  1
  Sc  Sc6  1  0.44491367  0.42878851  0.32778024  1
  Sc  Sc7  1  0.76896352  0.43554960  0.31070482  1
  Sc  Sc8  1  0.23065093  0.86398490  0.08503088  1
  Sc  Sc9  1  0.10854897  0.75995192  0.82335210  1
  Sc  Sc10  1  0.77467299  0.76693669  0.32226036  1
  Al  Al11  1  0.22538492  0.20934598  0.05789775  1
  Al  Al12  1  0.76668421  0.09504431  0.82061185  1
  Al  Al13  1  0.55585502  0.20509767  0.06058429  1
  Al  Al14  1  0.23356034  0.20322731  0.57455237  1
  Al  Al15  1  0.77974106  0.09287448  0.31549054  1
  Al  Al16  1  0.88243761  0.20851553  0.05907053  1
  Al  Al17  1  0.44949350  0.09379831  0.81846104  1
  Al  Al18  1  0.55746537  0.19980535  0.57484285  1
  Al  Al19  1  0.22469294  0.53244976  0.06224875  1
  Al  Al20  1  0.76670166  0.43119632  0.82438853  1
  Al  Al21  1  0.55750074  0.53717525  0.05918231  1
  Al  Al22  1  0.12484568  0.42229373  0.81926972  1
  Al  Al23  1  0.22512996  0.53999596  0.57209931  1
  Al  Al24  1  0.89046616  0.53911209  0.05007468  1
  Al  Al25  1  0.44718961  0.42385519  0.81661491  1
  Al  Al26  1  0.54762214  0.54495800  0.57609328  1
  Al  Al27  1  0.10776043  0.76207835  0.32155465  1
  Al  Al28  1  0.76971002  0.77167310  0.81820396  1
  Al  Al29  1  0.88557083  0.87828896  0.56822682  1
  Al  Al30  1  0.44978285  0.75585774  0.32320383  1
  Al  Al31  1  0.56063041  0.86669964  0.05987502  1
  Al  Al32  1  0.22938254  0.86498842  0.56166700  1
  Al  Al33  1  0.88216669  0.87224080  0.06715520  1
  Al  Al34  1  0.44899305  0.75731747  0.81595219  1
  Al  Al35  1  0.54982563  0.87468468  0.57606627  1
  N  N36  1  0.22557448  0.21151622  0.38967884  1
  N  N37  1  0.10142786  0.11427966  0.10842072  1
  N  N38  1  0.86994513  0.21029341  0.86950095  1
  N  N39  1  0.76688868  0.08461182  0.63614053  1
  N  N40  1  0.57678619  0.19181149  0.38809447  1
  N  N41  1  0.44704380  0.09085446  0.10940098  1
  N  N42  1  0.23702030  0.21023413  0.87317930  1
  N  N43  1  0.13017410  0.08336381  0.61176081  1
  N  N44  1  0.87482503  0.20460346  0.37225448  1
  N  N45  1  0.77534526  0.09455261  0.12372137  1
  N  N46  1  0.55409172  0.20662137  0.87313907  1
  N  N47  1  0.44713700  0.09261043  0.62880848  1
  N  N48  1  0.21291711  0.55704669  0.38724741  1
  N  N49  1  0.10987019  0.42752305  0.10475646  1
  N  N50  1  0.89180194  0.53992450  0.85820747  1
  N  N51  1  0.75376416  0.43835769  0.63932249  1
  N  N52  1  0.54748167  0.55392926  0.39145994  1
  N  N53  1  0.44639168  0.42645284  0.11514423  1
  N  N54  1  0.23554061  0.52251989  0.87653026  1
  N  N55  1  0.13539747  0.41731629  0.63290099  1
  N  N56  1  0.88622095  0.54029327  0.38681422  1
  N  N57  1  0.77842560  0.42887355  0.09816430  1
  N  N58  1  0.55009384  0.54108969  0.87300975  1
  N  N59  1  0.44447888  0.42638590  0.62474743  1
  N  N60  1  0.23271252  0.85448254  0.36491920  1
  N  N61  1  0.09896067  0.74824056  0.12717925  1
  N  N62  1  0.86881379  0.88319616  0.88173219  1
  N  N63  1  0.76585190  0.78450046  0.62927128  1
  N  N64  1  0.54518747  0.86384962  0.39084618  1
  N  N65  1  0.47340871  0.74490229  0.13397709  1
  N  N66  1  0.24380642  0.85814470  0.88090668  1
  N  N67  1  0.10949930  0.76484406  0.61590402  1
  N  N68  1  0.89770670  0.88383919  0.37979980  1
  N  N69  1  0.77787175  0.75717935  0.11018790  1
  N  N70  1  0.55419986  0.87026878  0.87137718  1
  N  N71  1  0.44112715  0.76225636  0.62900372  1
