# generated using pymatgen
data_Sc11Al25N36
_symmetry_space_group_name_H-M   'P 1'
_cell_length_a   10.15094718
_cell_length_b   10.09712763
_cell_length_c   9.46716234
_cell_angle_alpha   89.99613432
_cell_angle_beta   90.01610283
_cell_angle_gamma   60.07023000
_symmetry_Int_Tables_number   1
_chemical_formula_structural   Sc11Al25N36
_chemical_formula_sum   'Sc11 Al25 N36'
_cell_volume   840.93368330
_cell_formula_units_Z   1
loop_
 _symmetry_equiv_pos_site_id
 _symmetry_equiv_pos_as_xyz
  1  'x, y, z'
loop_
 _atom_site_type_symbol
 _atom_site_label
 _atom_site_symmetry_multiplicity
 _atom_site_fract_x
 _atom_site_fract_y
 _atom_site_fract_z
 _atom_site_occupancy
  Sc  Sc0  1  0.11707127  0.09008775  0.35728727  1
  Sc  Sc1  1  0.87923808  0.20673282  0.60430692  1
  Sc  Sc2  1  0.45066607  0.08916256  0.35998648  1
  Sc  Sc3  1  0.10857300  0.10032766  0.85579473  1
  Sc  Sc4  1  0.11528215  0.43093519  0.35521273  1
  Sc  Sc5  1  0.88773477  0.54245656  0.61989479  1
  Sc  Sc6  1  0.44487672  0.42825890  0.35338380  1
  Sc  Sc7  1  0.76556216  0.43579609  0.34791795  1
  Sc  Sc8  1  0.22981786  0.86068238  0.10635593  1
  Sc  Sc9  1  0.10522497  0.75792323  0.84456063  1
  Sc  Sc10  1  0.77350056  0.77099117  0.34907718  1
  Al  Al11  1  0.22564201  0.20733349  0.10793569  1
  Al  Al12  1  0.76960232  0.09799395  0.87246710  1
  Al  Al13  1  0.56297902  0.19958416  0.11229572  1
  Al  Al14  1  0.23548121  0.20449445  0.63265179  1
  Al  Al15  1  0.77891432  0.08795805  0.36858461  1
  Al  Al16  1  0.88476108  0.20287615  0.12010687  1
  Al  Al17  1  0.45158011  0.09250016  0.87263807  1
  Al  Al18  1  0.55287359  0.20439529  0.62935270  1
  Al  Al19  1  0.21739930  0.54519477  0.11566992  1
  Al  Al20  1  0.77111434  0.42714165  0.87738207  1
  Al  Al21  1  0.55283954  0.54325724  0.11033160  1
  Al  Al22  1  0.11928174  0.42614064  0.87581236  1
  Al  Al23  1  0.23360299  0.52614824  0.62509742  1
  Al  Al24  1  0.89037285  0.53985711  0.10463389  1
  Al  Al25  1  0.44685825  0.42250726  0.87441128  1
  Al  Al26  1  0.55001362  0.53883967  0.63001834  1
  Al  Al27  1  0.11054937  0.76545209  0.38067051  1
  Al  Al28  1  0.77015336  0.76977527  0.87882421  1
  Al  Al29  1  0.87069299  0.88033632  0.62232333  1
  Al  Al30  1  0.44205873  0.75823939  0.37853097  1
  Al  Al31  1  0.55378972  0.86796960  0.11526587  1
  Al  Al32  1  0.23317441  0.86826525  0.62132039  1
  Al  Al33  1  0.89297333  0.87499581  0.11905547  1
  Al  Al34  1  0.45582522  0.75543370  0.86403648  1
  Al  Al35  1  0.55476553  0.87479198  0.62728248  1
  N  N36  1  0.22852020  0.20516015  0.30745725  1
  N  N37  1  0.10190800  0.10767156  0.08818116  1
  N  N38  1  0.86646886  0.21537084  0.83114775  1
  N  N39  1  0.76021148  0.08814331  0.57128024  1
  N  N40  1  0.57775807  0.19207021  0.31072584  1
  N  N41  1  0.45003300  0.08977193  0.07631833  1
  N  N42  1  0.23628830  0.21279503  0.83811546  1
  N  N43  1  0.12999451  0.08980648  0.59733829  1
  N  N44  1  0.88053885  0.19611719  0.33210296  1
  N  N45  1  0.78092056  0.09189377  0.07231689  1
  N  N46  1  0.55577433  0.20574008  0.83352677  1
  N  N47  1  0.44657015  0.09350047  0.59058144  1
  N  N48  1  0.21275939  0.56374530  0.31769022  1
  N  N49  1  0.11385246  0.42963348  0.07932718  1
  N  N50  1  0.88822910  0.54017824  0.85203831  1
  N  N51  1  0.75474052  0.44314724  0.57726931  1
  N  N52  1  0.53752867  0.56165861  0.30967527  1
  N  N53  1  0.44324967  0.42698899  0.07947177  1
  N  N54  1  0.23644593  0.51791563  0.82682077  1
  N  N55  1  0.13001875  0.41656887  0.58496246  1
  N  N56  1  0.88902797  0.54165980  0.31523954  1
  N  N57  1  0.77581283  0.42493638  0.08390719  1
  N  N58  1  0.55581493  0.53479922  0.83303593  1
  N  N59  1  0.44760405  0.42460305  0.58497169  1
  N  N60  1  0.23214866  0.85323346  0.33983507  1
  N  N61  1  0.09957769  0.75421076  0.06746949  1
  N  N62  1  0.86208696  0.88630095  0.82318719  1
  N  N63  1  0.76441546  0.77759056  0.57737547  1
  N  N64  1  0.54062190  0.86066143  0.31586871  1
  N  N65  1  0.46540558  0.75069129  0.06139393  1
  N  N66  1  0.24302862  0.86060252  0.83023826  1
  N  N67  1  0.10772205  0.76068754  0.59090858  1
  N  N68  1  0.90491243  0.88094645  0.32185679  1
  N  N69  1  0.77563380  0.76838004  0.08427694  1
  N  N70  1  0.55759027  0.87201515  0.82924893  1
  N  N71  1  0.44883025  0.75772496  0.58438579  1
