# generated using pymatgen
data_Sc11Al25N36
_symmetry_space_group_name_H-M   'P 1'
_cell_length_a   10.03667160
_cell_length_b   9.98479036
_cell_length_c   9.78590132
_cell_angle_alpha   90.00020787
_cell_angle_beta   90.01626297
_cell_angle_gamma   60.08314784
_symmetry_Int_Tables_number   1
_chemical_formula_structural   Sc11Al25N36
_chemical_formula_sum   'Sc11 Al25 N36'
_cell_volume   850.00870099
_cell_formula_units_Z   1
loop_
 _symmetry_equiv_pos_site_id
 _symmetry_equiv_pos_as_xyz
  1  'x, y, z'
loop_
 _atom_site_type_symbol
 _atom_site_label
 _atom_site_symmetry_multiplicity
 _atom_site_fract_x
 _atom_site_fract_y
 _atom_site_fract_z
 _atom_site_occupancy
  Sc  Sc0  1  0.11734001  0.08976358  0.36514613  1
  Sc  Sc1  1  0.87886271  0.20704123  0.61044968  1
  Sc  Sc2  1  0.45092649  0.08908513  0.36780238  1
  Sc  Sc3  1  0.10851720  0.10075146  0.86043168  1
  Sc  Sc4  1  0.11429416  0.43158280  0.36082859  1
  Sc  Sc5  1  0.88775814  0.54265633  0.62816270  1
  Sc  Sc6  1  0.44484937  0.42793701  0.35948051  1
  Sc  Sc7  1  0.76663418  0.43592817  0.35285773  1
  Sc  Sc8  1  0.22878297  0.86159753  0.11227655  1
  Sc  Sc9  1  0.10540300  0.75769752  0.84847831  1
  Sc  Sc10  1  0.77401774  0.77024919  0.35363956  1
  Al  Al11  1  0.22562414  0.20708856  0.11441287  1
  Al  Al12  1  0.76901234  0.09847226  0.87597300  1
  Al  Al13  1  0.56233459  0.19971555  0.11638792  1
  Al  Al14  1  0.23495677  0.20485080  0.63531157  1
  Al  Al15  1  0.77927237  0.08774619  0.37130579  1
  Al  Al16  1  0.88510776  0.20289068  0.12539334  1
  Al  Al17  1  0.45081350  0.09295431  0.87539300  1
  Al  Al18  1  0.55285594  0.20436896  0.63242312  1
  Al  Al19  1  0.21758542  0.54456086  0.11956226  1
  Al  Al20  1  0.77072495  0.42742840  0.88288355  1
  Al  Al21  1  0.55338864  0.54247348  0.11617624  1
  Al  Al22  1  0.11978982  0.42540711  0.88083290  1
  Al  Al23  1  0.23329979  0.52629964  0.62870333  1
  Al  Al24  1  0.89048960  0.53965000  0.10902398  1
  Al  Al25  1  0.44728292  0.42284433  0.87739071  1
  Al  Al26  1  0.55018258  0.53984604  0.63144365  1
  Al  Al27  1  0.11087383  0.76533855  0.38318195  1
  Al  Al28  1  0.77004894  0.76969549  0.88328970  1
  Al  Al29  1  0.87077115  0.88011588  0.62531531  1
  Al  Al30  1  0.44138708  0.75887222  0.37961530  1
  Al  Al31  1  0.55384272  0.86881664  0.11917591  1
  Al  Al32  1  0.23396452  0.86764114  0.62741992  1
  Al  Al33  1  0.89282467  0.87465415  0.12246015  1
  Al  Al34  1  0.45681140  0.75454077  0.86969928  1
  Al  Al35  1  0.55464021  0.87414175  0.63047705  1
  N  N36  1  0.22897106  0.20500659  0.30580418  1
  N  N37  1  0.10192439  0.10869015  0.08424485  1
  N  N38  1  0.86519596  0.21649845  0.82746844  1
  N  N39  1  0.76015716  0.08772931  0.56670282  1
  N  N40  1  0.57779395  0.19135222  0.30760485  1
  N  N41  1  0.44881687  0.09057156  0.07221190  1
  N  N42  1  0.23604069  0.21341407  0.83172411  1
  N  N43  1  0.12971450  0.08908813  0.59538524  1
  N  N44  1  0.88112137  0.19568149  0.32699746  1
  N  N45  1  0.78068635  0.09213750  0.06956538  1
  N  N46  1  0.55562941  0.20596455  0.82941740  1
  N  N47  1  0.44653713  0.09313835  0.58853222  1
  N  N48  1  0.21249023  0.56387181  0.31371617  1
  N  N49  1  0.11495300  0.42829278  0.07645262  1
  N  N50  1  0.88851409  0.53985328  0.85025282  1
  N  N51  1  0.75527132  0.44393980  0.57196550  1
  N  N52  1  0.53755331  0.56150198  0.30737221  1
  N  N53  1  0.44357543  0.42710172  0.07616015  1
  N  N54  1  0.23670603  0.51686734  0.82303579  1
  N  N55  1  0.12922015  0.41719155  0.58073132  1
  N  N56  1  0.88955882  0.54167459  0.30635382  1
  N  N57  1  0.77551459  0.42462349  0.08177141  1
  N  N58  1  0.55640087  0.53535689  0.82806605  1
  N  N59  1  0.44745112  0.42488982  0.58203021  1
  N  N60  1  0.23150223  0.85344553  0.33428103  1
  N  N61  1  0.09936440  0.75352319  0.06389457  1
  N  N62  1  0.86092020  0.88680991  0.81939837  1
  N  N63  1  0.76465152  0.77696907  0.57343826  1
  N  N64  1  0.54015027  0.86154888  0.31189799  1
  N  N65  1  0.46588179  0.75013423  0.06013284  1
  N  N66  1  0.24463026  0.86013094  0.82630740  1
  N  N67  1  0.10806797  0.76087925  0.58903851  1
  N  N68  1  0.90553905  0.88062936  0.31815026  1
  N  N69  1  0.77537576  0.76875006  0.08154068  1
  N  N70  1  0.55782685  0.87119800  0.82604133  1
  N  N71  1  0.44804228  0.75844904  0.57845369  1
