# generated using pymatgen
data_Sc11Al25N36
_symmetry_space_group_name_H-M   'P 1'
_cell_length_a   9.86955080
_cell_length_b   9.82351578
_cell_length_c   10.21806813
_cell_angle_alpha   89.87067673
_cell_angle_beta   90.05261101
_cell_angle_gamma   60.09225328
_symmetry_Int_Tables_number   1
_chemical_formula_structural   Sc11Al25N36
_chemical_formula_sum   'Sc11 Al25 N36'
_cell_volume   858.74538962
_cell_formula_units_Z   1
loop_
 _symmetry_equiv_pos_site_id
 _symmetry_equiv_pos_as_xyz
  1  'x, y, z'
loop_
 _atom_site_type_symbol
 _atom_site_label
 _atom_site_symmetry_multiplicity
 _atom_site_fract_x
 _atom_site_fract_y
 _atom_site_fract_z
 _atom_site_occupancy
  Sc  Sc0  1  0.10843452  0.09836204  0.30766656  1
  Sc  Sc1  1  0.88112118  0.20485062  0.56118260  1
  Sc  Sc2  1  0.44887124  0.09041261  0.30266839  1
  Sc  Sc3  1  0.11645234  0.09304189  0.80732915  1
  Sc  Sc4  1  0.10827240  0.43574831  0.29840876  1
  Sc  Sc5  1  0.88923298  0.54130208  0.57579223  1
  Sc  Sc6  1  0.44483577  0.42888036  0.31012065  1
  Sc  Sc7  1  0.76888582  0.43564218  0.29304579  1
  Sc  Sc8  1  0.23057215  0.86407833  0.06736990  1
  Sc  Sc9  1  0.10846949  0.76004529  0.80569120  1
  Sc  Sc10  1  0.77459417  0.76702937  0.30459968  1
  Al  Al11  1  0.22530620  0.20943924  0.04024033  1
  Al  Al12  1  0.76660620  0.09513757  0.80295065  1
  Al  Al13  1  0.55577687  0.20519051  0.04292578  1
  Al  Al14  1  0.23348196  0.20332014  0.55689665  1
  Al  Al15  1  0.77966208  0.09296670  0.29783107  1
  Al  Al16  1  0.88235909  0.20860802  0.04141466  1
  Al  Al17  1  0.44941504  0.09389088  0.80080514  1
  Al  Al18  1  0.55738639  0.19989866  0.55718650  1
  Al  Al19  1  0.22461426  0.53254267  0.04458644  1
  Al  Al20  1  0.76662321  0.43128840  0.80673282  1
  Al  Al21  1  0.55742218  0.53726794  0.04152604  1
  Al  Al22  1  0.12476714  0.42238660  0.80160905  1
  Al  Al23  1  0.22505123  0.54008885  0.55443752  1
  Al  Al24  1  0.89038820  0.53920467  0.03241495  1
  Al  Al25  1  0.44711120  0.42394845  0.79895693  1
  Al  Al26  1  0.54754399  0.54505060  0.55843529  1
  Al  Al27  1  0.10768206  0.76217112  0.30389263  1
  Al  Al28  1  0.76963129  0.77176627  0.80054813  1
  Al  Al29  1  0.88549232  0.87838113  0.55056801  1
  Al  Al30  1  0.44970395  0.75595068  0.30554484  1
  Al  Al31  1  0.56055164  0.86679299  0.04221878  1
  Al  Al32  1  0.22930428  0.86508083  0.54400976  1
  Al  Al33  1  0.88208819  0.87233442  0.04949715  1
  Al  Al34  1  0.44891488  0.75741020  0.79829580  1
  Al  Al35  1  0.54974729  0.87477747  0.55840912  1
  N  N36  1  0.22549620  0.21160959  0.37202269  1
  N  N37  1  0.10134997  0.11437237  0.09076305  1
  N  N38  1  0.86986619  0.21038607  0.85184524  1
  N  N39  1  0.76681144  0.08470490  0.61848031  1
  N  N40  1  0.57670788  0.19190432  0.37043748  1
  N  N41  1  0.44696517  0.09094797  0.09174372  1
  N  N42  1  0.23694123  0.21032756  0.85552168  1
  N  N43  1  0.13009484  0.08345687  0.59410243  1
  N  N44  1  0.87474731  0.20469561  0.35459254  1
  N  N45  1  0.77526613  0.09464550  0.10606342  1
  N  N46  1  0.55401381  0.20671418  0.85548070  1
  N  N47  1  0.44705867  0.09270313  0.61115263  1
  N  N48  1  0.21283861  0.55713925  0.36958599  1
  N  N49  1  0.10979173  0.42761647  0.08709677  1
  N  N50  1  0.89172364  0.54001711  0.84054905  1
  N  N51  1  0.75368603  0.43844928  0.62166596  1
  N  N52  1  0.54740348  0.55402174  0.37380154  1
  N  N53  1  0.44631267  0.42654564  0.09748508  1
  N  N54  1  0.23546160  0.52261328  0.85886932  1
  N  N55  1  0.13531808  0.41741005  0.61524149  1
  N  N56  1  0.88614243  0.54038658  0.36915560  1
  N  N57  1  0.77834734  0.42896674  0.08050645  1
  N  N58  1  0.55001516  0.54118269  0.85535359  1
  N  N59  1  0.44439983  0.42647923  0.60708914  1
  N  N60  1  0.23263404  0.85457486  0.34726109  1
  N  N61  1  0.09888255  0.74833368  0.10951856  1
  N  N62  1  0.86873517  0.88329005  0.86407427  1
  N  N63  1  0.76577322  0.78459370  0.61161515  1
  N  N64  1  0.54510909  0.86394244  0.37318850  1
  N  N65  1  0.47332957  0.74499567  0.11631867  1
  N  N66  1  0.24372666  0.85823839  0.86324655  1
  N  N67  1  0.10942063  0.76493642  0.59824390  1
  N  N68  1  0.89762814  0.88393113  0.36214024  1
  N  N69  1  0.77779372  0.75727202  0.09252820  1
  N  N70  1  0.55412100  0.87036188  0.85372141  1
  N  N71  1  0.44104914  0.76234884  0.61134692  1
