# generated using pymatgen
data_Sc11Al25N36
_symmetry_space_group_name_H-M   'P 1'
_cell_length_a   9.86832631
_cell_length_b   9.82655587
_cell_length_c   10.22787058
_cell_angle_alpha   89.99926954
_cell_angle_beta   90.06484262
_cell_angle_gamma   60.04096880
_symmetry_Int_Tables_number   1
_chemical_formula_structural   Sc11Al25N36
_chemical_formula_sum   'Sc11 Al25 N36'
_cell_volume   859.28939445
_cell_formula_units_Z   1
loop_
 _symmetry_equiv_pos_site_id
 _symmetry_equiv_pos_as_xyz
  1  'x, y, z'
loop_
 _atom_site_type_symbol
 _atom_site_label
 _atom_site_symmetry_multiplicity
 _atom_site_fract_x
 _atom_site_fract_y
 _atom_site_fract_z
 _atom_site_occupancy
  Sc  Sc0  1  0.11403518  0.09282337  0.39430311  1
  Sc  Sc1  1  0.87815608  0.20569707  0.64193602  1
  Sc  Sc2  1  0.45048553  0.08947574  0.39426463  1
  Sc  Sc3  1  0.11163750  0.09755653  0.88670225  1
  Sc  Sc4  1  0.11343654  0.43216045  0.38643267  1
  Sc  Sc5  1  0.88851428  0.54144384  0.65449558  1
  Sc  Sc6  1  0.44561977  0.42879535  0.38806557  1
  Sc  Sc7  1  0.76887592  0.43421450  0.37845492  1
  Sc  Sc8  1  0.22897506  0.86285426  0.14488115  1
  Sc  Sc9  1  0.10684811  0.75829834  0.87793615  1
  Sc  Sc10  1  0.77423366  0.76849715  0.38146035  1
  Al  Al11  1  0.22560386  0.20701673  0.13815685  1
  Al  Al12  1  0.76847843  0.09756122  0.89857702  1
  Al  Al13  1  0.56001075  0.20154696  0.13798098  1
  Al  Al14  1  0.23334787  0.20487636  0.65673162  1
  Al  Al15  1  0.77922897  0.08914444  0.38942432  1
  Al  Al16  1  0.88544834  0.20380335  0.14348572  1
  Al  Al17  1  0.44989883  0.09366694  0.89543929  1
  Al  Al18  1  0.55308050  0.20368096  0.65333278  1
  Al  Al19  1  0.22009595  0.54127127  0.14055262  1
  Al  Al20  1  0.77133718  0.42892794  0.90486858  1
  Al  Al21  1  0.55489271  0.54102757  0.13736133  1
  Al  Al22  1  0.11936568  0.42491140  0.90199774  1
  Al  Al23  1  0.23070099  0.52963671  0.65104559  1
  Al  Al24  1  0.89056203  0.53956536  0.13114459  1
  Al  Al25  1  0.44791071  0.42339935  0.89577579  1
  Al  Al26  1  0.55055585  0.54136069  0.65231818  1
  Al  Al27  1  0.11023067  0.76403706  0.40144942  1
  Al  Al28  1  0.77109484  0.76825306  0.90224129  1
  Al  Al29  1  0.87445047  0.87844934  0.64532512  1
  Al  Al30  1  0.44319299  0.75906323  0.39884232  1
  Al  Al31  1  0.55523235  0.86961023  0.13862345  1
  Al  Al32  1  0.23290298  0.86627515  0.64592555  1
  Al  Al33  1  0.89090481  0.87358592  0.14374786  1
  Al  Al34  1  0.45547112  0.75489756  0.89218925  1
  Al  Al35  1  0.55385502  0.87371272  0.65282473  1
  N  N36  1  0.22835799  0.20495304  0.32152307  1
  N  N37  1  0.10407873  0.10740150  0.09742845  1
  N  N38  1  0.86619852  0.21575309  0.84754417  1
  N  N39  1  0.76112782  0.08722628  0.57826611  1
  N  N40  1  0.57461852  0.19350589  0.32230059  1
  N  N41  1  0.44745171  0.09195039  0.08475512  1
  N  N42  1  0.23515025  0.21374383  0.84324804  1
  N  N43  1  0.12712081  0.08993291  0.60981119  1
  N  N44  1  0.88127311  0.19571821  0.33311159  1
  N  N45  1  0.77915855  0.09175687  0.08489027  1
  N  N46  1  0.55610398  0.20556659  0.84233112  1
  N  N47  1  0.44594950  0.09272363  0.60536262  1
  N  N48  1  0.21435335  0.56126222  0.32672903  1
  N  N49  1  0.11564107  0.42707349  0.08927608  1
  N  N50  1  0.88959180  0.53900461  0.86445933  1
  N  N51  1  0.75742005  0.44146032  0.58719836  1
  N  N52  1  0.53895271  0.56069272  0.32104324  1
  N  N53  1  0.44450038  0.42719003  0.08712868  1
  N  N54  1  0.23514275  0.51805872  0.83722267  1
  N  N55  1  0.12861765  0.41784992  0.59600132  1
  N  N56  1  0.88983425  0.54153777  0.31734277  1
  N  N57  1  0.77598321  0.42566631  0.09395716  1
  N  N58  1  0.55749583  0.53649443  0.84136575  1
  N  N59  1  0.44680988  0.42604727  0.60058968  1
  N  N60  1  0.23033620  0.85564259  0.35430179  1
  N  N61  1  0.10110594  0.75390988  0.08362765  1
  N  N62  1  0.86265200  0.88639682  0.83254497  1
  N  N63  1  0.76538554  0.77555069  0.59107580  1
  N  N64  1  0.54072620  0.86334666  0.32407823  1
  N  N65  1  0.46384054  0.75120706  0.07569517  1
  N  N66  1  0.24589738  0.85855115  0.83349461  1
  N  N67  1  0.10743490  0.76013113  0.59954499  1
  N  N68  1  0.90359629  0.87967586  0.33177833  1
  N  N69  1  0.77612427  0.76735424  0.09215077  1
  N  N70  1  0.55742754  0.87074743  0.84099314  1
  N  N71  1  0.44871411  0.75858200  0.59007527  1
