# generated using pymatgen
data_Sc11Al25N36
_symmetry_space_group_name_H-M   'P 1'
_cell_length_a   10.29338223
_cell_length_b   10.25210253
_cell_length_c   9.03505022
_cell_angle_alpha   89.94906236
_cell_angle_beta   90.00778677
_cell_angle_gamma   60.07325201
_symmetry_Int_Tables_number   1
_chemical_formula_structural   Sc11Al25N36
_chemical_formula_sum   'Sc11 Al25 N36'
_cell_volume   826.32723976
_cell_formula_units_Z   1
loop_
 _symmetry_equiv_pos_site_id
 _symmetry_equiv_pos_as_xyz
  1  'x, y, z'
loop_
 _atom_site_type_symbol
 _atom_site_label
 _atom_site_symmetry_multiplicity
 _atom_site_fract_x
 _atom_site_fract_y
 _atom_site_fract_z
 _atom_site_occupancy
  Sc  Sc0  1  0.11070449  0.09539040  0.35054674  1
  Sc  Sc1  1  0.88011766  0.20202208  0.60394088  1
  Sc  Sc2  1  0.45213255  0.08671209  0.34422528  1
  Sc  Sc3  1  0.11598216  0.09550580  0.84900329  1
  Sc  Sc4  1  0.11222887  0.43416134  0.34266706  1
  Sc  Sc5  1  0.88944975  0.54077077  0.61004429  1
  Sc  Sc6  1  0.44487644  0.42751064  0.34855345  1
  Sc  Sc7  1  0.76860773  0.43234811  0.34184934  1
  Sc  Sc8  1  0.22991013  0.86372887  0.10380293  1
  Sc  Sc9  1  0.10653008  0.76127870  0.84574929  1
  Sc  Sc10  1  0.77278206  0.76904023  0.34735309  1
  Al  Al11  1  0.22621117  0.20931209  0.07985957  1
  Al  Al12  1  0.76668890  0.09468871  0.84452387  1
  Al  Al13  1  0.55563822  0.20543337  0.08040746  1
  Al  Al14  1  0.23382703  0.20303482  0.59315974  1
  Al  Al15  1  0.78140039  0.09119297  0.32395088  1
  Al  Al16  1  0.88299990  0.20948050  0.08297792  1
  Al  Al17  1  0.44933107  0.09517755  0.83955152  1
  Al  Al18  1  0.55968123  0.19890572  0.59050264  1
  Al  Al19  1  0.22450913  0.53501369  0.07735661  1
  Al  Al20  1  0.76738398  0.43089548  0.84591815  1
  Al  Al21  1  0.55539895  0.53847617  0.07538360  1
  Al  Al22  1  0.12305030  0.42278109  0.84160194  1
  Al  Al23  1  0.22658659  0.53873165  0.59474180  1
  Al  Al24  1  0.88826799  0.54114417  0.07687024  1
  Al  Al25  1  0.44791048  0.42195436  0.83649938  1
  Al  Al26  1  0.54640584  0.54532773  0.59459664  1
  Al  Al27  1  0.10876582  0.76358479  0.34806513  1
  Al  Al28  1  0.77103462  0.77089532  0.83958856  1
  Al  Al29  1  0.88376382  0.88042610  0.58612501  1
  Al  Al30  1  0.44820202  0.75635182  0.33640539  1
  Al  Al31  1  0.55908372  0.86724681  0.07334431  1
  Al  Al32  1  0.23085016  0.86526019  0.58769178  1
  Al  Al33  1  0.88416331  0.87127028  0.08470159  1
  Al  Al34  1  0.44840612  0.75714103  0.83486594  1
  Al  Al35  1  0.55018740  0.87274958  0.59792619  1
  N  N36  1  0.22731521  0.20772253  0.37346319  1
  N  N37  1  0.10340756  0.11256304  0.10235249  1
  N  N38  1  0.87080071  0.21128187  0.86265229  1
  N  N39  1  0.76572609  0.08532591  0.63110566  1
  N  N40  1  0.57876728  0.19153049  0.37194273  1
  N  N41  1  0.44872966  0.08923086  0.10075367  1
  N  N42  1  0.23699339  0.21061943  0.86386824  1
  N  N43  1  0.12882195  0.08504706  0.60608700  1
  N  N44  1  0.87828602  0.19906902  0.35956877  1
  N  N45  1  0.77576712  0.09450549  0.10831192  1
  N  N46  1  0.55343228  0.20679305  0.86738019  1
  N  N47  1  0.44835260  0.09290805  0.61920728  1
  N  N48  1  0.21558208  0.55805189  0.37789109  1
  N  N49  1  0.11198805  0.42883653  0.09693999  1
  N  N50  1  0.88994253  0.54075018  0.86017914  1
  N  N51  1  0.75654271  0.43786252  0.62195229  1
  N  N52  1  0.54262484  0.55552616  0.37844505  1
  N  N53  1  0.44489099  0.42755857  0.10444357  1
  N  N54  1  0.23467136  0.52403275  0.86091498  1
  N  N55  1  0.13090360  0.41865411  0.62046045  1
  N  N56  1  0.88694391  0.54127202  0.36700103  1
  N  N57  1  0.77480009  0.43043318  0.09420358  1
  N  N58  1  0.55038316  0.53982326  0.86267852  1
  N  N59  1  0.44673635  0.42342427  0.61707019  1
  N  N60  1  0.23362997  0.85436670  0.35936162  1
  N  N61  1  0.10089293  0.75003531  0.11175324  1
  N  N62  1  0.86977914  0.88209724  0.87173731  1
  N  N63  1  0.76859304  0.78090070  0.61716739  1
  N  N64  1  0.54476595  0.86091180  0.38203811  1
  N  N65  1  0.46860049  0.74824539  0.11747654  1
  N  N66  1  0.24045474  0.86113004  0.86630321  1
  N  N67  1  0.10754896  0.76694581  0.60692761  1
  N  N68  1  0.89756392  0.88418279  0.36673513  1
  N  N69  1  0.77447080  0.76188781  0.10203463  1
  N  N70  1  0.55417423  0.87092601  0.85858972  1
  N  N71  1  0.44259177  0.76047120  0.62357600  1
