# generated using pymatgen
data_Sc11Al25N36
_symmetry_space_group_name_H-M   'P 1'
_cell_length_a   10.20320831
_cell_length_b   10.14936878
_cell_length_c   9.31734009
_cell_angle_alpha   89.99584885
_cell_angle_beta   90.02177210
_cell_angle_gamma   60.06311377
_symmetry_Int_Tables_number   1
_chemical_formula_structural   Sc11Al25N36
_chemical_formula_sum   'Sc11 Al25 N36'
_cell_volume   836.13068971
_cell_formula_units_Z   1
loop_
 _symmetry_equiv_pos_site_id
 _symmetry_equiv_pos_as_xyz
  1  'x, y, z'
loop_
 _atom_site_type_symbol
 _atom_site_label
 _atom_site_symmetry_multiplicity
 _atom_site_fract_x
 _atom_site_fract_y
 _atom_site_fract_z
 _atom_site_occupancy
  Sc  Sc0  1  0.11652260  0.09069167  0.35424936  1
  Sc  Sc1  1  0.87939643  0.20635148  0.60248125  1
  Sc  Sc2  1  0.45053938  0.08918811  0.35647493  1
  Sc  Sc3  1  0.10905880  0.09970028  0.85404518  1
  Sc  Sc4  1  0.11558007  0.43067053  0.35277048  1
  Sc  Sc5  1  0.88778007  0.54231399  0.61573539  1
  Sc  Sc6  1  0.44506625  0.42838195  0.35109650  1
  Sc  Sc7  1  0.76536909  0.43545442  0.34586433  1
  Sc  Sc8  1  0.23037225  0.86042903  0.10443765  1
  Sc  Sc9  1  0.10526635  0.75820202  0.84359907  1
  Sc  Sc10  1  0.77325117  0.77113317  0.34756243  1
  Al  Al11  1  0.22570726  0.20752376  0.10454845  1
  Al  Al12  1  0.76976957  0.09755497  0.87077152  1
  Al  Al13  1  0.56288433  0.19978775  0.10995094  1
  Al  Al14  1  0.23551260  0.20428017  0.63113507  1
  Al  Al15  1  0.77880820  0.08833017  0.36643445  1
  Al  Al16  1  0.88458647  0.20318413  0.11571090  1
  Al  Al17  1  0.45180572  0.09235223  0.87062818  1
  Al  Al18  1  0.55306231  0.20426483  0.62768558  1
  Al  Al19  1  0.21770938  0.54491308  0.11318692  1
  Al  Al20  1  0.77122860  0.42735372  0.87355719  1
  Al  Al21  1  0.55275518  0.54341523  0.10666204  1
  Al  Al22  1  0.11908079  0.42638578  0.87228328  1
  Al  Al23  1  0.23326776  0.52682139  0.62311427  1
  Al  Al24  1  0.89026513  0.53996289  0.10114348  1
  Al  Al25  1  0.44662783  0.42239906  0.87206356  1
  Al  Al26  1  0.54983841  0.53862126  0.62941712  1
  Al  Al27  1  0.11025666  0.76528681  0.37849767  1
  Al  Al28  1  0.77027711  0.76974018  0.87542568  1
  Al  Al29  1  0.87137391  0.88026246  0.62044484  1
  Al  Al30  1  0.44276918  0.75781011  0.37769638  1
  Al  Al31  1  0.55395857  0.86767254  0.11257901  1
  Al  Al32  1  0.23254310  0.86840055  0.61694436  1
  Al  Al33  1  0.89265230  0.87501516  0.11696072  1
  Al  Al34  1  0.45493166  0.75610937  0.86101212  1
  Al  Al35  1  0.55469928  0.87502882  0.62572876  1
  N  N36  1  0.22827329  0.20523801  0.30874952  1
  N  N37  1  0.10219250  0.10703201  0.08968258  1
  N  N38  1  0.86734491  0.21454376  0.83443529  1
  N  N39  1  0.76044633  0.08835072  0.57359622  1
  N  N40  1  0.57730978  0.19263659  0.31262608  1
  N  N41  1  0.45051676  0.08948798  0.07801089  1
  N  N42  1  0.23630724  0.21243120  0.84127852  1
  N  N43  1  0.12984314  0.09034733  0.59793468  1
  N  N44  1  0.88030688  0.19646264  0.33378794  1
  N  N45  1  0.78075872  0.09173007  0.07408736  1
  N  N46  1  0.55592084  0.20555742  0.83567573  1
  N  N47  1  0.44656573  0.09363347  0.59241923  1
  N  N48  1  0.21325091  0.56307438  0.31997917  1
  N  N49  1  0.11322621  0.43024312  0.08030406  1
  N  N50  1  0.88821794  0.54032418  0.85300413  1
  N  N51  1  0.75477233  0.44236437  0.58135145  1
  N  N52  1  0.53787000  0.56139729  0.31096707  1
  N  N53  1  0.44315645  0.42688038  0.08054169  1
  N  N54  1  0.23604736  0.51885957  0.82898575  1
  N  N55  1  0.13030244  0.41639871  0.58805188  1
  N  N56  1  0.88874053  0.54162475  0.32103530  1
  N  N57  1  0.77604534  0.42543209  0.08424261  1
  N  N58  1  0.55538306  0.53480736  0.83591131  1
  N  N59  1  0.44760672  0.42459356  0.58748621  1
  N  N60  1  0.23241424  0.85339766  0.34399098  1
  N  N61  1  0.09994357  0.75459866  0.07045503  1
  N  N62  1  0.86307286  0.88599288  0.82526262  1
  N  N63  1  0.76441479  0.77782825  0.58052131  1
  N  N64  1  0.54101481  0.86044640  0.31797311  1
  N  N65  1  0.46480438  0.75116852  0.06233698  1
  N  N66  1  0.24216581  0.86079735  0.83141590  1
  N  N67  1  0.10733439  0.76052142  0.59117729  1
  N  N68  1  0.90418109  0.88100383  0.32390924  1
  N  N69  1  0.77586307  0.76789297  0.08490125  1
  N  N70  1  0.55731698  0.87238597  0.83118478  1
  N  N71  1  0.44932434  0.75734749  0.58750222  1
