# generated using pymatgen
data_Sc11Al25N36
_symmetry_space_group_name_H-M   'P 1'
_cell_length_a   9.86832763
_cell_length_b   9.82655456
_cell_length_c   10.22786469
_cell_angle_alpha   89.99924854
_cell_angle_beta   90.06485224
_cell_angle_gamma   60.04096744
_symmetry_Int_Tables_number   1
_chemical_formula_structural   Sc11Al25N36
_chemical_formula_sum   'Sc11 Al25 N36'
_cell_volume   859.28888793
_cell_formula_units_Z   1
loop_
 _symmetry_equiv_pos_site_id
 _symmetry_equiv_pos_as_xyz
  1  'x, y, z'
loop_
 _atom_site_type_symbol
 _atom_site_label
 _atom_site_symmetry_multiplicity
 _atom_site_fract_x
 _atom_site_fract_y
 _atom_site_fract_z
 _atom_site_occupancy
  Sc  Sc0  1  0.11405551  0.09279910  0.39899444  1
  Sc  Sc1  1  0.87817798  0.20567223  0.64662723  1
  Sc  Sc2  1  0.45050671  0.08945142  0.39896101  1
  Sc  Sc3  1  0.11165742  0.09753305  0.89139999  1
  Sc  Sc4  1  0.11345724  0.43213685  0.39112719  1
  Sc  Sc5  1  0.88853382  0.54142034  0.65918808  1
  Sc  Sc6  1  0.44563992  0.42877126  0.39275745  1
  Sc  Sc7  1  0.76889532  0.43419049  0.38314933  1
  Sc  Sc8  1  0.22899535  0.86282791  0.14957481  1
  Sc  Sc9  1  0.10686894  0.75827341  0.88262468  1
  Sc  Sc10  1  0.77425437  0.76847407  0.38615311  1
  Al  Al11  1  0.22562434  0.20699316  0.14285343  1
  Al  Al12  1  0.76849857  0.09753767  0.90326988  1
  Al  Al13  1  0.56003112  0.20152223  0.14267605  1
  Al  Al14  1  0.23336800  0.20485140  0.66142368  1
  Al  Al15  1  0.77924959  0.08911995  0.39411876  1
  Al  Al16  1  0.88546776  0.20377936  0.14817886  1
  Al  Al17  1  0.44991824  0.09364290  0.90013521  1
  Al  Al18  1  0.55310054  0.20365739  0.65802902  1
  Al  Al19  1  0.22011485  0.54124764  0.14524455  1
  Al  Al20  1  0.77135777  0.42890406  0.90956274  1
  Al  Al21  1  0.55491299  0.54100381  0.14205389  1
  Al  Al22  1  0.11938561  0.42488724  0.90668834  1
  Al  Al23  1  0.23072196  0.52961216  0.65573458  1
  Al  Al24  1  0.89058280  0.53954075  0.13584247  1
  Al  Al25  1  0.44793005  0.42337557  0.90047145  1
  Al  Al26  1  0.55057581  0.54133632  0.65701117  1
  Al  Al27  1  0.11025047  0.76401362  0.40614389  1
  Al  Al28  1  0.77111502  0.76822796  0.90693594  1
  Al  Al29  1  0.87446934  0.87842582  0.65001999  1
  Al  Al30  1  0.44321298  0.75903901  0.40353360  1
  Al  Al31  1  0.55525194  0.86958592  0.14331954  1
  Al  Al32  1  0.23292383  0.86625235  0.65062046  1
  Al  Al33  1  0.89092538  0.87356173  0.14843838  1
  Al  Al34  1  0.45549152  0.75487363  0.89688059  1
  Al  Al35  1  0.55387547  0.87368860  0.65751888  1
  N  N36  1  0.22837959  0.20492958  0.32621885  1
  N  N37  1  0.10409942  0.10737687  0.10212572  1
  N  N38  1  0.86621948  0.21572895  0.85223633  1
  N  N39  1  0.76114789  0.08720231  0.58296038  1
  N  N40  1  0.57463932  0.19348094  0.32699497  1
  N  N41  1  0.44747152  0.09192620  0.08945041  1
  N  N42  1  0.23517009  0.21371884  0.84794043  1
  N  N43  1  0.12714198  0.08990838  0.61450144  1
  N  N44  1  0.88129235  0.19569477  0.33780509  1
  N  N45  1  0.77917833  0.09173326  0.08958274  1
  N  N46  1  0.55612350  0.20554294  0.84702649  1
  N  N47  1  0.44597034  0.09269967  0.61005789  1
  N  N48  1  0.21437277  0.56123922  0.33142135  1
  N  N49  1  0.11566073  0.42704909  0.09396838  1
  N  N50  1  0.88961159  0.53898082  0.86915091  1
  N  N51  1  0.75743995  0.44143610  0.59189200  1
  N  N52  1  0.53897293  0.56066870  0.32573532  1
  N  N53  1  0.44452005  0.42716595  0.09182294  1
  N  N54  1  0.23516389  0.51803350  0.84191251  1
  N  N55  1  0.12863756  0.41782556  0.60069453  1
  N  N56  1  0.88985461  0.54151328  0.32203910  1
  N  N57  1  0.77600389  0.42564232  0.09865082  1
  N  N58  1  0.55751580  0.53646993  0.84605906  1
  N  N59  1  0.44683082  0.42602250  0.60528095  1
  N  N60  1  0.23035646  0.85561790  0.35899469  1
  N  N61  1  0.10112587  0.75388519  0.08831688  1
  N  N62  1  0.86267130  0.88637273  0.83723913  1
  N  N63  1  0.76540536  0.77552737  0.59576806  1
  N  N64  1  0.54074632  0.86332292  0.32877301  1
  N  N65  1  0.46386046  0.75118336  0.08038714  1
  N  N66  1  0.24591711  0.85852890  0.83818830  1
  N  N67  1  0.10745477  0.76010762  0.60423869  1
  N  N68  1  0.90361729  0.87965223  0.33646988  1
  N  N69  1  0.77614422  0.76732937  0.09684569  1
  N  N70  1  0.55744808  0.87072339  0.84568691  1
  N  N71  1  0.44873432  0.75855788  0.59476768  1
