# generated using pymatgen
data_Li2CdGeO4
_symmetry_space_group_name_H-M   'P 1'
_cell_length_a   6.78134835
_cell_length_b   5.64287854
_cell_length_c   5.22909464
_cell_angle_alpha   90.00000084
_cell_angle_beta   90.00023014
_cell_angle_gamma   90.00025542
_symmetry_Int_Tables_number   1
_chemical_formula_structural   Li2CdGeO4
_chemical_formula_sum   'Li4 Cd2 Ge2 O8'
_cell_volume   200.09823544
_cell_formula_units_Z   2
loop_
 _symmetry_equiv_pos_site_id
 _symmetry_equiv_pos_as_xyz
  1  'x, y, z'
loop_
 _atom_site_type_symbol
 _atom_site_label
 _atom_site_symmetry_multiplicity
 _atom_site_fract_x
 _atom_site_fract_y
 _atom_site_fract_z
 _atom_site_occupancy
  Ge  Ge0  1  -0.01666205  0.16996058  0.61192929  1
  Ge  Ge1  1  -0.51666743  0.80355386  0.95333832  1
  Li  Li2  1  -0.27958792  0.32109354  0.97244995  1
  Li  Li3  1  -0.75376892  0.32111305  0.97243518  1
  Li  Li4  1  -0.26885037  0.66036664  0.46485849  1
  Li  Li5  1  -0.76446620  0.66034243  0.46485993  1
  O  O6  1  -0.01667066  0.18181342  0.96249905  1
  O  O7  1  -0.01666051  0.86409158  0.52265337  1
  O  O8  1  -0.72402164  0.65087060  0.08295810  1
  O  O9  1  -0.30931106  0.65087199  0.08295988  1
  O  O10  1  -0.79631542  0.33027028  0.55259851  1
  O  O11  1  -0.23701281  0.33027791  0.55258684  1
  O  O12  1  -0.51667223  0.11293955  0.03215212  1
  O  O13  1  -0.51666295  0.78573856  0.61371843  1
  Cd  Cd14  1  -0.01666437  0.79985485  0.02884065  1
  Cd  Cd15  1  -0.51666420  0.15683469  0.46078915  1
