# generated using pymatgen
data_Li2CdGeO4
_symmetry_space_group_name_H-M   'P 1'
_cell_length_a   6.77720483
_cell_length_b   5.69101373
_cell_length_c   5.22909468
_cell_angle_alpha   90.00000074
_cell_angle_beta   90.01489433
_cell_angle_gamma   90.00133387
_symmetry_Int_Tables_number   1
_chemical_formula_structural   Li2CdGeO4
_chemical_formula_sum   'Li4 Cd2 Ge2 O8'
_cell_volume   201.68181284
_cell_formula_units_Z   2
loop_
 _symmetry_equiv_pos_site_id
 _symmetry_equiv_pos_as_xyz
  1  'x, y, z'
loop_
 _atom_site_type_symbol
 _atom_site_label
 _atom_site_symmetry_multiplicity
 _atom_site_fract_x
 _atom_site_fract_y
 _atom_site_fract_z
 _atom_site_occupancy
  Ge  Ge0  1  -0.01665452  0.16883332  0.58607680  1
  Ge  Ge1  1  -0.51659694  0.80647106  0.94836466  1
  Li  Li2  1  -0.26478991  0.31737435  0.07195131  1
  Li  Li3  1  -0.76862940  0.31742931  0.07198907  1
  Li  Li4  1  -0.26095543  0.65573891  0.50274152  1
  Li  Li5  1  -0.77250041  0.65561419  0.50441872  1
  O  O6  1  -0.01670193  0.19285578  0.92613282  1
  O  O7  1  -0.01658541  0.86142057  0.50977381  1
  O  O8  1  -0.73006322  0.65361118  0.05168699  1
  O  O9  1  -0.30336987  0.65380442  0.05294585  1
  O  O10  1  -0.80774349  0.31805317  0.46033949  1
  O  O11  1  -0.22559448  0.31796721  0.46028795  1
  O  O12  1  -0.51672097  0.11234031  0.03057826  1
  O  O13  1  -0.51647062  0.78709815  0.60494137  1
  Cd  Cd14  1  -0.01660529  0.82293684  0.06123638  1
  Cd  Cd15  1  -0.51667686  0.15844476  0.48816228  1
