# generated using pymatgen
data_Li2CdGeO4
_symmetry_space_group_name_H-M   'P 1'
_cell_length_a   6.78142920
_cell_length_b   5.68199604
_cell_length_c   5.22909465
_cell_angle_alpha   90.00000081
_cell_angle_beta   90.00630428
_cell_angle_gamma   90.00109739
_symmetry_Int_Tables_number   1
_chemical_formula_structural   Li2CdGeO4
_chemical_formula_sum   'Li4 Cd2 Ge2 O8'
_cell_volume   201.48775515
_cell_formula_units_Z   2
loop_
 _symmetry_equiv_pos_site_id
 _symmetry_equiv_pos_as_xyz
  1  'x, y, z'
loop_
 _atom_site_type_symbol
 _atom_site_label
 _atom_site_symmetry_multiplicity
 _atom_site_fract_x
 _atom_site_fract_y
 _atom_site_fract_z
 _atom_site_occupancy
  Ge  Ge0  1  -0.01669549  0.16807924  0.60198669  1
  Ge  Ge1  1  -0.51667435  0.80510786  0.95458534  1
  Li  Li2  1  -0.27758096  0.32132165  0.99893183  1
  Li  Li3  1  -0.75571073  0.32139291  0.99807799  1
  Li  Li4  1  -0.26932604  0.65793244  0.46973262  1
  Li  Li5  1  -0.76401155  0.65789627  0.46973064  1
  O  O6  1  -0.01675228  0.18249892  0.94721998  1
  O  O7  1  -0.01663727  0.86438349  0.51111473  1
  O  O8  1  -0.72449698  0.65385195  0.08191637  1
  O  O9  1  -0.30882115  0.65391044  0.08191243  1
  O  O10  1  -0.79987650  0.32574827  0.52240096  1
  O  O11  1  -0.23336909  0.32569092  0.52169789  1
  O  O12  1  -0.51669950  0.11291276  0.03186551  1
  O  O13  1  -0.51666434  0.78417806  0.61483147  1
  Cd  Cd14  1  -0.01664772  0.81167165  0.05617311  1
  Cd  Cd15  1  -0.51669480  0.15341670  0.46944969  1
