# generated using pymatgen
data_Li2CdGeO4
_symmetry_space_group_name_H-M   'P 1'
_cell_length_a   6.78003885
_cell_length_b   5.68834015
_cell_length_c   5.22909467
_cell_angle_alpha   90.00000074
_cell_angle_beta   90.01266615
_cell_angle_gamma   90.00159338
_symmetry_Int_Tables_number   1
_chemical_formula_structural   Li2CdGeO4
_chemical_formula_sum   'Li4 Cd2 Ge2 O8'
_cell_volume   201.67136352
_cell_formula_units_Z   2
loop_
 _symmetry_equiv_pos_site_id
 _symmetry_equiv_pos_as_xyz
  1  'x, y, z'
loop_
 _atom_site_type_symbol
 _atom_site_label
 _atom_site_symmetry_multiplicity
 _atom_site_fract_x
 _atom_site_fract_y
 _atom_site_fract_z
 _atom_site_occupancy
  Ge  Ge0  1  -0.01672738  0.16837059  0.59731378  1
  Ge  Ge1  1  -0.51668347  0.80558938  0.95491060  1
  Li  Li2  1  -0.27504798  0.32014818  0.01972532  1
  Li  Li3  1  -0.75812358  0.32025185  0.01802574  1
  Li  Li4  1  -0.26891726  0.65788153  0.46972126  1
  Li  Li5  1  -0.76442557  0.65783399  0.46970667  1
  O  O6  1  -0.01683089  0.18506487  0.94169585  1
  O  O7  1  -0.01662880  0.86356711  0.51088781  1
  O  O8  1  -0.72504569  0.65544593  0.08141759  1
  O  O9  1  -0.30827768  0.65554051  0.08142833  1
  O  O10  1  -0.80168147  0.32369911  0.50557784  1
  O  O11  1  -0.23151913  0.32355281  0.50426242  1
  O  O12  1  -0.51671766  0.11309110  0.03188234  1
  O  O13  1  -0.51666288  0.78314785  0.61505290  1
  Cd  Cd14  1  -0.01664828  0.81423608  0.05505409  1
  Cd  Cd15  1  -0.51672101  0.15257264  0.47496473  1
