# generated using pymatgen
data_Li2CdGeO4
_symmetry_space_group_name_H-M   'P 1'
_cell_length_a   6.77681679
_cell_length_b   5.69108582
_cell_length_c   5.22909469
_cell_angle_alpha   90.00000071
_cell_angle_beta   90.01573254
_cell_angle_gamma   90.00162463
_symmetry_Int_Tables_number   1
_chemical_formula_structural   Li2CdGeO4
_chemical_formula_sum   'Li4 Cd2 Ge2 O8'
_cell_volume   201.67281902
_cell_formula_units_Z   2
loop_
 _symmetry_equiv_pos_site_id
 _symmetry_equiv_pos_as_xyz
  1  'x, y, z'
loop_
 _atom_site_type_symbol
 _atom_site_label
 _atom_site_symmetry_multiplicity
 _atom_site_fract_x
 _atom_site_fract_y
 _atom_site_fract_z
 _atom_site_occupancy
  Ge  Ge0  1  -0.01673072  0.16859945  0.59274054  1
  Ge  Ge1  1  -0.51668085  0.80610539  0.95541761  1
  Li  Li2  1  -0.27212286  0.31907063  0.04030183  1
  Li  Li3  1  -0.76100554  0.31917200  0.03848068  1
  Li  Li4  1  -0.26850922  0.65783923  0.46947444  1
  Li  Li5  1  -0.76482736  0.65780391  0.46945233  1
  O  O6  1  -0.01685675  0.18801647  0.93610032  1
  O  O7  1  -0.01662854  0.86266192  0.51076613  1
  O  O8  1  -0.72563821  0.65693215  0.08105610  1
  O  O9  1  -0.30768528  0.65702165  0.08109424  1
  O  O10  1  -0.80338015  0.32131850  0.48865469  1
  O  O11  1  -0.22983950  0.32112502  0.48732734  1
  O  O12  1  -0.51672496  0.11349449  0.03175362  1
  O  O13  1  -0.51665414  0.78211984  0.61532695  1
  Cd  Cd14  1  -0.01665333  0.81657542  0.05295800  1
  Cd  Cd15  1  -0.51672133  0.15213748  0.48072245  1
