# generated using pymatgen
data_Li2CdGeO4
_symmetry_space_group_name_H-M   'P 1'
_cell_length_a   6.77144089
_cell_length_b   5.69017085
_cell_length_c   5.22909467
_cell_angle_alpha   90.00000071
_cell_angle_beta   90.01294240
_cell_angle_gamma   90.00198231
_symmetry_Int_Tables_number   1
_chemical_formula_structural   Li2CdGeO4
_chemical_formula_sum   'Li4 Cd2 Ge2 O8'
_cell_volume   201.48044049
_cell_formula_units_Z   2
loop_
 _symmetry_equiv_pos_site_id
 _symmetry_equiv_pos_as_xyz
  1  'x, y, z'
loop_
 _atom_site_type_symbol
 _atom_site_label
 _atom_site_symmetry_multiplicity
 _atom_site_fract_x
 _atom_site_fract_y
 _atom_site_fract_z
 _atom_site_occupancy
  Ge  Ge0  1  -0.01669586  0.16854725  0.58787184  1
  Ge  Ge1  1  -0.51667484  0.80671355  0.95645357  1
  Li  Li2  1  -0.26870270  0.31818974  0.06018673  1
  Li  Li3  1  -0.76448910  0.31824082  0.05916035  1
  Li  Li4  1  -0.26813040  0.65771218  0.46860932  1
  Li  Li5  1  -0.76520316  0.65769604  0.46857080  1
  O  O6  1  -0.01679050  0.19176640  0.93001889  1
  O  O7  1  -0.01663768  0.86139798  0.51075365  1
  O  O8  1  -0.72636717  0.65855909  0.08129530  1
  O  O9  1  -0.30696121  0.65860918  0.08134721  1
  O  O10  1  -0.80495533  0.31827736  0.47180021  1
  O  O11  1  -0.22832601  0.31814173  0.47113828  1
  O  O12  1  -0.51671286  0.11428831  0.03143974  1
  O  O13  1  -0.51665394  0.78072274  0.61600777  1
  Cd  Cd14  1  -0.01666164  0.81910457  0.04921678  1
  Cd  Cd15  1  -0.51669633  0.15202660  0.48775683  1
