# generated using pymatgen
data_Li2CdGeO4
_symmetry_space_group_name_H-M   'P 1'
_cell_length_a   5.22909464
_cell_length_b   5.64205751
_cell_length_c   6.78123108
_cell_angle_alpha   90.00043039
_cell_angle_beta   90.00010796
_cell_angle_gamma   90.00000084
_symmetry_Int_Tables_number   1
_chemical_formula_structural   Li2CdGeO4
_chemical_formula_sum   'Li4 Cd2 Ge2 O8'
_cell_volume   200.06566173
_cell_formula_units_Z   2
loop_
 _symmetry_equiv_pos_site_id
 _symmetry_equiv_pos_as_xyz
  1  'x, y, z'
loop_
 _atom_site_type_symbol
 _atom_site_label
 _atom_site_symmetry_multiplicity
 _atom_site_fract_x
 _atom_site_fract_y
 _atom_site_fract_z
 _atom_site_occupancy
  Ge  Ge0  1  0.58812357  0.17146122  0.01666415  1
  Ge  Ge1  1  0.92938941  0.80492599  0.51666638  1
  Li  Li2  1  0.07686046  0.31471722  0.26447296  1
  Li  Li3  1  0.07686937  0.31470808  0.76885650  1
  Li  Li4  1  0.56922799  0.65384427  0.25389497  1
  Li  Li5  1  0.56921674  0.65385021  0.77945643  1
  O  O6  1  0.92774257  0.18931844  0.01666317  1
  O  O7  1  0.50933186  0.86201872  0.01666796  1
  O  O8  1  0.98828990  0.64470302  0.73711041  1
  O  O9  1  0.98827992  0.64470705  0.29621777  1
  O  O10  1  0.45845359  0.32407796  0.80926264  1
  O  O11  1  0.45845121  0.32408078  0.22406551  1
  O  O12  1  0.01795293  0.11103775  0.51666214  1
  O  O13  1  0.57833594  0.79293070  0.51667126  1
  Cd  Cd14  1  0.08085695  0.81825750  0.01666513  1
  Cd  Cd15  1  0.51424486  0.17535462  0.51666137  1
