# generated using pymatgen
data_Li2CdGeO4
_symmetry_space_group_name_H-M   'P 1'
_cell_length_a   6.76779667
_cell_length_b   5.62362234
_cell_length_c   5.22909464
_cell_angle_alpha   90.00000085
_cell_angle_beta   89.99967481
_cell_angle_gamma   89.99975192
_symmetry_Int_Tables_number   1
_chemical_formula_structural   Li2CdGeO4
_chemical_formula_sum   'Li4 Cd2 Ge2 O8'
_cell_volume   199.01689762
_cell_formula_units_Z   2
loop_
 _symmetry_equiv_pos_site_id
 _symmetry_equiv_pos_as_xyz
  1  'x, y, z'
loop_
 _atom_site_type_symbol
 _atom_site_label
 _atom_site_symmetry_multiplicity
 _atom_site_fract_x
 _atom_site_fract_y
 _atom_site_fract_z
 _atom_site_occupancy
  Ge  Ge0  1  -0.01666656  0.17290734  0.58687232  1
  Ge  Ge1  1  -0.51666648  0.80146419  0.05926572  1
  Li  Li2  1  -0.26340123  0.31503819  0.07978384  1
  Li  Li3  1  -0.76992348  0.31503472  0.07978646  1
  Li  Li4  1  -0.26287857  0.65735069  0.57370862  1
  Li  Li5  1  -0.77046364  0.65737044  0.57369503  1
  O  O6  1  -0.01666444  0.18949626  0.92767241  1
  O  O7  1  -0.01666903  0.86173052  0.50885655  1
  O  O8  1  -0.73475525  0.64756415  0.96910522  1
  O  O9  1  -0.29857472  0.64756333  0.96910330  1
  O  O10  1  -0.80779839  0.32434514  0.45842831  1
  O  O11  1  -0.22553548  0.32434308  0.45842823  1
  O  O12  1  -0.51666342  0.11453571  0.00374568  1
  O  O13  1  -0.51666582  0.78544746  0.45785324  1
  Cd  Cd14  1  -0.01666598  0.81857086  0.08333892  1
  Cd  Cd15  1  -0.51666625  0.16723146  0.54198342  1
