# generated using pymatgen
data_Li2CdGeO4
_symmetry_space_group_name_H-M   'P 1'
_cell_length_a   6.74851780
_cell_length_b   5.61313838
_cell_length_c   5.22909464
_cell_angle_alpha   90.00000085
_cell_angle_beta   89.99964990
_cell_angle_gamma   89.99954373
_symmetry_Int_Tables_number   1
_chemical_formula_structural   Li2CdGeO4
_chemical_formula_sum   'Li4 Cd2 Ge2 O8'
_cell_volume   198.08001007
_cell_formula_units_Z   2
loop_
 _symmetry_equiv_pos_site_id
 _symmetry_equiv_pos_as_xyz
  1  'x, y, z'
loop_
 _atom_site_type_symbol
 _atom_site_label
 _atom_site_symmetry_multiplicity
 _atom_site_fract_x
 _atom_site_fract_y
 _atom_site_fract_z
 _atom_site_occupancy
  Ge  Ge0  1  -0.01666595  0.17284669  0.58720545  1
  Ge  Ge1  1  -0.51666513  0.80098040  0.08062082  1
  Li  Li2  1  -0.26449820  0.31589768  0.07864663  1
  Li  Li3  1  -0.76883334  0.31589070  0.07865159  1
  Li  Li4  1  -0.26399998  0.65758652  0.57670752  1
  Li  Li5  1  -0.76933334  0.65760147  0.57669874  1
  O  O6  1  -0.01666565  0.18992723  0.92757999  1
  O  O7  1  -0.01666887  0.86140833  0.50798281  1
  O  O8  1  -0.73220296  0.65008808  0.96583007  1
  O  O9  1  -0.30112806  0.65008798  0.96582983  1
  O  O10  1  -0.80646749  0.32368336  0.45864063  1
  O  O11  1  -0.22686678  0.32368186  0.45864051  1
  O  O12  1  -0.51666442  0.11295797  0.00103478  1
  O  O13  1  -0.51666579  0.78506867  0.43319473  1
  Cd  Cd14  1  -0.01666597  0.81576686  0.08068285  1
  Cd  Cd15  1  -0.51666679  0.16651973  0.55368034  1
