# generated using pymatgen
data_Li2CdGeO4
_symmetry_space_group_name_H-M   'P 1'
_cell_length_a   6.78161887
_cell_length_b   5.68123380
_cell_length_c   5.22909465
_cell_angle_alpha   90.00000082
_cell_angle_beta   90.00681341
_cell_angle_gamma   90.00088234
_symmetry_Int_Tables_number   1
_chemical_formula_structural   Li2CdGeO4
_chemical_formula_sum   'Li4 Cd2 Ge2 O8'
_cell_volume   201.46636055
_cell_formula_units_Z   2
loop_
 _symmetry_equiv_pos_site_id
 _symmetry_equiv_pos_as_xyz
  1  'x, y, z'
loop_
 _atom_site_type_symbol
 _atom_site_label
 _atom_site_symmetry_multiplicity
 _atom_site_fract_x
 _atom_site_fract_y
 _atom_site_fract_z
 _atom_site_occupancy
  Ge  Ge0  1  -0.01665084  0.16983170  0.58689886  1
  Ge  Ge1  1  -0.51662875  0.80701673  0.93908441  1
  Li  Li2  1  -0.26396605  0.31724753  0.07175429  1
  Li  Li3  1  -0.76942136  0.31731363  0.07178453  1
  Li  Li4  1  -0.25559405  0.65341957  0.54397660  1
  Li  Li5  1  -0.77779484  0.65336053  0.54489127  1
  O  O6  1  -0.01667553  0.19081663  0.92663180  1
  O  O7  1  -0.01663118  0.86197890  0.50966923  1
  O  O8  1  -0.73358874  0.64921934  0.01782861  1
  O  O9  1  -0.29981454  0.64928047  0.01855794  1
  O  O10  1  -0.80887289  0.32115558  0.45946703  1
  O  O11  1  -0.22445192  0.32109542  0.45944797  1
  O  O12  1  -0.51669820  0.11064942  0.03022479  1
  O  O13  1  -0.51657472  0.79257831  0.59380806  1
  Cd  Cd14  1  -0.01662411  0.82159756  0.07244935  1
  Cd  Cd15  1  -0.51667103  0.16343221  0.48515253  1
