# generated using pymatgen
data_Li2CdGeO4
_symmetry_space_group_name_H-M   'P 1'
_cell_length_a   6.78216098
_cell_length_b   5.63286219
_cell_length_c   5.22909464
_cell_angle_alpha   90.00000085
_cell_angle_beta   90.00027363
_cell_angle_gamma   90.00064255
_symmetry_Int_Tables_number   1
_chemical_formula_structural   Li2CdGeO4
_chemical_formula_sum   'Li4 Cd2 Ge2 O8'
_cell_volume   199.76698821
_cell_formula_units_Z   2
loop_
 _symmetry_equiv_pos_site_id
 _symmetry_equiv_pos_as_xyz
  1  'x, y, z'
loop_
 _atom_site_type_symbol
 _atom_site_label
 _atom_site_symmetry_multiplicity
 _atom_site_fract_x
 _atom_site_fract_y
 _atom_site_fract_z
 _atom_site_occupancy
  Ge  Ge0  1  -0.01666923  0.17113255  0.59565205  1
  Ge  Ge1  1  -0.51667194  0.80233219  0.95422701  1
  Li  Li2  1  -0.27468829  0.31925129  0.97033752  1
  Li  Li3  1  -0.75862060  0.31924748  0.97032153  1
  Li  Li4  1  -0.26992122  0.66053654  0.46139593  1
  Li  Li5  1  -0.76339976  0.66051468  0.46139147  1
  O  O6  1  -0.01666158  0.18611980  0.98620770  1
  O  O7  1  -0.01666832  0.86150254  0.52912947  1
  O  O8  1  -0.72481536  0.65046453  0.08293877  1
  O  O9  1  -0.30853101  0.65046597  0.08294404  1
  O  O10  1  -0.79512439  0.33076801  0.56101616  1
  O  O11  1  -0.23821042  0.33077339  0.56101539  1
  O  O12  1  -0.51666658  0.11290521  0.03208190  1
  O  O13  1  -0.51666888  0.78569921  0.61374472  1
  Cd  Cd14  1  -0.01667139  0.80286693  0.01166735  1
  Cd  Cd15  1  -0.51666978  0.15541320  0.45755625  1
