# generated using pymatgen
data_Li2CdGeO4
_symmetry_space_group_name_H-M   'P 1'
_cell_length_a   6.74884387
_cell_length_b   5.61321963
_cell_length_c   5.22909464
_cell_angle_alpha   90.00000085
_cell_angle_beta   90.00014524
_cell_angle_gamma   90.00067245
_symmetry_Int_Tables_number   1
_chemical_formula_structural   Li2CdGeO4
_chemical_formula_sum   'Li4 Cd2 Ge2 O8'
_cell_volume   198.09244774
_cell_formula_units_Z   2
loop_
 _symmetry_equiv_pos_site_id
 _symmetry_equiv_pos_as_xyz
  1  'x, y, z'
loop_
 _atom_site_type_symbol
 _atom_site_label
 _atom_site_symmetry_multiplicity
 _atom_site_fract_x
 _atom_site_fract_y
 _atom_site_fract_z
 _atom_site_occupancy
  Ge  Ge0  1  -0.01666978  0.17406989  0.46097951  1
  Ge  Ge1  1  -0.51666923  0.80211633  0.95423470  1
  Li  Li2  1  -0.26934913  0.31731030  0.96483268  1
  Li  Li3  1  -0.76396463  0.31729980  0.96482379  1
  Li  Li4  1  -0.26886323  0.65917252  0.46276210  1
  Li  Li5  1  -0.76446372  0.65915225  0.46276183  1
  O  O6  1  -0.01666442  0.18991832  0.10808115  1
  O  O7  1  -0.01666810  0.86207438  0.54038684  1
  O  O8  1  -0.72685135  0.65126363  0.08278276  1
  O  O9  1  -0.30649113  0.65126583  0.08278728  1
  O  O10  1  -0.80110024  0.32499325  0.57557756  1
  O  O11  1  -0.23223285  0.32499775  0.57557491  1
  O  O12  1  -0.51666497  0.11354628  0.03347818  1
  O  O13  1  -0.51666807  0.78512138  0.61385456  1
  Cd  Cd14  1  -0.01666973  0.80844426  0.98795980  1
  Cd  Cd15  1  -0.51666817  0.15924737  0.46074962  1
