# generated using pymatgen
data_Li2CdGeO4
_symmetry_space_group_name_H-M   'P 1'
_cell_length_a   5.22909464
_cell_length_b   5.62710472
_cell_length_c   6.77492636
_cell_angle_alpha   89.99932463
_cell_angle_beta   89.99977682
_cell_angle_gamma   90.00000085
_symmetry_Int_Tables_number   1
_chemical_formula_structural   Li2CdGeO4
_chemical_formula_sum   'Li4 Cd2 Ge2 O8'
_cell_volume   199.34992602
_cell_formula_units_Z   2
loop_
 _symmetry_equiv_pos_site_id
 _symmetry_equiv_pos_as_xyz
  1  'x, y, z'
loop_
 _atom_site_type_symbol
 _atom_site_label
 _atom_site_symmetry_multiplicity
 _atom_site_fract_x
 _atom_site_fract_y
 _atom_site_fract_z
 _atom_site_occupancy
  Ge  Ge0  1  0.50956214  0.17258603  0.01666961  1
  Ge  Ge1  1  0.95492508  0.80202766  0.51667097  1
  Li  Li2  1  0.96893469  0.31769517  0.27100420  1
  Li  Li3  1  0.96891933  0.31769105  0.76231526  1
  Li  Li4  1  0.46111402  0.66036040  0.27020899  1
  Li  Li5  1  0.46110927  0.66033910  0.76310888  1
  O  O6  1  0.05823665  0.18917952  0.01666326  1
  O  O7  1  0.53557586  0.85955054  0.01666768  1
  O  O8  1  0.08305559  0.65036268  0.72510062  1
  O  O9  1  0.08306127  0.65036354  0.30824330  1
  O  O10  1  0.57015502  0.32896187  0.79700505  1
  O  O11  1  0.57015384  0.32896790  0.23632993  1
  O  O12  1  0.03239796  0.11318912  0.51666508  1
  O  O13  1  0.61371552  0.78570781  0.51666729  1
  Cd  Cd14  1  0.00360268  0.80754334  0.01667009  1
  Cd  Cd15  1  0.45710837  0.15546780  0.51666855  1
