# generated using pymatgen
data_Li2CdGeO4
_symmetry_space_group_name_H-M   'P 1'
_cell_length_a   6.78108995
_cell_length_b   5.63081273
_cell_length_c   5.22909464
_cell_angle_alpha   90.00000085
_cell_angle_beta   89.99966777
_cell_angle_gamma   89.99975157
_symmetry_Int_Tables_number   1
_chemical_formula_structural   Li2CdGeO4
_chemical_formula_sum   'Li4 Cd2 Ge2 O8'
_cell_volume   199.66276949
_cell_formula_units_Z   2
loop_
 _symmetry_equiv_pos_site_id
 _symmetry_equiv_pos_as_xyz
  1  'x, y, z'
loop_
 _atom_site_type_symbol
 _atom_site_label
 _atom_site_symmetry_multiplicity
 _atom_site_fract_x
 _atom_site_fract_y
 _atom_site_fract_z
 _atom_site_occupancy
  Ge  Ge0  1  -0.01666811  0.17282565  0.58662312  1
  Ge  Ge1  1  -0.51666599  0.80381131  0.97477969  1
  Li  Li2  1  -0.26309763  0.31450883  0.08053465  1
  Li  Li3  1  -0.77023014  0.31450544  0.08053724  1
  Li  Li4  1  -0.26070253  0.65651423  0.57167410  1
  Li  Li5  1  -0.77262642  0.65653840  0.57165737  1
  O  O6  1  -0.01666630  0.18926668  0.92773392  1
  O  O7  1  -0.01666972  0.86188000  0.50933824  1
  O  O8  1  -0.73800984  0.64453467  0.97719144  1
  O  O9  1  -0.29532301  0.64453430  0.97718995  1
  O  O10  1  -0.80850363  0.32465721  0.45843321  1
  O  O11  1  -0.22483269  0.32465460  0.45843266  1
  O  O12  1  -0.51666502  0.11511723  0.01063841  1
  O  O13  1  -0.51666269  0.78726275  0.52902634  1
  Cd  Cd14  1  -0.01666742  0.82006259  0.08470588  1
  Cd  Cd15  1  -0.51666760  0.16931965  0.53313103  1
