# generated using pymatgen
data_Li2CdGeO4
_symmetry_space_group_name_H-M   'P 1'
_cell_length_a   6.78128057
_cell_length_b   5.63086013
_cell_length_c   5.22909464
_cell_angle_alpha   90.00000085
_cell_angle_beta   90.00024957
_cell_angle_gamma   90.00060290
_symmetry_Int_Tables_number   1
_chemical_formula_structural   Li2CdGeO4
_chemical_formula_sum   'Li4 Cd2 Ge2 O8'
_cell_volume   199.67006310
_cell_formula_units_Z   2
loop_
 _symmetry_equiv_pos_site_id
 _symmetry_equiv_pos_as_xyz
  1  'x, y, z'
loop_
 _atom_site_type_symbol
 _atom_site_label
 _atom_site_symmetry_multiplicity
 _atom_site_fract_x
 _atom_site_fract_y
 _atom_site_fract_z
 _atom_site_occupancy
  Ge  Ge0  1  -0.01667294  0.17123533  0.56787369  1
  Ge  Ge1  1  -0.51667171  0.80212906  0.95480664  1
  Li  Li2  1  -0.27267536  0.31837989  0.96985888  1
  Li  Li3  1  -0.76063363  0.31837625  0.96984190  1
  Li  Li4  1  -0.27023092  0.66058172  0.46090489  1
  Li  Li5  1  -0.76308925  0.66056029  0.46089999  1
  O  O6  1  -0.01666130  0.18766869  0.01143391  1
  O  O7  1  -0.01666857  0.85997980  0.53070980  1
  O  O8  1  -0.72484122  0.65029661  0.08298239  1
  O  O9  1  -0.30850501  0.65029757  0.08298786  1
  O  O10  1  -0.79530568  0.33053629  0.56414598  1
  O  O11  1  -0.23802818  0.33054030  0.56414538  1
  O  O12  1  -0.51666591  0.11306285  0.03213715  1
  O  O13  1  -0.51666862  0.78577148  0.61370641  1
  Cd  Cd14  1  -0.01667137  0.80558023  0.00841158  1
  Cd  Cd15  1  -0.51666905  0.15499716  0.45678079  1
