# generated using pymatgen
data_Li2CdGeO4
_symmetry_space_group_name_H-M   'P 1'
_cell_length_a   5.22909464
_cell_length_b   5.66589745
_cell_length_c   6.78162521
_cell_angle_alpha   89.99977922
_cell_angle_beta   89.99964328
_cell_angle_gamma   90.00000084
_symmetry_Int_Tables_number   1
_chemical_formula_structural   Li2CdGeO4
_chemical_formula_sum   'Li4 Cd2 Ge2 O8'
_cell_volume   200.92269550
_cell_formula_units_Z   2
loop_
 _symmetry_equiv_pos_site_id
 _symmetry_equiv_pos_as_xyz
  1  'x, y, z'
loop_
 _atom_site_type_symbol
 _atom_site_label
 _atom_site_symmetry_multiplicity
 _atom_site_fract_x
 _atom_site_fract_y
 _atom_site_fract_z
 _atom_site_occupancy
  Ge  Ge0  1  0.58736634  0.17038908  0.01666550  1
  Ge  Ge1  1  0.93373234  0.80705551  0.51665740  1
  Li  Li2  1  0.07247428  0.31665839  0.26375625  1
  Li  Li3  1  0.07249251  0.31668240  0.76960721  1
  Li  Li4  1  0.56335417  0.65256190  0.25340792  1
  Li  Li5  1  0.56337281  0.65258054  0.77994429  1
  O  O6  1  0.92706716  0.18961706  0.01666807  1
  O  O7  1  0.50980545  0.86190110  0.01666462  1
  O  O8  1  0.00087285  0.64708893  0.73548907  1
  O  O9  1  0.00087114  0.64708915  0.29783734  1
  O  O10  1  0.45889368  0.32307145  0.80946098  1
  O  O11  1  0.45888170  0.32306691  0.22385163  1
  O  O12  1  0.02896225  0.11003716  0.51666497  1
  O  O13  1  0.58756411  0.79470188  0.51666628  1
  Cd  Cd14  1  0.07794721  0.81973051  0.01665988  1
  Cd  Cd15  1  0.48796927  0.16776154  0.51665734  1
