# generated using pymatgen
data_Li2CdGeO4
_symmetry_space_group_name_H-M   'P 1'
_cell_length_a   5.22909464
_cell_length_b   5.63286219
_cell_length_c   6.78216098
_cell_angle_alpha   89.99935745
_cell_angle_beta   89.99972637
_cell_angle_gamma   90.00000085
_symmetry_Int_Tables_number   1
_chemical_formula_structural   Li2CdGeO4
_chemical_formula_sum   'Li4 Cd2 Ge2 O8'
_cell_volume   199.76698821
_cell_formula_units_Z   2
loop_
 _symmetry_equiv_pos_site_id
 _symmetry_equiv_pos_as_xyz
  1  'x, y, z'
loop_
 _atom_site_type_symbol
 _atom_site_label
 _atom_site_symmetry_multiplicity
 _atom_site_fract_x
 _atom_site_fract_y
 _atom_site_fract_z
 _atom_site_occupancy
  Ge  Ge0  1  0.59565205  0.17113255  0.01666923  1
  Ge  Ge1  1  0.95422701  0.80233219  0.51667194  1
  Li  Li2  1  0.97033752  0.31925129  0.27468829  1
  Li  Li3  1  0.97032153  0.31924748  0.75862060  1
  Li  Li4  1  0.46139593  0.66053654  0.26992122  1
  Li  Li5  1  0.46139147  0.66051468  0.76339976  1
  O  O6  1  0.98620770  0.18611980  0.01666158  1
  O  O7  1  0.52912947  0.86150254  0.01666832  1
  O  O8  1  0.08293877  0.65046453  0.72481536  1
  O  O9  1  0.08294404  0.65046597  0.30853101  1
  O  O10  1  0.56101616  0.33076801  0.79512439  1
  O  O11  1  0.56101539  0.33077339  0.23821042  1
  O  O12  1  0.03208190  0.11290521  0.51666658  1
  O  O13  1  0.61374472  0.78569921  0.51666888  1
  Cd  Cd14  1  0.01166735  0.80286693  0.01667139  1
  Cd  Cd15  1  0.45755625  0.15541320  0.51666978  1
