# generated using pymatgen
data_Li2CdGeO4
_symmetry_space_group_name_H-M   'P 1'
_cell_length_a   6.78204413
_cell_length_b   5.63274631
_cell_length_c   5.22909464
_cell_angle_alpha   90.00000085
_cell_angle_beta   89.99966898
_cell_angle_gamma   89.99968310
_symmetry_Int_Tables_number   1
_chemical_formula_structural   Li2CdGeO4
_chemical_formula_sum   'Li4 Cd2 Ge2 O8'
_cell_volume   199.75943682
_cell_formula_units_Z   2
loop_
 _symmetry_equiv_pos_site_id
 _symmetry_equiv_pos_as_xyz
  1  'x, y, z'
loop_
 _atom_site_type_symbol
 _atom_site_label
 _atom_site_symmetry_multiplicity
 _atom_site_fract_x
 _atom_site_fract_y
 _atom_site_fract_z
 _atom_site_occupancy
  Ge  Ge0  1  -0.01666845  0.17263447  0.58718161  1
  Ge  Ge1  1  -0.51666733  0.80391981  0.94699174  1
  Li  Li2  1  -0.26338908  0.31455546  0.08007912  1
  Li  Li3  1  -0.76993999  0.31455196  0.08008183  1
  Li  Li4  1  -0.25875957  0.65567355  0.57121493  1
  Li  Li5  1  -0.77456499  0.65569710  0.57119996  1
  O  O6  1  -0.01666633  0.18933497  0.92769404  1
  O  O7  1  -0.01666933  0.86203366  0.50939814  1
  O  O8  1  -0.73821680  0.64428848  0.98028569  1
  O  O9  1  -0.29511599  0.64428785  0.98028409  1
  O  O10  1  -0.80852579  0.32449655  0.45847865  1
  O  O11  1  -0.22481111  0.32449353  0.45847776  1
  O  O12  1  -0.51666577  0.11364772  0.01223853  1
  O  O13  1  -0.51666268  0.78876084  0.55406299  1
  Cd  Cd14  1  -0.01666791  0.81967543  0.08397763  1
  Cd  Cd15  1  -0.51666763  0.17194212  0.52998057  1
