# generated using pymatgen
data_Li2CdGeO4
_symmetry_space_group_name_H-M   'P 1'
_cell_length_a   6.77209332
_cell_length_b   5.69053027
_cell_length_c   5.22909467
_cell_angle_alpha   90.00000077
_cell_angle_beta   90.01253249
_cell_angle_gamma   90.00107139
_symmetry_Int_Tables_number   1
_chemical_formula_structural   Li2CdGeO4
_chemical_formula_sum   'Li4 Cd2 Ge2 O8'
_cell_volume   201.51258113
_cell_formula_units_Z   2
loop_
 _symmetry_equiv_pos_site_id
 _symmetry_equiv_pos_as_xyz
  1  'x, y, z'
loop_
 _atom_site_type_symbol
 _atom_site_label
 _atom_site_symmetry_multiplicity
 _atom_site_fract_x
 _atom_site_fract_y
 _atom_site_fract_z
 _atom_site_occupancy
  Ge  Ge0  1  -0.01666083  0.16827464  0.58517238  1
  Ge  Ge1  1  -0.51663912  0.80646679  0.95318778  1
  Li  Li2  1  -0.26524062  0.31747953  0.07248622  1
  Li  Li3  1  -0.76818322  0.31751274  0.07251583  1
  Li  Li4  1  -0.26433720  0.65671872  0.48283936  1
  Li  Li5  1  -0.76902633  0.65664038  0.48369969  1
  O  O6  1  -0.01670588  0.19408745  0.92561050  1
  O  O7  1  -0.01659845  0.86072295  0.51005972  1
  O  O8  1  -0.72845013  0.65655353  0.06860207  1
  O  O9  1  -0.30492030  0.65668551  0.06921444  1
  O  O10  1  -0.80700321  0.31654129  0.46039615  1
  O  O11  1  -0.22633675  0.31649157  0.46032864  1
  O  O12  1  -0.51671670  0.11351677  0.03064299  1
  O  O13  1  -0.51653467  0.78345548  0.61097966  1
  Cd  Cd14  1  -0.01663322  0.82296103  0.05440348  1
  Cd  Cd15  1  -0.51667211  0.15588515  0.49148835  1
