# generated using pymatgen
data_Li2CdGeO4
_symmetry_space_group_name_H-M   'P 1'
_cell_length_a   6.78123108
_cell_length_b   5.64205751
_cell_length_c   5.22909464
_cell_angle_alpha   90.00000084
_cell_angle_beta   89.99989204
_cell_angle_gamma   89.99956961
_symmetry_Int_Tables_number   1
_chemical_formula_structural   Li2CdGeO4
_chemical_formula_sum   'Li4 Cd2 Ge2 O8'
_cell_volume   200.06566173
_cell_formula_units_Z   2
loop_
 _symmetry_equiv_pos_site_id
 _symmetry_equiv_pos_as_xyz
  1  'x, y, z'
loop_
 _atom_site_type_symbol
 _atom_site_label
 _atom_site_symmetry_multiplicity
 _atom_site_fract_x
 _atom_site_fract_y
 _atom_site_fract_z
 _atom_site_occupancy
  Ge  Ge0  1  -0.01666415  0.17146122  0.58812357  1
  Ge  Ge1  1  -0.51666638  0.80492599  0.92938941  1
  Li  Li2  1  -0.26447296  0.31471722  0.07686046  1
  Li  Li3  1  -0.76885650  0.31470808  0.07686937  1
  Li  Li4  1  -0.25389497  0.65384427  0.56922799  1
  Li  Li5  1  -0.77945643  0.65385021  0.56921674  1
  O  O6  1  -0.01666317  0.18931844  0.92774257  1
  O  O7  1  -0.01666796  0.86201872  0.50933186  1
  O  O8  1  -0.73711041  0.64470302  0.98828990  1
  O  O9  1  -0.29621777  0.64470705  0.98827992  1
  O  O10  1  -0.80926264  0.32407796  0.45845359  1
  O  O11  1  -0.22406551  0.32408078  0.45845121  1
  O  O12  1  -0.51666214  0.11103775  0.01795293  1
  O  O13  1  -0.51667126  0.79293070  0.57833594  1
  Cd  Cd14  1  -0.01666513  0.81825750  0.08085695  1
  Cd  Cd15  1  -0.51666137  0.17535462  0.51424486  1
