# generated using pymatgen
data_Li2CdGeO4
_symmetry_space_group_name_H-M   'P 1'
_cell_length_a   6.78146995
_cell_length_b   5.66771703
_cell_length_c   5.22909464
_cell_angle_alpha   90.00000084
_cell_angle_beta   89.99989543
_cell_angle_gamma   89.99984102
_symmetry_Int_Tables_number   1
_chemical_formula_structural   Li2CdGeO4
_chemical_formula_sum   'Li4 Cd2 Ge2 O8'
_cell_volume   200.98261988
_cell_formula_units_Z   2
loop_
 _symmetry_equiv_pos_site_id
 _symmetry_equiv_pos_as_xyz
  1  'x, y, z'
loop_
 _atom_site_type_symbol
 _atom_site_label
 _atom_site_symmetry_multiplicity
 _atom_site_fract_x
 _atom_site_fract_y
 _atom_site_fract_z
 _atom_site_occupancy
  Ge  Ge0  1  -0.01666361  0.16796914  0.60728418  1
  Ge  Ge1  1  -0.51666197  0.80458337  0.95415133  1
  Li  Li2  1  -0.27981949  0.32228703  0.97920125  1
  Li  Li3  1  -0.75355333  0.32232271  0.97920955  1
  Li  Li4  1  -0.26958057  0.65838144  0.46913746  1
  Li  Li5  1  -0.76374774  0.65837647  0.46914195  1
  O  O6  1  -0.01667466  0.18032734  0.95335875  1
  O  O7  1  -0.01665671  0.86501377  0.51219222  1
  O  O8  1  -0.72390245  0.65199092  0.08250428  1
  O  O9  1  -0.30941689  0.65199059  0.08249498  1
  O  O10  1  -0.79797199  0.32781240  0.53942028  1
  O  O11  1  -0.23535127  0.32781185  0.53940052  1
  O  O12  1  -0.51667611  0.11300297  0.03169318  1
  O  O13  1  -0.51666170  0.78534448  0.61443798  1
  Cd  Cd14  1  -0.01665836  0.80764504  0.05410902  1
  Cd  Cd15  1  -0.51666189  0.15513403  0.46389034  1
