# generated using pymatgen
data_Li2CdGeO4
_symmetry_space_group_name_H-M   'P 1'
_cell_length_a   5.22909464
_cell_length_b   5.66771703
_cell_length_c   6.78146995
_cell_angle_alpha   90.00015898
_cell_angle_beta   90.00010457
_cell_angle_gamma   90.00000084
_symmetry_Int_Tables_number   1
_chemical_formula_structural   Li2CdGeO4
_chemical_formula_sum   'Li4 Cd2 Ge2 O8'
_cell_volume   200.98261988
_cell_formula_units_Z   2
loop_
 _symmetry_equiv_pos_site_id
 _symmetry_equiv_pos_as_xyz
  1  'x, y, z'
loop_
 _atom_site_type_symbol
 _atom_site_label
 _atom_site_symmetry_multiplicity
 _atom_site_fract_x
 _atom_site_fract_y
 _atom_site_fract_z
 _atom_site_occupancy
  Ge  Ge0  1  0.60728418  0.16796914  0.01666361  1
  Ge  Ge1  1  0.95415133  0.80458337  0.51666197  1
  Li  Li2  1  0.97920125  0.32228703  0.27981949  1
  Li  Li3  1  0.97920955  0.32232271  0.75355333  1
  Li  Li4  1  0.46913746  0.65838144  0.26958057  1
  Li  Li5  1  0.46914195  0.65837647  0.76374774  1
  O  O6  1  0.95335875  0.18032734  0.01667466  1
  O  O7  1  0.51219222  0.86501377  0.01665671  1
  O  O8  1  0.08250428  0.65199092  0.72390245  1
  O  O9  1  0.08249498  0.65199059  0.30941689  1
  O  O10  1  0.53942028  0.32781240  0.79797199  1
  O  O11  1  0.53940052  0.32781185  0.23535127  1
  O  O12  1  0.03169318  0.11300297  0.51667611  1
  O  O13  1  0.61443798  0.78534448  0.51666170  1
  Cd  Cd14  1  0.05410902  0.80764504  0.01665836  1
  Cd  Cd15  1  0.46389034  0.15513403  0.51666189  1
