# generated using pymatgen
data_Li2CdGeO4
_symmetry_space_group_name_H-M   'P 1'
_cell_length_a   6.78030743
_cell_length_b   5.68798585
_cell_length_c   5.22909467
_cell_angle_alpha   90.00000078
_cell_angle_beta   90.01209095
_cell_angle_gamma   90.00101017
_symmetry_Int_Tables_number   1
_chemical_formula_structural   Li2CdGeO4
_chemical_formula_sum   'Li4 Cd2 Ge2 O8'
_cell_volume   201.66679131
_cell_formula_units_Z   2
loop_
 _symmetry_equiv_pos_site_id
 _symmetry_equiv_pos_as_xyz
  1  'x, y, z'
loop_
 _atom_site_type_symbol
 _atom_site_label
 _atom_site_symmetry_multiplicity
 _atom_site_fract_x
 _atom_site_fract_y
 _atom_site_fract_z
 _atom_site_occupancy
  Ge  Ge0  1  -0.01665081  0.16934251  0.58657350  1
  Ge  Ge1  1  -0.51660319  0.80672824  0.94377913  1
  Li  Li2  1  -0.26438294  0.31733218  0.07173401  1
  Li  Li3  1  -0.76903178  0.31740483  0.07177115  1
  Li  Li4  1  -0.25805904  0.65459887  0.52332686  1
  Li  Li5  1  -0.77535765  0.65449172  0.52495971  1
  O  O6  1  -0.01669258  0.19184767  0.92640084  1
  O  O7  1  -0.01659880  0.86180628  0.50965318  1
  O  O8  1  -0.73177788  0.65126214  0.03466956  1
  O  O9  1  -0.30167198  0.65140796  0.03595418  1
  O  O10  1  -0.80833401  0.31954235  0.45996292  1
  O  O11  1  -0.22500464  0.31944617  0.45993249  1
  O  O12  1  -0.51672006  0.11145980  0.03045435  1
  O  O13  1  -0.51648721  0.79003059  0.59934195  1
  Cd  Cd14  1  -0.01660510  0.82248820  0.06696408  1
  Cd  Cd15  1  -0.51668110  0.16080403  0.48614935  1
