# generated using pymatgen
data_LiSi2N3
_symmetry_space_group_name_H-M   'P 1'
_cell_length_a   5.34160570
_cell_length_b   5.34925634
_cell_length_c   5.09192967
_cell_angle_alpha   89.65063426
_cell_angle_beta   91.20378220
_cell_angle_gamma   119.91069822
_symmetry_Int_Tables_number   1
_chemical_formula_structural   LiSi2N3
_chemical_formula_sum   'Li2 Si4 N6'
_cell_volume   126.08602836
_cell_formula_units_Z   2
loop_
 _symmetry_equiv_pos_site_id
 _symmetry_equiv_pos_as_xyz
  1  'x, y, z'
loop_
 _atom_site_type_symbol
 _atom_site_label
 _atom_site_symmetry_multiplicity
 _atom_site_fract_x
 _atom_site_fract_y
 _atom_site_fract_z
 _atom_site_occupancy
  Si  Si0  1  -0.66966912  0.98984827  0.02503893  1
  Si  Si1  1  -0.32199748  0.66755777  0.87216697  1
  Si  Si2  1  -0.32519182  0.99459359  0.44160171  1
  Si  Si3  1  -0.67696789  0.30665407  0.53390753  1
  N  N4  1  -0.00514169  0.70294990  0.97598322  1
  N  N5  1  -0.62252950  0.30783359  0.87935506  1
  N  N6  1  -0.38258548  0.94264037  0.95582904  1
  N  N7  1  -0.99342177  0.27685631  0.43420585  1
  N  N8  1  -0.61264822  0.05139466  0.37914816  1
  N  N9  1  -0.37581256  0.65889187  0.51198012  1
  Li  Li10  1  -0.99751977  0.32504498  0.00147407  1
  Li  Li11  1  -0.01647469  0.64237612  0.39494053  1
