# generated using pymatgen
data_LiSi2N3
_symmetry_space_group_name_H-M   'P 1'
_cell_length_a   5.30353426
_cell_length_b   5.36614489
_cell_length_c   4.99984865
_cell_angle_alpha   89.92970899
_cell_angle_beta   90.62523690
_cell_angle_gamma   119.87069830
_symmetry_Int_Tables_number   1
_chemical_formula_structural   LiSi2N3
_chemical_formula_sum   'Li2 Si4 N6'
_cell_volume   123.38110978
_cell_formula_units_Z   2
loop_
 _symmetry_equiv_pos_site_id
 _symmetry_equiv_pos_as_xyz
  1  'x, y, z'
loop_
 _atom_site_type_symbol
 _atom_site_label
 _atom_site_symmetry_multiplicity
 _atom_site_fract_x
 _atom_site_fract_y
 _atom_site_fract_z
 _atom_site_occupancy
  Si  Si0  1  -0.66305807  0.99526259  0.02591414  1
  Si  Si1  1  -0.31836386  0.65932946  0.86519731  1
  Si  Si2  1  -0.33368549  0.99968139  0.52521803  1
  Si  Si3  1  -0.67988296  0.30783791  0.52567289  1
  N  N4  1  -0.99866660  0.70584132  0.97401947  1
  N  N5  1  -0.62341978  0.31012407  0.88240711  1
  N  N6  1  -0.38233312  0.95506555  0.88701114  1
  N  N7  1  -0.00319681  0.26778174  0.43260161  1
  N  N8  1  -0.60766069  0.04826563  0.37882561  1
  N  N9  1  -0.37567605  0.65446817  0.49777803  1
  Li  Li10  1  -0.99883783  0.32189712  0.01603569  1
  Li  Li11  1  -0.01517970  0.64108606  0.39500966  1
