# generated using pymatgen
data_LiSi2N3
_symmetry_space_group_name_H-M   'P 1'
_cell_length_a   5.29032896
_cell_length_b   5.35795609
_cell_length_c   5.05493744
_cell_angle_alpha   89.75151502
_cell_angle_beta   90.64491672
_cell_angle_gamma   119.90525587
_symmetry_Int_Tables_number   1
_chemical_formula_structural   LiSi2N3
_chemical_formula_sum   'Li2 Si4 N6'
_cell_volume   124.19785482
_cell_formula_units_Z   2
loop_
 _symmetry_equiv_pos_site_id
 _symmetry_equiv_pos_as_xyz
  1  'x, y, z'
loop_
 _atom_site_type_symbol
 _atom_site_label
 _atom_site_symmetry_multiplicity
 _atom_site_fract_x
 _atom_site_fract_y
 _atom_site_fract_z
 _atom_site_occupancy
  Si  Si0  1  -0.66286156  0.99544873  0.02645430  1
  Si  Si1  1  -0.31830364  0.65909027  0.86383248  1
  Si  Si2  1  -0.33355370  0.00036643  0.52608464  1
  Si  Si3  1  -0.67927472  0.30761894  0.52640447  1
  N  N4  1  -0.99990449  0.70511591  0.97745540  1
  N  N5  1  -0.62457568  0.30889705  0.88034518  1
  N  N6  1  -0.38283445  0.95520878  0.88508577  1
  N  N7  1  -0.00241610  0.26881847  0.43257599  1
  N  N8  1  -0.60686172  0.04908653  0.37705356  1
  N  N9  1  -0.37381162  0.65529702  0.50102263  1
  Li  Li10  1  -0.99911560  0.32080565  0.01814965  1
  Li  Li11  1  -0.01644672  0.64088773  0.39116712  1
