# generated using pymatgen
data_LiSi2N3
_symmetry_space_group_name_H-M   'P 1'
_cell_length_a   5.30316684
_cell_length_b   5.36484176
_cell_length_c   5.00397689
_cell_angle_alpha   90.00820336
_cell_angle_beta   90.61734091
_cell_angle_gamma   119.87208161
_symmetry_Int_Tables_number   1
_chemical_formula_structural   LiSi2N3
_chemical_formula_sum   'Li2 Si4 N6'
_cell_volume   123.44187706
_cell_formula_units_Z   2
loop_
 _symmetry_equiv_pos_site_id
 _symmetry_equiv_pos_as_xyz
  1  'x, y, z'
loop_
 _atom_site_type_symbol
 _atom_site_label
 _atom_site_symmetry_multiplicity
 _atom_site_fract_x
 _atom_site_fract_y
 _atom_site_fract_z
 _atom_site_occupancy
  Si  Si0  1  -0.66295980  0.99546887  0.02589558  1
  Si  Si1  1  -0.31828667  0.65947048  0.86506165  1
  Si  Si2  1  -0.33373189  0.99959658  0.52529256  1
  Si  Si3  1  -0.67999230  0.30764898  0.52581196  1
  N  N4  1  -0.99868596  0.70592768  0.97409745  1
  N  N5  1  -0.62343426  0.31021160  0.88235863  1
  N  N6  1  -0.38225664  0.95533059  0.88683571  1
  N  N7  1  -0.00328305  0.26760602  0.43262526  1
  N  N8  1  -0.60763808  0.04812658  0.37871435  1
  N  N9  1  -0.37569779  0.65425065  0.49799655  1
  Li  Li10  1  -0.99875698  0.32194816  0.01623492  1
  Li  Li11  1  -0.01523659  0.64105531  0.39469823  1
