# generated using pymatgen
data_LiSi2N3
_symmetry_space_group_name_H-M   'P 1'
_cell_length_a   5.29831059
_cell_length_b   5.36403023
_cell_length_c   5.01944890
_cell_angle_alpha   89.79700929
_cell_angle_beta   90.61443809
_cell_angle_gamma   119.89218242
_symmetry_Int_Tables_number   1
_chemical_formula_structural   LiSi2N3
_chemical_formula_sum   'Li2 Si4 N6'
_cell_volume   123.66881489
_cell_formula_units_Z   2
loop_
 _symmetry_equiv_pos_site_id
 _symmetry_equiv_pos_as_xyz
  1  'x, y, z'
loop_
 _atom_site_type_symbol
 _atom_site_label
 _atom_site_symmetry_multiplicity
 _atom_site_fract_x
 _atom_site_fract_y
 _atom_site_fract_z
 _atom_site_occupancy
  Si  Si0  1  -0.66306580  0.99518258  0.02603092  1
  Si  Si1  1  -0.31838834  0.65914215  0.86454665  1
  Si  Si2  1  -0.33358765  0.00003348  0.52534884  1
  Si  Si3  1  -0.67951962  0.30789890  0.52573474  1
  N  N4  1  -0.99919136  0.70547192  0.97523036  1
  N  N5  1  -0.62390312  0.30952991  0.88143369  1
  N  N6  1  -0.38258268  0.95493242  0.88617983  1
  N  N7  1  -0.00272393  0.26839686  0.43238499  1
  N  N8  1  -0.60733125  0.04869938  0.37802631  1
  N  N9  1  -0.37483743  0.65501827  0.49879512  1
  Li  Li10  1  -0.99901116  0.32143859  0.01657851  1
  Li  Li11  1  -0.01561615  0.64100120  0.39353650  1
