# generated using pymatgen
data_LiSi2N3
_symmetry_space_group_name_H-M   'P 1'
_cell_length_a   5.29700798
_cell_length_b   5.36254539
_cell_length_c   5.02556468
_cell_angle_alpha   89.83495740
_cell_angle_beta   90.60977955
_cell_angle_gamma   119.88936934
_symmetry_Int_Tables_number   1
_chemical_formula_structural   LiSi2N3
_chemical_formula_sum   'Li2 Si4 N6'
_cell_volume   123.75817115
_cell_formula_units_Z   2
loop_
 _symmetry_equiv_pos_site_id
 _symmetry_equiv_pos_as_xyz
  1  'x, y, z'
loop_
 _atom_site_type_symbol
 _atom_site_label
 _atom_site_symmetry_multiplicity
 _atom_site_fract_x
 _atom_site_fract_y
 _atom_site_fract_z
 _atom_site_occupancy
  Si  Si0  1  -0.66301110  0.99531748  0.02617715  1
  Si  Si1  1  -0.31834941  0.65919678  0.86449566  1
  Si  Si2  1  -0.33361216  0.00002137  0.52557599  1
  Si  Si3  1  -0.67955583  0.30777146  0.52599566  1
  N  N4  1  -0.99929054  0.70548067  0.97565036  1
  N  N5  1  -0.62399907  0.30950643  0.88139402  1
  N  N6  1  -0.38257513  0.95510412  0.88606554  1
  N  N7  1  -0.00274749  0.26834766  0.43252898  1
  N  N8  1  -0.60727541  0.04866244  0.37796118  1
  N  N9  1  -0.37473942  0.65492180  0.49927273  1
  Li  Li10  1  -0.99900865  0.32136599  0.01699563  1
  Li  Li11  1  -0.01576198  0.64096258  0.39314582  1
