# generated using pymatgen
data_LiSi2N3
_symmetry_space_group_name_H-M   'P 1'
_cell_length_a   5.33762463
_cell_length_b   5.28776302
_cell_length_c   5.22873067
_cell_angle_alpha   89.73985312
_cell_angle_beta   91.39425961
_cell_angle_gamma   119.75938993
_symmetry_Int_Tables_number   1
_chemical_formula_structural   LiSi2N3
_chemical_formula_sum   'Li2 Si4 N6'
_cell_volume   128.07070728
_cell_formula_units_Z   2
loop_
 _symmetry_equiv_pos_site_id
 _symmetry_equiv_pos_as_xyz
  1  'x, y, z'
loop_
 _atom_site_type_symbol
 _atom_site_label
 _atom_site_symmetry_multiplicity
 _atom_site_fract_x
 _atom_site_fract_y
 _atom_site_fract_z
 _atom_site_occupancy
  Si  Si0  1  -0.68232079  0.98744704  0.01980457  1
  Si  Si1  1  -0.32611490  0.66672169  0.85644358  1
  Si  Si2  1  -0.32466884  0.98571091  0.35520188  1
  Si  Si3  1  -0.68076358  0.30866662  0.51889021  1
  N  N4  1  -0.00035145  0.70186355  0.92423273  1
  N  N5  1  -0.61909962  0.30103318  0.85675833  1
  N  N6  1  -0.39234876  0.91158280  0.02027306  1
  N  N7  1  -0.99702431  0.27680259  0.41734478  1
  N  N8  1  -0.61621138  0.05954657  0.35723579  1
  N  N9  1  -0.38948985  0.67481282  0.52059683  1
  Li  Li10  1  -0.98365226  0.33820009  0.99320478  1
  Li  Li11  1  -0.98904823  0.65372702  0.48296769  1
