# generated using pymatgen
data_LiSi2N3
_symmetry_space_group_name_H-M   'P 1'
_cell_length_a   5.34174940
_cell_length_b   5.34714676
_cell_length_c   4.84823665
_cell_angle_alpha   90.00380295
_cell_angle_beta   90.17444133
_cell_angle_gamma   119.78787607
_symmetry_Int_Tables_number   1
_chemical_formula_structural   LiSi2N3
_chemical_formula_sum   'Li2 Si4 N6'
_cell_volume   120.18261982
_cell_formula_units_Z   2
loop_
 _symmetry_equiv_pos_site_id
 _symmetry_equiv_pos_as_xyz
  1  'x, y, z'
loop_
 _atom_site_type_symbol
 _atom_site_label
 _atom_site_symmetry_multiplicity
 _atom_site_fract_x
 _atom_site_fract_y
 _atom_site_fract_z
 _atom_site_occupancy
  Si  Si0  1  -0.66640996  0.99314967  0.01714157  1
  Si  Si1  1  -0.33005432  0.65977711  0.99906850  1
  Si  Si2  1  -0.33290747  0.98692442  0.51454836  1
  Si  Si3  1  -0.67089308  0.31865979  0.51423090  1
  N  N4  1  -0.99618533  0.71064665  0.94210759  1
  N  N5  1  -0.60966646  0.32369277  0.87659016  1
  N  N6  1  -0.39025130  0.93789890  0.87788758  1
  N  N7  1  -0.00275411  0.26289457  0.43329430  1
  N  N8  1  -0.60535706  0.04862232  0.37699476  1
  N  N9  1  -0.39265232  0.65164960  0.38572176  1
  Li  Li10  1  -0.99984039  0.32607742  0.00703464  1
  Li  Li11  1  -0.00298820  0.64664829  0.46100273  1
