# generated using pymatgen
data_LiSi2N3
_symmetry_space_group_name_H-M   'P 1'
_cell_length_a   5.01033210
_cell_length_b   5.36411332
_cell_length_c   5.30116391
_cell_angle_alpha   60.12722602
_cell_angle_beta   89.38266744
_cell_angle_gamma   89.95004516
_symmetry_Int_Tables_number   1
_chemical_formula_structural   LiSi2N3
_chemical_formula_sum   'Li2 Si4 N6'
_cell_volume   123.53517167
_cell_formula_units_Z   2
loop_
 _symmetry_equiv_pos_site_id
 _symmetry_equiv_pos_as_xyz
  1  'x, y, z'
loop_
 _atom_site_type_symbol
 _atom_site_label
 _atom_site_symmetry_multiplicity
 _atom_site_fract_x
 _atom_site_fract_y
 _atom_site_fract_z
 _atom_site_occupancy
  Si  Si0  1  0.02600481  0.99541065  0.66298146  1
  Si  Si1  1  0.86491208  0.65936876  0.31831010  1
  Si  Si2  1  0.52540145  0.99973626  0.33368598  1
  Si  Si3  1  0.52588198  0.30770544  0.67985058  1
  N  N4  1  0.97460985  0.70579143  0.99885879  1
  N  N5  1  0.88208420  0.30999676  0.62360187  1
  N  N6  1  0.88662940  0.95524708  0.38235400  1
  N  N7  1  0.43261824  0.26783963  0.00312619  1
  N  N8  1  0.37850601  0.04830395  0.60752760  1
  N  N9  1  0.49840115  0.65446337  0.37540632  1
  Li  Li10  1  0.01649836  0.32174805  0.99884694  1
  Li  Li11  1  0.39420570  0.64103053  0.01540915  1
