# generated using pymatgen
data_LiSi2N3
_symmetry_space_group_name_H-M   'P 1'
_cell_length_a   5.30481529
_cell_length_b   5.36842123
_cell_length_c   4.99168466
_cell_angle_alpha   89.86044043
_cell_angle_beta   90.60035520
_cell_angle_gamma   119.87881268
_symmetry_Int_Tables_number   1
_chemical_formula_structural   LiSi2N3
_chemical_formula_sum   'Li2 Si4 N6'
_cell_volume   123.25302742
_cell_formula_units_Z   2
loop_
 _symmetry_equiv_pos_site_id
 _symmetry_equiv_pos_as_xyz
  1  'x, y, z'
loop_
 _atom_site_type_symbol
 _atom_site_label
 _atom_site_symmetry_multiplicity
 _atom_site_fract_x
 _atom_site_fract_y
 _atom_site_fract_z
 _atom_site_occupancy
  Si  Si0  1  -0.66322536  0.99501424  0.02588115  1
  Si  Si1  1  -0.31846856  0.65921055  0.86539445  1
  Si  Si2  1  -0.33364525  0.99971668  0.52500254  1
  Si  Si3  1  -0.67977580  0.30805566  0.52544907  1
  N  N4  1  -0.99864053  0.70578217  0.97365537  1
  N  N5  1  -0.62337802  0.31007494  0.88256908  1
  N  N6  1  -0.38239912  0.95476529  0.88727881  1
  N  N7  1  -0.00305350  0.26796785  0.43251968  1
  N  N8  1  -0.60772813  0.04833178  0.37904319  1
  N  N9  1  -0.37570798  0.65468809  0.49727766  1
  Li  Li10  1  -0.99893157  0.32194505  0.01559421  1
  Li  Li11  1  -0.01498262  0.64110132  0.39567148  1
