# generated using pymatgen
data_LiSi2N3
_symmetry_space_group_name_H-M   'P 1'
_cell_length_a   5.36341798
_cell_length_b   5.31416929
_cell_length_c   5.15329568
_cell_angle_alpha   89.74592707
_cell_angle_beta   91.35771977
_cell_angle_gamma   119.99704315
_symmetry_Int_Tables_number   1
_chemical_formula_structural   LiSi2N3
_chemical_formula_sum   'Li2 Si4 N6'
_cell_volume   127.16506017
_cell_formula_units_Z   2
loop_
 _symmetry_equiv_pos_site_id
 _symmetry_equiv_pos_as_xyz
  1  'x, y, z'
loop_
 _atom_site_type_symbol
 _atom_site_label
 _atom_site_symmetry_multiplicity
 _atom_site_fract_x
 _atom_site_fract_y
 _atom_site_fract_z
 _atom_site_occupancy
  Si  Si0  1  -0.67969844  0.99026337  0.03363188  1
  Si  Si1  1  -0.32372328  0.66721831  0.87088972  1
  Si  Si2  1  -0.32024902  0.98753935  0.36739489  1
  Si  Si3  1  -0.67622933  0.31057142  0.53012289  1
  N  N4  1  -0.00750021  0.70108035  0.97045743  1
  N  N5  1  -0.61853790  0.30270463  0.87143536  1
  N  N6  1  -0.39256224  0.91445584  0.02713989  1
  N  N7  1  -0.99249539  0.27671404  0.43071993  1
  N  N8  1  -0.60738329  0.06334931  0.37387016  1
  N  N9  1  -0.38140093  0.67508264  0.52957509  1
  Li  Li10  1  -0.98776016  0.33411502  0.98474520  1
  Li  Li11  1  -0.01241981  0.64354723  0.41564875  1
