# generated using pymatgen
data_LiSi2N3
_symmetry_space_group_name_H-M   'P 1'
_cell_length_a   5.15329568
_cell_length_b   5.31416929
_cell_length_c   5.36341798
_cell_angle_alpha   60.00295685
_cell_angle_beta   88.64228023
_cell_angle_gamma   89.74592707
_symmetry_Int_Tables_number   1
_chemical_formula_structural   LiSi2N3
_chemical_formula_sum   'Li2 Si4 N6'
_cell_volume   127.16506017
_cell_formula_units_Z   2
loop_
 _symmetry_equiv_pos_site_id
 _symmetry_equiv_pos_as_xyz
  1  'x, y, z'
loop_
 _atom_site_type_symbol
 _atom_site_label
 _atom_site_symmetry_multiplicity
 _atom_site_fract_x
 _atom_site_fract_y
 _atom_site_fract_z
 _atom_site_occupancy
  Si  Si0  1  0.03363188  0.99026337  0.67969844  1
  Si  Si1  1  0.87088972  0.66721831  0.32372328  1
  Si  Si2  1  0.36739489  0.98753935  0.32024902  1
  Si  Si3  1  0.53012289  0.31057142  0.67622933  1
  N  N4  1  0.97045743  0.70108035  0.00750021  1
  N  N5  1  0.87143536  0.30270463  0.61853790  1
  N  N6  1  0.02713989  0.91445584  0.39256224  1
  N  N7  1  0.43071993  0.27671404  0.99249539  1
  N  N8  1  0.37387016  0.06334931  0.60738329  1
  N  N9  1  0.52957509  0.67508264  0.38140093  1
  Li  Li10  1  0.98474520  0.33411502  0.98776016  1
  Li  Li11  1  0.41564875  0.64354723  0.01241981  1
