# generated using pymatgen
data_LiSi2N3
_symmetry_space_group_name_H-M   'P 1'
_cell_length_a   5.07190489
_cell_length_b   5.35522287
_cell_length_c   5.28910299
_cell_angle_alpha   60.07604296
_cell_angle_beta   89.29026430
_cell_angle_gamma   89.67679089
_symmetry_Int_Tables_number   1
_chemical_formula_structural   LiSi2N3
_chemical_formula_sum   'Li2 Si4 N6'
_cell_volume   124.49736917
_cell_formula_units_Z   2
loop_
 _symmetry_equiv_pos_site_id
 _symmetry_equiv_pos_as_xyz
  1  'x, y, z'
loop_
 _atom_site_type_symbol
 _atom_site_label
 _atom_site_symmetry_multiplicity
 _atom_site_fract_x
 _atom_site_fract_y
 _atom_site_fract_z
 _atom_site_occupancy
  Si  Si0  1  0.02657764  0.99538912  0.66283094  1
  Si  Si1  1  0.86367311  0.65908093  0.31837644  1
  Si  Si2  1  0.52610463  0.00057202  0.33342239  1
  Si  Si3  1  0.52664805  0.30748070  0.67907046  1
  N  N4  1  0.97843484  0.70491153  0.00034367  1
  N  N5  1  0.87975211  0.30850845  0.62484762  1
  N  N6  1  0.88479979  0.95515318  0.38309014  1
  N  N7  1  0.43263186  0.26907929  0.00212106  1
  N  N8  1  0.37654999  0.04936175  0.60659294  1
  N  N9  1  0.50211757  0.65550936  0.37332878  1
  Li  Li10  1  0.01797555  0.32071334  0.99908008  1
  Li  Li11  1  0.39036605  0.64088185  0.01685548  1
