# generated using pymatgen
data_LiSi2N3
_symmetry_space_group_name_H-M   'P 1'
_cell_length_a   5.34842921
_cell_length_b   5.32784244
_cell_length_c   4.83736068
_cell_angle_alpha   89.99922240
_cell_angle_beta   89.98407845
_cell_angle_gamma   119.86898421
_symmetry_Int_Tables_number   1
_chemical_formula_structural   LiSi2N3
_chemical_formula_sum   'Li2 Si4 N6'
_cell_volume   119.53320030
_cell_formula_units_Z   2
loop_
 _symmetry_equiv_pos_site_id
 _symmetry_equiv_pos_as_xyz
  1  'x, y, z'
loop_
 _atom_site_type_symbol
 _atom_site_label
 _atom_site_symmetry_multiplicity
 _atom_site_fract_x
 _atom_site_fract_y
 _atom_site_fract_z
 _atom_site_occupancy
  Si  Si0  1  -0.66799789  0.99184691  0.01191111  1
  Si  Si1  1  -0.33200225  0.65983401  0.01184717  1
  Si  Si2  1  -0.33200819  0.98592215  0.51188373  1
  Si  Si3  1  -0.66802241  0.31792622  0.51191825  1
  N  N4  1  -0.99995899  0.71526645  0.93396057  1
  N  N5  1  -0.60261550  0.32660131  0.87229467  1
  N  N6  1  -0.39735527  0.92922635  0.87229383  1
  N  N7  1  -0.99999801  0.26245229  0.43386863  1
  N  N8  1  -0.60257604  0.04859961  0.37228883  1
  N  N9  1  -0.39741951  0.65117338  0.37228622  1
  Li  Li10  1  -0.00000009  0.32911143  0.00041338  1
  Li  Li11  1  -0.00003120  0.64866940  0.49979306  1
