# generated using pymatgen
data_LiSi2N3
_symmetry_space_group_name_H-M   'P 1'
_cell_length_a   5.04224679
_cell_length_b   5.35978701
_cell_length_c   5.29321018
_cell_angle_alpha   60.10514763
_cell_angle_beta   89.37654557
_cell_angle_gamma   89.80632984
_symmetry_Int_Tables_number   1
_chemical_formula_structural   LiSi2N3
_chemical_formula_sum   'Li2 Si4 N6'
_cell_volume   124.00912968
_cell_formula_units_Z   2
loop_
 _symmetry_equiv_pos_site_id
 _symmetry_equiv_pos_as_xyz
  1  'x, y, z'
loop_
 _atom_site_type_symbol
 _atom_site_label
 _atom_site_symmetry_multiplicity
 _atom_site_fract_x
 _atom_site_fract_y
 _atom_site_fract_z
 _atom_site_occupancy
  Si  Si0  1  0.02634383  0.99543030  0.66291822  1
  Si  Si1  1  0.86411799  0.65916162  0.31831025  1
  Si  Si2  1  0.52588098  0.00018835  0.33358960  1
  Si  Si3  1  0.52626623  0.30765675  0.67942502  1
  N  N4  1  0.97666107  0.70531075  0.99962128  1
  N  N5  1  0.88083441  0.30919971  0.62431068  1
  N  N6  1  0.88551424  0.95521469  0.38269670  1
  N  N7  1  0.43257707  0.26856363  0.00258893  1
  N  N8  1  0.37746321  0.04886006  0.60705012  1
  N  N9  1  0.50027767  0.65507556  0.37424725  1
  Li  Li10  1  0.01768018  0.32106529  0.99906300  1
  Li  Li11  1  0.39201458  0.64091479  0.01613897  1
