# generated using pymatgen
data_LiSi2N3
_symmetry_space_group_name_H-M   'P 1'
_cell_length_a   5.36600908
_cell_length_b   5.32662391
_cell_length_c   5.11323956
_cell_angle_alpha   89.64885024
_cell_angle_beta   91.24715021
_cell_angle_gamma   120.00144571
_symmetry_Int_Tables_number   1
_chemical_formula_structural   LiSi2N3
_chemical_formula_sum   'Li2 Si4 N6'
_cell_volume   126.53609947
_cell_formula_units_Z   2
loop_
 _symmetry_equiv_pos_site_id
 _symmetry_equiv_pos_as_xyz
  1  'x, y, z'
loop_
 _atom_site_type_symbol
 _atom_site_label
 _atom_site_symmetry_multiplicity
 _atom_site_fract_x
 _atom_site_fract_y
 _atom_site_fract_z
 _atom_site_occupancy
  Si  Si0  1  -0.67966112  0.99030306  0.03350982  1
  Si  Si1  1  -0.32357854  0.66749652  0.87096864  1
  Si  Si2  1  -0.32019569  0.98755619  0.36766424  1
  Si  Si3  1  -0.67629179  0.31032336  0.53016245  1
  N  N4  1  -0.00676793  0.70195447  0.96900227  1
  N  N5  1  -0.61825976  0.30413517  0.87383146  1
  N  N6  1  -0.39167263  0.91628620  0.02498917  1
  N  N7  1  -0.99324383  0.27586138  0.43267180  1
  N  N8  1  -0.60813991  0.06163672  0.37607544  1
  N  N9  1  -0.38157066  0.67367016  0.52727188  1
  Li  Li10  1  -0.98916097  0.33428261  0.98084344  1
  Li  Li11  1  -0.01141717  0.64313566  0.41864059  1
