# generated using pymatgen
data_LiSi2N3
_symmetry_space_group_name_H-M   'P 1'
_cell_length_a   4.86577062
_cell_length_b   5.37110632
_cell_length_c   5.35013323
_cell_angle_alpha   60.21304390
_cell_angle_beta   89.55270381
_cell_angle_gamma   89.99429392
_symmetry_Int_Tables_number   1
_chemical_formula_structural   LiSi2N3
_chemical_formula_sum   'Li2 Si4 N6'
_cell_volume   121.34491807
_cell_formula_units_Z   2
loop_
 _symmetry_equiv_pos_site_id
 _symmetry_equiv_pos_as_xyz
  1  'x, y, z'
loop_
 _atom_site_type_symbol
 _atom_site_label
 _atom_site_symmetry_multiplicity
 _atom_site_fract_x
 _atom_site_fract_y
 _atom_site_fract_z
 _atom_site_occupancy
  Si  Si0  1  0.02257093  0.99405551  0.66488565  1
  Si  Si1  1  0.91866903  0.65988042  0.32331615  1
  Si  Si2  1  0.51582752  0.99058519  0.33454272  1
  Si  Si3  1  0.51645493  0.31533424  0.67613938  1
  N  N4  1  0.94735363  0.70872296  0.99225050  1
  N  N5  1  0.88180205  0.31556495  0.61865581  1
  N  N6  1  0.88493716  0.94861239  0.38622643  1
  N  N7  1  0.43297262  0.26349162  0.00498559  1
  N  N8  1  0.37978032  0.04740306  0.60856819  1
  N  N9  1  0.44564255  0.65188437  0.38646406  1
  Li  Li10  1  0.01009926  0.32521418  0.00010113  1
  Li  Li11  1  0.44951283  0.64589261  0.00382442  1
