# generated using pymatgen
data_LiSi2N3
_symmetry_space_group_name_H-M   'P 1'
_cell_length_a   5.29957821
_cell_length_b   5.36445991
_cell_length_c   5.01419923
_cell_angle_alpha   89.85645774
_cell_angle_beta   90.59544995
_cell_angle_gamma   119.88840802
_symmetry_Int_Tables_number   1
_chemical_formula_structural   LiSi2N3
_chemical_formula_sum   'Li2 Si4 N6'
_cell_volume   123.58372019
_cell_formula_units_Z   2
loop_
 _symmetry_equiv_pos_site_id
 _symmetry_equiv_pos_as_xyz
  1  'x, y, z'
loop_
 _atom_site_type_symbol
 _atom_site_label
 _atom_site_symmetry_multiplicity
 _atom_site_fract_x
 _atom_site_fract_y
 _atom_site_fract_z
 _atom_site_occupancy
  Si  Si0  1  -0.66308418  0.99523854  0.02607314  1
  Si  Si1  1  -0.31838141  0.65922426  0.86477053  1
  Si  Si2  1  -0.33362439  0.99990641  0.52537064  1
  Si  Si3  1  -0.67963739  0.30784823  0.52582204  1
  N  N4  1  -0.99908723  0.70558910  0.97497891  1
  N  N5  1  -0.62380160  0.30970671  0.88178908  1
  N  N6  1  -0.38249854  0.95502848  0.88644946  1
  N  N7  1  -0.00283487  0.26821672  0.43250511  1
  N  N8  1  -0.60742410  0.04852296  0.37831551  1
  N  N9  1  -0.37505439  0.65482397  0.49860050  1
  Li  Li10  1  -0.99897793  0.32157229  0.01653873  1
  Li  Li11  1  -0.01550116  0.64099061  0.39393951  1
