# generated using pymatgen
data_LiSi2N3
_symmetry_space_group_name_H-M   'P 1'
_cell_length_a   5.30527433
_cell_length_b   5.36769978
_cell_length_c   4.99198835
_cell_angle_alpha   89.91426257
_cell_angle_beta   90.62630350
_cell_angle_gamma   119.87002808
_symmetry_Int_Tables_number   1
_chemical_formula_structural   LiSi2N3
_chemical_formula_sum   'Li2 Si4 N6'
_cell_volume   123.26424225
_cell_formula_units_Z   2
loop_
 _symmetry_equiv_pos_site_id
 _symmetry_equiv_pos_as_xyz
  1  'x, y, z'
loop_
 _atom_site_type_symbol
 _atom_site_label
 _atom_site_symmetry_multiplicity
 _atom_site_fract_x
 _atom_site_fract_y
 _atom_site_fract_z
 _atom_site_occupancy
  Si  Si0  1  -0.66312506  0.99514803  0.02584562  1
  Si  Si1  1  -0.31840855  0.65929935  0.86540920  1
  Si  Si2  1  -0.33368188  0.99964017  0.52507150  1
  Si  Si3  1  -0.67989915  0.30794009  0.52551293  1
  N  N4  1  -0.99853582  0.70587767  0.97357572  1
  N  N5  1  -0.62329202  0.31021352  0.88264665  1
  N  N6  1  -0.38232218  0.95492614  0.88729172  1
  N  N7  1  -0.00323281  0.26775100  0.43258535  1
  N  N8  1  -0.60775662  0.04823449  0.37906418  1
  N  N9  1  -0.37586423  0.65447922  0.49730660  1
  Li  Li10  1  -0.99883958  0.32200809  0.01567958  1
  Li  Li11  1  -0.01500178  0.64112400  0.39561911  1
