# generated using pymatgen
data_LiSi2N3
_symmetry_space_group_name_H-M   'P 1'
_cell_length_a   5.30660820
_cell_length_b   5.36930131
_cell_length_c   4.98505838
_cell_angle_alpha   89.88207852
_cell_angle_beta   90.61649314
_cell_angle_gamma   119.87227384
_symmetry_Int_Tables_number   1
_chemical_formula_structural   LiSi2N3
_chemical_formula_sum   'Li2 Si4 N6'
_cell_volume   123.15864864
_cell_formula_units_Z   2
loop_
 _symmetry_equiv_pos_site_id
 _symmetry_equiv_pos_as_xyz
  1  'x, y, z'
loop_
 _atom_site_type_symbol
 _atom_site_label
 _atom_site_symmetry_multiplicity
 _atom_site_fract_x
 _atom_site_fract_y
 _atom_site_fract_z
 _atom_site_occupancy
  Si  Si0  1  -0.66322238  0.99499928  0.02580054  1
  Si  Si1  1  -0.31846998  0.65924023  0.86559192  1
  Si  Si2  1  -0.33366573  0.99963136  0.52491889  1
  Si  Si3  1  -0.67986811  0.30807200  0.52535419  1
  N  N4  1  -0.99846005  0.70587686  0.97321889  1
  N  N5  1  -0.62321246  0.31024164  0.88283029  1
  N  N6  1  -0.38234053  0.95474689  0.88753384  1
  N  N7  1  -0.00319850  0.26780332  0.43255216  1
  N  N8  1  -0.60783064  0.04824012  0.37926731  1
  N  N9  1  -0.37597020  0.65456318  0.49688806  1
  Li  Li10  1  -0.99887627  0.32208150  0.01533818  1
  Li  Li11  1  -0.01483676  0.64114955  0.39617861  1
