# generated using pymatgen
data_LiSi2N3
_symmetry_space_group_name_H-M   'P 1'
_cell_length_a   5.22873067
_cell_length_b   5.28776302
_cell_length_c   5.33762463
_cell_angle_alpha   60.24061007
_cell_angle_beta   88.60574039
_cell_angle_gamma   89.73985312
_symmetry_Int_Tables_number   1
_chemical_formula_structural   LiSi2N3
_chemical_formula_sum   'Li2 Si4 N6'
_cell_volume   128.07070728
_cell_formula_units_Z   2
loop_
 _symmetry_equiv_pos_site_id
 _symmetry_equiv_pos_as_xyz
  1  'x, y, z'
loop_
 _atom_site_type_symbol
 _atom_site_label
 _atom_site_symmetry_multiplicity
 _atom_site_fract_x
 _atom_site_fract_y
 _atom_site_fract_z
 _atom_site_occupancy
  Si  Si0  1  0.01980457  0.98744704  0.68232079  1
  Si  Si1  1  0.85644358  0.66672169  0.32611490  1
  Si  Si2  1  0.35520188  0.98571091  0.32466884  1
  Si  Si3  1  0.51889021  0.30866662  0.68076358  1
  N  N4  1  0.92423273  0.70186355  0.00035145  1
  N  N5  1  0.85675833  0.30103318  0.61909962  1
  N  N6  1  0.02027306  0.91158280  0.39234876  1
  N  N7  1  0.41734478  0.27680259  0.99702431  1
  N  N8  1  0.35723579  0.05954657  0.61621138  1
  N  N9  1  0.52059683  0.67481282  0.38948985  1
  Li  Li10  1  0.99320478  0.33820009  0.98365226  1
  Li  Li11  1  0.48296769  0.65372702  0.98904823  1
