# generated using pymatgen
data_LiSi2N3
_symmetry_space_group_name_H-M   'P 1'
_cell_length_a   4.85706056
_cell_length_b   5.36206391
_cell_length_c   5.34797432
_cell_angle_alpha   60.21663916
_cell_angle_beta   89.67063177
_cell_angle_gamma   89.99938613
_symmetry_Int_Tables_number   1
_chemical_formula_structural   LiSi2N3
_chemical_formula_sum   'Li2 Si4 N6'
_cell_volume   120.88150899
_cell_formula_units_Z   2
loop_
 _symmetry_equiv_pos_site_id
 _symmetry_equiv_pos_as_xyz
  1  'x, y, z'
loop_
 _atom_site_type_symbol
 _atom_site_label
 _atom_site_symmetry_multiplicity
 _atom_site_fract_x
 _atom_site_fract_y
 _atom_site_fract_z
 _atom_site_occupancy
  Si  Si0  1  0.02084630  0.99381408  0.66527549  1
  Si  Si1  1  0.95999282  0.65981605  0.32630133  1
  Si  Si2  1  0.51482108  0.98838889  0.33402974  1
  Si  Si3  1  0.51487689  0.31744957  0.67387663  1
  N  N4  1  0.94423452  0.70939874  0.99287714  1
  N  N5  1  0.87904504  0.31886996  0.61526072  1
  N  N6  1  0.88144249  0.94453869  0.38745968  1
  N  N7  1  0.43310706  0.26320659  0.00448027  1
  N  N8  1  0.37874730  0.04792622  0.60757200  1
  N  N9  1  0.41590535  0.65170354  0.38905008  1
  Li  Li10  1  0.00922815  0.32546433  0.99992074  1
  Li  Li11  1  0.45337586  0.64606485  0.00385620  1
