# generated using pymatgen
data_LiSi2N3
_symmetry_space_group_name_H-M   'P 1'
_cell_length_a   5.33682501
_cell_length_b   5.29374247
_cell_length_c   5.20878910
_cell_angle_alpha   89.70777214
_cell_angle_beta   91.34348171
_cell_angle_gamma   119.74802738
_symmetry_Int_Tables_number   1
_chemical_formula_structural   LiSi2N3
_chemical_formula_sum   'Li2 Si4 N6'
_cell_volume   127.72578351
_cell_formula_units_Z   2
loop_
 _symmetry_equiv_pos_site_id
 _symmetry_equiv_pos_as_xyz
  1  'x, y, z'
loop_
 _atom_site_type_symbol
 _atom_site_label
 _atom_site_symmetry_multiplicity
 _atom_site_fract_x
 _atom_site_fract_y
 _atom_site_fract_z
 _atom_site_occupancy
  Si  Si0  1  -0.68247591  0.98743479  0.02754866  1
  Si  Si1  1  -0.32619879  0.66691760  0.86405271  1
  Si  Si2  1  -0.32491150  0.98551876  0.36317642  1
  Si  Si3  1  -0.68115690  0.30830387  0.52674786  1
  N  N4  1  -0.99947696  0.70270125  0.92916786  1
  N  N5  1  -0.61903647  0.30179898  0.86583188  1
  N  N6  1  -0.39181909  0.91259856  0.02707602  1
  N  N7  1  -0.99772080  0.27644291  0.42594806  1
  N  N8  1  -0.61725260  0.05818670  0.36607216  1
  N  N9  1  -0.39011067  0.67385894  0.52723261  1
  Li  Li10  1  -0.98392940  0.33888127  0.00106102  1
  Li  Li11  1  -0.98596221  0.65394402  0.49850034  1
