# generated using pymatgen
data_LiSi2N3
_symmetry_space_group_name_H-M   'P 1'
_cell_length_a   5.03493508
_cell_length_b   5.35960339
_cell_length_c   5.29540832
_cell_angle_alpha   60.12047342
_cell_angle_beta   89.41429320
_cell_angle_gamma   89.97966820
_symmetry_Int_Tables_number   1
_chemical_formula_structural   LiSi2N3
_chemical_formula_sum   'Li2 Si4 N6'
_cell_volume   123.89488551
_cell_formula_units_Z   2
loop_
 _symmetry_equiv_pos_site_id
 _symmetry_equiv_pos_as_xyz
  1  'x, y, z'
loop_
 _atom_site_type_symbol
 _atom_site_label
 _atom_site_symmetry_multiplicity
 _atom_site_fract_x
 _atom_site_fract_y
 _atom_site_fract_z
 _atom_site_occupancy
  Si  Si0  1  0.02621544  0.99570747  0.66285343  1
  Si  Si1  1  0.86425860  0.65942825  0.31821282  1
  Si  Si2  1  0.52578611  0.99988325  0.33367267  1
  Si  Si3  1  0.52634258  0.30743793  0.67972081  1
  N  N4  1  0.97600462  0.70565011  0.99936442  1
  N  N5  1  0.88130151  0.30964916  0.62406447  1
  N  N6  1  0.88572469  0.95560791  0.38244490  1
  N  N7  1  0.43264910  0.26805551  0.00288489  1
  N  N8  1  0.37775082  0.04842070  0.60720178  1
  N  N9  1  0.49984797  0.65452259  0.37470599  1
  Li  Li10  1  0.01751935  0.32137820  0.99891932  1
  Li  Li11  1  0.39240840  0.64090319  0.01590844  1
