# generated using pymatgen
data_LiSi2N3
_symmetry_space_group_name_H-M   'P 1'
_cell_length_a   5.29511616
_cell_length_b   5.36103238
_cell_length_c   5.03390772
_cell_angle_alpha   89.83374416
_cell_angle_beta   90.61417339
_cell_angle_gamma   119.88879712
_symmetry_Int_Tables_number   1
_chemical_formula_structural   LiSi2N3
_chemical_formula_sum   'Li2 Si4 N6'
_cell_volume   123.88499079
_cell_formula_units_Z   2
loop_
 _symmetry_equiv_pos_site_id
 _symmetry_equiv_pos_as_xyz
  1  'x, y, z'
loop_
 _atom_site_type_symbol
 _atom_site_label
 _atom_site_symmetry_multiplicity
 _atom_site_fract_x
 _atom_site_fract_y
 _atom_site_fract_z
 _atom_site_occupancy
  Si  Si0  1  -0.66295703  0.99540079  0.02625833  1
  Si  Si1  1  -0.31832042  0.65919591  0.86430477  1
  Si  Si2  1  -0.33360725  0.00008469  0.52573481  1
  Si  Si3  1  -0.67951112  0.30769488  0.52615033  1
  N  N4  1  -0.99943968  0.70542349  0.97613850  1
  N  N5  1  -0.62414038  0.30938336  0.88113449  1
  N  N6  1  -0.38261844  0.95519482  0.88578921  1
  N  N7  1  -0.00269412  0.26841554  0.43256608  1
  N  N8  1  -0.60716920  0.04873256  0.37771850  1
  N  N9  1  -0.37452067  0.65495379  0.49977747  1
  Li  Li10  1  -0.99903029  0.32122743  0.01735108  1
  Li  Li11  1  -0.01594173  0.64093931  0.39257356  1
