# generated using pymatgen
data_LiSi2N3
_symmetry_space_group_name_H-M   'P 1'
_cell_length_a   4.97540798
_cell_length_b   5.36999092
_cell_length_c   5.31011340
_cell_angle_alpha   60.13483382
_cell_angle_beta   89.35849882
_cell_angle_gamma   90.00416516
_symmetry_Int_Tables_number   1
_chemical_formula_structural   LiSi2N3
_chemical_formula_sum   'Li2 Si4 N6'
_cell_volume   123.02367771
_cell_formula_units_Z   2
loop_
 _symmetry_equiv_pos_site_id
 _symmetry_equiv_pos_as_xyz
  1  'x, y, z'
loop_
 _atom_site_type_symbol
 _atom_site_label
 _atom_site_symmetry_multiplicity
 _atom_site_fract_x
 _atom_site_fract_y
 _atom_site_fract_z
 _atom_site_occupancy
  Si  Si0  1  0.02562451  0.99517572  0.66311228  1
  Si  Si1  1  0.86588180  0.65945435  0.31839346  1
  Si  Si2  1  0.52482134  0.99936833  0.33375725  1
  Si  Si3  1  0.52530022  0.30791573  0.68016361  1
  N  N4  1  0.97237427  0.70615672  0.99811228  1
  N  N5  1  0.88333713  0.31067016  0.62287949  1
  N  N6  1  0.88790077  0.95496719  0.38214743  1
  N  N7  1  0.43264252  0.26729939  0.00356768  1
  N  N8  1  0.37963738  0.04791573  0.60801737  1
  N  N9  1  0.49630143  0.65409965  0.37652889  1
  Li  Li10  1  0.01490376  0.32242997  0.99866370  1
  Li  Li11  1  0.39689773  0.64118856  0.01461658  1
