# generated using pymatgen
data_LiSi2N3
_symmetry_space_group_name_H-M   'P 1'
_cell_length_a   5.00080340
_cell_length_b   5.36686192
_cell_length_c   5.30263863
_cell_angle_alpha   60.11669443
_cell_angle_beta   89.40494686
_cell_angle_gamma   89.85583296
_symmetry_Int_Tables_number   1
_chemical_formula_structural   LiSi2N3
_chemical_formula_sum   'Li2 Si4 N6'
_cell_volume   123.38628418
_cell_formula_units_Z   2
loop_
 _symmetry_equiv_pos_site_id
 _symmetry_equiv_pos_as_xyz
  1  'x, y, z'
loop_
 _atom_site_type_symbol
 _atom_site_label
 _atom_site_symmetry_multiplicity
 _atom_site_fract_x
 _atom_site_fract_y
 _atom_site_fract_z
 _atom_site_occupancy
  Si  Si0  1  0.02596484  0.99509735  0.66317643  1
  Si  Si1  1  0.86513529  0.65921127  0.31843713  1
  Si  Si2  1  0.52514848  0.99979833  0.33363438  1
  Si  Si3  1  0.52560151  0.30797801  0.67971157  1
  N  N4  1  0.97420261  0.70569785  0.99883049  1
  N  N5  1  0.88224867  0.30991651  0.62355730  1
  N  N6  1  0.88694003  0.95486417  0.38244302  1
  N  N7  1  0.43250758  0.26808399  0.00295015  1
  N  N8  1  0.37874630  0.04841401  0.60760278  1
  N  N9  1  0.49781520  0.65475661  0.37543135  1
  Li  Li10  1  0.01597704  0.32178975  0.99895765  1
  Li  Li11  1  0.39496383  0.64105199  0.01519183  1
