# generated using pymatgen
data_LiSi2N3
_symmetry_space_group_name_H-M   'P 1'
_cell_length_a   5.30613517
_cell_length_b   5.36921508
_cell_length_c   4.98653381
_cell_angle_alpha   89.86962105
_cell_angle_beta   90.60828592
_cell_angle_gamma   119.87503060
_symmetry_Int_Tables_number   1
_chemical_formula_structural   LiSi2N3
_chemical_formula_sum   'Li2 Si4 N6'
_cell_volume   123.17907323
_cell_formula_units_Z   2
loop_
 _symmetry_equiv_pos_site_id
 _symmetry_equiv_pos_as_xyz
  1  'x, y, z'
loop_
 _atom_site_type_symbol
 _atom_site_label
 _atom_site_symmetry_multiplicity
 _atom_site_fract_x
 _atom_site_fract_y
 _atom_site_fract_z
 _atom_site_occupancy
  Si  Si0  1  -0.66323831  0.99498360  0.02582449  1
  Si  Si1  1  -0.31847820  0.65922104  0.86554368  1
  Si  Si2  1  -0.33365679  0.99966077  0.52492723  1
  Si  Si3  1  -0.67982952  0.30808468  0.52536740  1
  N  N4  1  -0.99851653  0.70584273  0.97332686  1
  N  N5  1  -0.62326193  0.31018379  0.88275963  1
  N  N6  1  -0.38236512  0.95472773  0.88747339  1
  N  N7  1  -0.00313886  0.26787167  0.43253558  1
  N  N8  1  -0.60780361  0.04827390  0.37921338  1
  N  N9  1  -0.37588861  0.65462142  0.49697171  1
  Li  Li10  1  -0.99890291  0.32204268  0.01538167  1
  Li  Li11  1  -0.01486396  0.64113563  0.39607622  1
