# generated using pymatgen
data_LiSi2N3
_symmetry_space_group_name_H-M   'P 1'
_cell_length_a   5.36198254
_cell_length_b   5.30509744
_cell_length_c   5.18308590
_cell_angle_alpha   89.70813408
_cell_angle_beta   91.50434153
_cell_angle_gamma   120.00726244
_symmetry_Int_Tables_number   1
_chemical_formula_structural   LiSi2N3
_chemical_formula_sum   'Li2 Si4 N6'
_cell_volume   127.62553959
_cell_formula_units_Z   2
loop_
 _symmetry_equiv_pos_site_id
 _symmetry_equiv_pos_as_xyz
  1  'x, y, z'
loop_
 _atom_site_type_symbol
 _atom_site_label
 _atom_site_symmetry_multiplicity
 _atom_site_fract_x
 _atom_site_fract_y
 _atom_site_fract_z
 _atom_site_occupancy
  Si  Si0  1  -0.67990950  0.99014371  0.03389350  1
  Si  Si1  1  -0.32406910  0.66700131  0.87102941  1
  Si  Si2  1  -0.32005250  0.98765196  0.36711091  1
  Si  Si3  1  -0.67589661  0.31078528  0.52996421  1
  N  N4  1  -0.00839908  0.70036130  0.97228825  1
  N  N5  1  -0.61903416  0.30156856  0.86967459  1
  N  N6  1  -0.39353241  0.91294553  0.02865805  1
  N  N7  1  -0.99159549  0.27742875  0.42881592  1
  N  N8  1  -0.60642820  0.06485207  0.37233396  1
  N  N9  1  -0.38092188  0.67621595  0.53131805  1
  Li  Li10  1  -0.98654920  0.33413853  0.98788930  1
  Li  Li11  1  -0.01357185  0.64354858  0.41265490  1
