# generated using pymatgen
data_LiSi2N3
_symmetry_space_group_name_H-M   'P 1'
_cell_length_a   5.36365370
_cell_length_b   5.31218549
_cell_length_c   5.15921189
_cell_angle_alpha   89.73198033
_cell_angle_beta   91.41348758
_cell_angle_gamma   119.99795817
_symmetry_Int_Tables_number   1
_chemical_formula_structural   LiSi2N3
_chemical_formula_sum   'Li2 Si4 N6'
_cell_volume   127.26463757
_cell_formula_units_Z   2
loop_
 _symmetry_equiv_pos_site_id
 _symmetry_equiv_pos_as_xyz
  1  'x, y, z'
loop_
 _atom_site_type_symbol
 _atom_site_label
 _atom_site_symmetry_multiplicity
 _atom_site_fract_x
 _atom_site_fract_y
 _atom_site_fract_z
 _atom_site_occupancy
  Si  Si0  1  -0.67976298  0.99023828  0.03368768  1
  Si  Si1  1  -0.32382800  0.66717362  0.87095269  1
  Si  Si2  1  -0.32018654  0.98756370  0.36733690  1
  Si  Si3  1  -0.67612654  0.31061592  0.53005801  1
  N  N4  1  -0.00773177  0.70093778  0.97093781  1
  N  N5  1  -0.61865403  0.30247854  0.87106969  1
  N  N6  1  -0.39284106  0.91411105  0.02744061  1
  N  N7  1  -0.99226342  0.27685646  0.43022897  1
  N  N8  1  -0.60710661  0.06369332  0.37356777  1
  N  N9  1  -0.38128725  0.67530855  0.52993913  1
  Li  Li10  1  -0.98747914  0.33412818  0.98549429  1
  Li  Li11  1  -0.01269266  0.64353612  0.41491763  1
