# generated using pymatgen
data_LiSi2N3
_symmetry_space_group_name_H-M   'P 1'
_cell_length_a   4.99168466
_cell_length_b   5.36842123
_cell_length_c   5.30481529
_cell_angle_alpha   60.12118732
_cell_angle_beta   89.39964480
_cell_angle_gamma   89.86044043
_symmetry_Int_Tables_number   1
_chemical_formula_structural   LiSi2N3
_chemical_formula_sum   'Li2 Si4 N6'
_cell_volume   123.25302742
_cell_formula_units_Z   2
loop_
 _symmetry_equiv_pos_site_id
 _symmetry_equiv_pos_as_xyz
  1  'x, y, z'
loop_
 _atom_site_type_symbol
 _atom_site_label
 _atom_site_symmetry_multiplicity
 _atom_site_fract_x
 _atom_site_fract_y
 _atom_site_fract_z
 _atom_site_occupancy
  Si  Si0  1  0.02588115  0.99501424  0.66322536  1
  Si  Si1  1  0.86539445  0.65921055  0.31846856  1
  Si  Si2  1  0.52500254  0.99971668  0.33364525  1
  Si  Si3  1  0.52544907  0.30805566  0.67977580  1
  N  N4  1  0.97365537  0.70578217  0.99864053  1
  N  N5  1  0.88256908  0.31007494  0.62337802  1
  N  N6  1  0.88727881  0.95476529  0.38239912  1
  N  N7  1  0.43251968  0.26796785  0.00305350  1
  N  N8  1  0.37904319  0.04833178  0.60772813  1
  N  N9  1  0.49727766  0.65468809  0.37570798  1
  Li  Li10  1  0.01559421  0.32194505  0.99893157  1
  Li  Li11  1  0.39567148  0.64110132  0.01498262  1
