# generated using pymatgen
data_LiSi2N3
_symmetry_space_group_name_H-M   'P 1'
_cell_length_a   5.13710733
_cell_length_b   5.31989706
_cell_length_c   5.36362924
_cell_angle_alpha   59.99099587
_cell_angle_beta   88.70812743
_cell_angle_gamma   89.65539549
_symmetry_Int_Tables_number   1
_chemical_formula_structural   LiSi2N3
_chemical_formula_sum   'Li2 Si4 N6'
_cell_volume   126.89760178
_cell_formula_units_Z   2
loop_
 _symmetry_equiv_pos_site_id
 _symmetry_equiv_pos_as_xyz
  1  'x, y, z'
loop_
 _atom_site_type_symbol
 _atom_site_label
 _atom_site_symmetry_multiplicity
 _atom_site_fract_x
 _atom_site_fract_y
 _atom_site_fract_z
 _atom_site_occupancy
  Si  Si0  1  0.03365330  0.99019289  0.67979773  1
  Si  Si1  1  0.87091771  0.66730338  0.32376495  1
  Si  Si2  1  0.36736574  0.98760786  0.32015116  1
  Si  Si3  1  0.53008861  0.31048529  0.67618858  1
  N  N4  1  0.96983096  0.70137586  0.00728091  1
  N  N5  1  0.87236923  0.30322150  0.61856890  1
  N  N6  1  0.02625799  0.91512788  0.39226033  1
  N  N7  1  0.43133422  0.27641640  0.99271431  1
  N  N8  1  0.37474546  0.06267543  0.60768654  1
  N  N9  1  0.52863465  0.67456513  0.38137161  1
  Li  Li10  1  0.98309529  0.33431562  0.98825889  1
  Li  Li11  1  0.41733803  0.64335427  0.01191609  1
