# generated using pymatgen
data_LiSi2N3
_symmetry_space_group_name_H-M   'P 1'
_cell_length_a   5.30630592
_cell_length_b   5.36877539
_cell_length_c   4.98697023
_cell_angle_alpha   89.89720781
_cell_angle_beta   90.62306923
_cell_angle_gamma   119.87057651
_symmetry_Int_Tables_number   1
_chemical_formula_structural   LiSi2N3
_chemical_formula_sum   'Li2 Si4 N6'
_cell_volume   123.18855758
_cell_formula_units_Z   2
loop_
 _symmetry_equiv_pos_site_id
 _symmetry_equiv_pos_as_xyz
  1  'x, y, z'
loop_
 _atom_site_type_symbol
 _atom_site_label
 _atom_site_symmetry_multiplicity
 _atom_site_fract_x
 _atom_site_fract_y
 _atom_site_fract_z
 _atom_site_occupancy
  Si  Si0  1  -0.66318275  0.99505598  0.02580802  1
  Si  Si1  1  -0.31844597  0.65926675  0.86554423  1
  Si  Si2  1  -0.33367435  0.99962505  0.52496989  1
  Si  Si3  1  -0.67989171  0.30802226  0.52540451  1
  N  N4  1  -0.99846675  0.70588834  0.97330720  1
  N  N5  1  -0.62322310  0.31025106  0.88278953  1
  N  N6  1  -0.38232596  0.95481505  0.88747016  1
  N  N7  1  -0.00323137  0.26776171  0.43256906  1
  N  N8  1  -0.60781383  0.04822782  0.37921446  1
  N  N9  1  -0.37596115  0.65451490  0.49700546  1
  Li  Li10  1  -0.99885428  0.32206878  0.01544285  1
  Li  Li11  1  -0.01488547  0.64114563  0.39601712  1
