# generated using pymatgen
data_LiSi2N3
_symmetry_space_group_name_H-M   'P 1'
_cell_length_a   5.29321018
_cell_length_b   5.35978701
_cell_length_c   5.04224679
_cell_angle_alpha   89.80632984
_cell_angle_beta   90.62345443
_cell_angle_gamma   119.89485237
_symmetry_Int_Tables_number   1
_chemical_formula_structural   LiSi2N3
_chemical_formula_sum   'Li2 Si4 N6'
_cell_volume   124.00912968
_cell_formula_units_Z   2
loop_
 _symmetry_equiv_pos_site_id
 _symmetry_equiv_pos_as_xyz
  1  'x, y, z'
loop_
 _atom_site_type_symbol
 _atom_site_label
 _atom_site_symmetry_multiplicity
 _atom_site_fract_x
 _atom_site_fract_y
 _atom_site_fract_z
 _atom_site_occupancy
  Si  Si0  1  -0.66291822  0.99543030  0.02634383  1
  Si  Si1  1  -0.31831025  0.65916162  0.86411799  1
  Si  Si2  1  -0.33358960  0.00018835  0.52588098  1
  Si  Si3  1  -0.67942502  0.30765675  0.52626623  1
  N  N4  1  -0.99962128  0.70531075  0.97666107  1
  N  N5  1  -0.62431068  0.30919971  0.88083441  1
  N  N6  1  -0.38269670  0.95521469  0.88551424  1
  N  N7  1  -0.00258893  0.26856363  0.43257707  1
  N  N8  1  -0.60705012  0.04886006  0.37746321  1
  N  N9  1  -0.37424725  0.65507556  0.50027767  1
  Li  Li10  1  -0.99906300  0.32106529  0.01768018  1
  Li  Li11  1  -0.01613897  0.64091479  0.39201458  1
