# generated using pymatgen
data_LiSi2N3
_symmetry_space_group_name_H-M   'P 1'
_cell_length_a   5.36306213
_cell_length_b   5.30926945
_cell_length_c   5.16894828
_cell_angle_alpha   89.72061396
_cell_angle_beta   91.45591719
_cell_angle_gamma   120.00139100
_symmetry_Int_Tables_number   1
_chemical_formula_structural   LiSi2N3
_chemical_formula_sum   'Li2 Si4 N6'
_cell_volume   127.41376357
_cell_formula_units_Z   2
loop_
 _symmetry_equiv_pos_site_id
 _symmetry_equiv_pos_as_xyz
  1  'x, y, z'
loop_
 _atom_site_type_symbol
 _atom_site_label
 _atom_site_symmetry_multiplicity
 _atom_site_fract_x
 _atom_site_fract_y
 _atom_site_fract_z
 _atom_site_occupancy
  Si  Si0  1  -0.67982805  0.99020018  0.03377480  1
  Si  Si1  1  -0.32393328  0.66710314  0.87099105  1
  Si  Si2  1  -0.32012597  0.98759973  0.36724310  1
  Si  Si3  1  -0.67602532  0.31068552  0.53001395  1
  N  N4  1  -0.00801512  0.70070239  0.97151940  1
  N  N5  1  -0.61881382  0.30210839  0.87049657  1
  N  N6  1  -0.39313972  0.91362812  0.02793742  1
  N  N7  1  -0.99197975  0.27709062  0.42962480  1
  N  N8  1  -0.60681263  0.06417401  0.37306557  1
  N  N9  1  -0.38113279  0.67567792  0.53050694  1
  Li  Li10  1  -0.98709050  0.33413510  0.98650166  1
  Li  Li11  1  -0.01306307  0.64353639  0.41395584  1
