# generated using pymatgen
data_ScAl17N18
_symmetry_space_group_name_H-M   'P 1'
_cell_length_a   9.79995055
_cell_length_b   9.79696482
_cell_length_c   9.11107577
_cell_angle_alpha   90.02173612
_cell_angle_beta   90.00000162
_cell_angle_gamma   59.98987729
_symmetry_Int_Tables_number   1
_chemical_formula_structural   ScAl17N18
_chemical_formula_sum   'Sc2 Al34 N36'
_cell_volume   757.48035277
_cell_formula_units_Z   2
loop_
 _symmetry_equiv_pos_site_id
 _symmetry_equiv_pos_as_xyz
  1  'x, y, z'
loop_
 _atom_site_type_symbol
 _atom_site_label
 _atom_site_symmetry_multiplicity
 _atom_site_fract_x
 _atom_site_fract_y
 _atom_site_fract_z
 _atom_site_occupancy
  Al  Al0  1  0.11031326  0.09604015  0.37401816  1
  Al  Al1  1  0.22217257  0.20936816  0.12912472  1
  Al  Al2  1  0.77465450  0.09515582  0.87555896  1
  Al  Al3  1  0.87989653  0.21003032  0.61584928  1
  Al  Al4  1  0.44736722  0.09389726  0.37193443  1
  Al  Al5  1  0.55489748  0.20687162  0.12193227  1
  Al  Al6  1  0.22673976  0.21003033  0.61584924  1
  Al  Al7  1  0.77540216  0.09389726  0.37193438  1
  Al  Al8  1  0.88512596  0.20936813  0.12912467  1
  Al  Al9  1  0.44685631  0.09515585  0.87555894  1
  Al  Al10  1  0.55601583  0.20463489  0.62600451  1
  Al  Al11  1  0.10855978  0.43071543  0.37275810  1
  Al  Al12  1  0.22234130  0.53532146  0.12593182  1
  Al  Al13  1  0.77316493  0.43001304  0.87533006  1
  Al  Al14  1  0.88904668  0.53857330  0.62617344  1
  Al  Al15  1  0.44504609  0.42657447  0.37512927  1
  Al  Al16  1  0.55900392  0.53532142  0.12593187  1
  Al  Al17  1  0.11348874  0.43001303  0.87533006  1
  Al  Al18  1  0.22236729  0.53735103  0.62240588  1
  Al  Al19  1  0.77739154  0.43071541  0.37275809  1
  Al  Al20  1  0.88851560  0.53963551  0.12074465  1
  Al  Al21  1  0.44408242  0.42850185  0.87204744  1
  Al  Al22  1  0.55694832  0.53735103  0.62240583  1
  Al  Al23  1  0.10927989  0.75932259  0.37619394  1
  Al  Al24  1  0.77716841  0.76232992  0.87218484  1
  Al  Al25  1  0.88684848  0.87347993  0.62246896  1
  Al  Al26  1  0.44806422  0.75932262  0.37619392  1
  Al  Al27  1  0.56048919  0.87041497  0.12531569  1
  Al  Al28  1  0.10863584  0.75490974  0.86977777  1
  Al  Al29  1  0.22500476  0.86665722  0.61516075  1
  Al  Al30  1  0.77858268  0.75950134  0.37585143  1
  Al  Al31  1  0.88576255  0.87041491  0.12531573  1
  Al  Al32  1  0.45312116  0.75490971  0.86977780  1
  Al  Al33  1  0.55633826  0.87347994  0.62246901  1
  Sc  Sc34  1  0.10765655  0.10135372  0.85326530  1
  Sc  Sc35  1  0.22404558  0.86857542  0.11124077  1
  N  N36  1  0.22315477  0.20653125  0.34207917  1
  N  N37  1  0.10162104  0.11342462  0.09369915  1
  N  N38  1  0.86509735  0.21725301  0.82754938  1
  N  N39  1  0.77488875  0.09370453  0.58164526  1
  N  N40  1  0.55490929  0.20684803  0.33219645  1
  N  N41  1  0.44404778  0.09361913  0.08846635  1
  N  N42  1  0.23431631  0.21725306  0.82754931  1
  N  N43  1  0.11035234  0.09596193  0.59283831  1
  N  N44  1  0.88698066  0.20653124  0.34207913  1
  N  N45  1  0.77899970  0.09361910  0.08846641  1
  N  N46  1  0.55577100  0.20512466  0.83817671  1
  N  N47  1  0.44807332  0.09370449  0.58164530  1
  N  N48  1  0.22344162  0.53804016  0.33736007  1
  N  N49  1  0.11201206  0.42705416  0.08748056  1
  N  N50  1  0.88957824  0.53751026  0.83858172  1
  N  N51  1  0.77718961  0.43142103  0.58224799  1
  N  N52  1  0.55518492  0.53804015  0.33736012  1
  N  N53  1  0.44366585  0.42933496  0.08446286  1
  N  N54  1  0.22326861  0.53704499  0.83254036  1
  N  N55  1  0.10805601  0.43142104  0.58224799  1
  N  N56  1  0.88824044  0.54018585  0.33192378  1
  N  N57  1  0.77760046  0.42705416  0.08748056  1
  N  N58  1  0.55635310  0.53704498  0.83254032  1
  N  N59  1  0.44524151  0.42618358  0.58619560  1
  N  N60  1  0.22286479  0.87093715  0.35139762  1
  N  N61  1  0.10007148  0.74958710  0.08283671  1
  N  N62  1  0.88681830  0.87433717  0.83320473  1
  N  N63  1  0.77851352  0.75963963  0.58694484  1
  N  N64  1  0.55734163  0.87133772  0.33695648  1
  N  N65  1  0.46700815  0.74958706  0.08283675  1
  N  N66  1  0.23182738  0.85301200  0.83992607  1
  N  N67  1  0.10919696  0.75967500  0.58725407  1
  N  N68  1  0.88798739  0.87133769  0.33695651  1
  N  N69  1  0.77752473  0.76161722  0.08325287  1
  N  N70  1  0.55551125  0.87433716  0.83320477  1
  N  N71  1  0.44779475  0.75967499  0.58725405  1
