# generated using pymatgen
data_ScAl17N18
_symmetry_space_group_name_H-M   'P 1'
_cell_length_a   9.47388715
_cell_length_b   9.47053596
_cell_length_c   10.06099527
_cell_angle_alpha   89.97388210
_cell_angle_beta   89.99999974
_cell_angle_gamma   59.98829499
_symmetry_Int_Tables_number   1
_chemical_formula_structural   ScAl17N18
_chemical_formula_sum   'Sc2 Al34 N36'
_cell_volume   781.66928108
_cell_formula_units_Z   2
loop_
 _symmetry_equiv_pos_site_id
 _symmetry_equiv_pos_as_xyz
  1  'x, y, z'
loop_
 _atom_site_type_symbol
 _atom_site_label
 _atom_site_symmetry_multiplicity
 _atom_site_fract_x
 _atom_site_fract_y
 _atom_site_fract_z
 _atom_site_occupancy
  Al  Al0  1  0.11002108  0.09662455  0.41972243  1
  Al  Al1  1  0.22185906  0.20925737  0.16628127  1
  Al  Al2  1  0.77355923  0.09563976  0.91308718  1
  Al  Al3  1  0.88132324  0.20937913  0.66009627  1
  Al  Al4  1  0.44577916  0.09401618  0.41234773  1
  Al  Al5  1  0.55533793  0.20599081  0.16271810  1
  Al  Al6  1  0.22596434  0.20937913  0.66009627  1
  Al  Al7  1  0.77687137  0.09401617  0.41234772  1
  Al  Al8  1  0.88555023  0.20925739  0.16628127  1
  Al  Al9  1  0.44746768  0.09563977  0.91308717  1
  Al  Al10  1  0.55568058  0.20530557  0.66314750  1
  Al  Al11  1  0.11014930  0.42942502  0.41253639  1
  Al  Al12  1  0.22136284  0.53586735  0.16267278  1
  Al  Al13  1  0.77350882  0.43046871  0.91332804  1
  Al  Al14  1  0.88885241  0.53896190  0.66281553  1
  Al  Al15  1  0.44441372  0.42783927  0.41266715  1
  Al  Al16  1  0.55943647  0.53586735  0.16267279  1
  Al  Al17  1  0.11268914  0.43046872  0.91332804  1
  Al  Al18  1  0.22258668  0.53750012  0.66314233  1
  Al  Al19  1  0.77709238  0.42942502  0.41253640  1
  Al  Al20  1  0.88898391  0.53869883  0.16179626  1
  Al  Al21  1  0.44444030  0.42778607  0.91189142  1
  Al  Al22  1  0.55657992  0.53750011  0.66314234  1
  Al  Al23  1  0.10946501  0.75988239  0.41722938  1
  Al  Al24  1  0.77773505  0.76119655  0.91281934  1
  Al  Al25  1  0.88731925  0.87269912  0.66287465  1
  Al  Al26  1  0.44731932  0.75988239  0.41722938  1
  Al  Al27  1  0.55967237  0.87076728  0.16245592  1
  Al  Al28  1  0.10971512  0.75509271  0.90982900  1
  Al  Al29  1  0.22523580  0.86619511  0.66099283  1
  Al  Al30  1  0.77796228  0.76074215  0.41280643  1
  Al  Al31  1  0.88622701  0.87076724  0.16245590  1
  Al  Al32  1  0.45185884  0.75509270  0.90982901  1
  Al  Al33  1  0.55664835  0.87269912  0.66287465  1
  Sc  Sc34  1  0.10898203  0.09870258  0.90049267  1
  Sc  Sc35  1  0.22369557  0.86927550  0.16232959  1
  N  N36  1  0.22239646  0.20601875  0.35786781  1
  N  N37  1  0.10207107  0.11252453  0.10956869  1
  N  N38  1  0.86522275  0.21717599  0.84736195  1
  N  N39  1  0.77643137  0.09350966  0.60201367  1
  N  N40  1  0.55527776  0.20611119  0.35311205  1
  N  N41  1  0.44423559  0.09428752  0.10506502  1
  N  N42  1  0.23426793  0.21717599  0.84736196  1
  N  N43  1  0.11028061  0.09610549  0.61449572  1
  N  N44  1  0.88825150  0.20601874  0.35786781  1
  N  N45  1  0.77814356  0.09428750  0.10506503  1
  N  N46  1  0.55544510  0.20577647  0.85403786  1
  N  N47  1  0.44672569  0.09350966  0.60201368  1
  N  N48  1  0.22229595  0.53941099  0.35389356  1
  N  N49  1  0.11124184  0.42720497  0.10443327  1
  N  N50  1  0.88927902  0.53810866  0.85458406  1
  N  N51  1  0.77695988  0.43004313  0.60203794  1
  N  N52  1  0.55495976  0.53941099  0.35389356  1
  N  N53  1  0.44417520  0.42831624  0.10383640  1
  N  N54  1  0.22343942  0.53698524  0.85247987  1
  N  N55  1  0.10966370  0.43004314  0.60203794  1
  N  N56  1  0.88868599  0.53929472  0.35287345  1
  N  N57  1  0.77821984  0.42720498  0.10443327  1
  N  N58  1  0.55624201  0.53698524  0.85247987  1
  N  N59  1  0.44459639  0.42747393  0.60362829  1
  N  N60  1  0.22211200  0.87244272  0.37254826  1
  N  N61  1  0.10098445  0.75082007  0.09837014  1
  N  N62  1  0.88703224  0.87354679  0.85309190  1
  N  N63  1  0.77796961  0.76072751  0.60364118  1
  N  N64  1  0.55581354  0.87185299  0.35385233  1
  N  N65  1  0.46486212  0.75082008  0.09837016  1
  N  N66  1  0.23283091  0.85100485  0.85266593  1
  N  N67  1  0.10926570  0.75942987  0.60638925  1
  N  N68  1  0.88900019  0.87185298  0.35385232  1
  N  N69  1  0.77801460  0.76063744  0.10333278  1
  N  N70  1  0.55608764  0.87354680  0.85309190  1
  N  N71  1  0.44797116  0.75942986  0.60638925  1
