# generated using pymatgen
data_ScAl17N18
_symmetry_space_group_name_H-M   'P 1'
_cell_length_a   9.47386317
_cell_length_b   9.47056874
_cell_length_c   10.06112806
_cell_angle_alpha   89.97349525
_cell_angle_beta   90.00000547
_cell_angle_gamma   59.98849378
_symmetry_Int_Tables_number   1
_chemical_formula_structural   ScAl17N18
_chemical_formula_sum   'Sc2 Al34 N36'
_cell_volume   781.68188835
_cell_formula_units_Z   2
loop_
 _symmetry_equiv_pos_site_id
 _symmetry_equiv_pos_as_xyz
  1  'x, y, z'
loop_
 _atom_site_type_symbol
 _atom_site_label
 _atom_site_symmetry_multiplicity
 _atom_site_fract_x
 _atom_site_fract_y
 _atom_site_fract_z
 _atom_site_occupancy
  Al  Al0  1  0.10812015  0.10042696  0.29747858  1
  Al  Al1  1  0.22362915  0.21154301  0.04862271  1
  Al  Al2  1  0.77368378  0.09585579  0.79599030  1
  Al  Al3  1  0.88603725  0.20671979  0.54121015  1
  Al  Al4  1  0.44604792  0.09390297  0.29556246  1
  Al  Al5  1  0.55561785  0.20543053  0.04562321  1
  Al  Al6  1  0.22391091  0.20671975  0.54121027  1
  Al  Al7  1  0.77671638  0.09390305  0.29556255  1
  Al  Al8  1  0.88149397  0.21154315  0.04862286  1
  Al  Al9  1  0.44712714  0.09585543  0.79599028  1
  Al  Al10  1  0.55540933  0.20584913  0.54563393  1
  Al  Al11  1  0.11078142  0.42910872  0.29529343  1
  Al  Al12  1  0.22066690  0.53616975  0.04511362  1
  Al  Al13  1  0.77391390  0.43075590  0.79577523  1
  Al  Al14  1  0.88895698  0.53875300  0.54577110  1
  Al  Al15  1  0.44451238  0.42764139  0.29563188  1
  Al  Al16  1  0.55982851  0.53616990  0.04511371  1
  Al  Al17  1  0.11199579  0.43075580  0.79577510  1
  Al  Al18  1  0.22321634  0.53717768  0.54590649  1
  Al  Al19  1  0.77677605  0.42910893  0.29529340  1
  Al  Al20  1  0.88890928  0.53884683  0.04655312  1
  Al  Al21  1  0.44437188  0.42792165  0.79663876  1
  Al  Al22  1  0.55627288  0.53717755  0.54590636  1
  Al  Al23  1  0.10740198  0.75722866  0.29834380  1
  Al  Al24  1  0.77801700  0.76063306  0.79571844  1
  Al  Al25  1  0.88759249  0.87258081  0.54609250  1
  Al  Al26  1  0.45203616  0.75722872  0.29834378  1
  Al  Al27  1  0.55979359  0.87098525  0.04535609  1
  Al  Al28  1  0.11149982  0.75737448  0.79217344  1
  Al  Al29  1  0.22334797  0.86997196  0.53871723  1
  Al  Al30  1  0.77768467  0.76129770  0.29529793  1
  Al  Al31  1  0.88588762  0.87098530  0.04535608  1
  Al  Al32  1  0.44779273  0.75737425  0.79217340  1
  Al  Al33  1  0.55649463  0.87258069  0.54609242  1
  Sc  Sc34  1  0.10965493  0.09735629  0.79608830  1
  Sc  Sc35  1  0.22435064  0.86796500  0.05796728  1
  N  N36  1  0.22410609  0.20718431  0.35206021  1
  N  N37  1  0.10050580  0.11565466  0.10581599  1
  N  N38  1  0.86849699  0.21580571  0.86007654  1
  N  N39  1  0.77755534  0.09474308  0.60459563  1
  N  N40  1  0.55539764  0.20587206  0.35480381  1
  N  N41  1  0.44631959  0.09307900  0.10534882  1
  N  N42  1  0.23236369  0.21580541  0.86007626  1
  N  N43  1  0.11125386  0.09416031  0.58587168  1
  N  N44  1  0.88537695  0.20718449  0.35206015  1
  N  N45  1  0.77726782  0.09307896  0.10534893  1
  N  N46  1  0.55534033  0.20598552  0.85510933  1
  N  N47  1  0.44436966  0.09474289  0.60459562  1
  N  N48  1  0.22369947  0.53656700  0.35640985  1
  N  N49  1  0.10991550  0.42965197  0.10595784  1
  N  N50  1  0.88917752  0.53831056  0.85460779  1
  N  N51  1  0.77840714  0.42718867  0.60455484  1
  N  N52  1  0.55639977  0.53656704  0.35640971  1
  N  N53  1  0.44407574  0.42851375  0.10386470  1
  N  N54  1  0.22211349  0.53942264  0.85400577  1
  N  N55  1  0.11107105  0.42718870  0.60455483  1
  N  N56  1  0.88877050  0.53912543  0.35481442  1
  N  N57  1  0.77709771  0.42965219  0.10595790  1
  N  N58  1  0.55512924  0.53942248  0.85400587  1
  N  N59  1  0.44468315  0.42730052  0.60556619  1
  N  N60  1  0.22308228  0.87050236  0.34395564  1
  N  N61  1  0.09909035  0.74945837  0.11107968  1
  N  N62  1  0.88911752  0.87233434  0.85337785  1
  N  N63  1  0.77809314  0.76048166  0.60532736  1
  N  N64  1  0.55693364  0.87309057  0.35643224  1
  N  N65  1  0.46811749  0.74945856  0.11107967  1
  N  N66  1  0.23127028  0.85412652  0.84888617  1
  N  N67  1  0.11097356  0.76058191  0.60058507  1
  N  N68  1  0.88664282  0.87309071  0.35643235  1
  N  N69  1  0.77790665  0.76085319  0.10440829  1
  N  N70  1  0.55521533  0.87233396  0.85337785  1
  N  N71  1  0.44511251  0.76058174  0.60058495  1
