# generated using pymatgen
data_ScAl17N18
_symmetry_space_group_name_H-M   'P 1'
_cell_length_a   9.93441159
_cell_length_b   9.93210729
_cell_length_c   8.68810369
_cell_angle_alpha   90.02464964
_cell_angle_beta   89.99999952
_cell_angle_gamma   59.99232945
_symmetry_Int_Tables_number   1
_chemical_formula_structural   ScAl17N18
_chemical_formula_sum   'Sc2 Al34 N36'
_cell_volume   742.34459637
_cell_formula_units_Z   2
loop_
 _symmetry_equiv_pos_site_id
 _symmetry_equiv_pos_as_xyz
  1  'x, y, z'
loop_
 _atom_site_type_symbol
 _atom_site_label
 _atom_site_symmetry_multiplicity
 _atom_site_fract_x
 _atom_site_fract_y
 _atom_site_fract_z
 _atom_site_occupancy
  Al  Al0  1  0.10897840  0.09870986  0.35309907  1
  Al  Al1  1  0.22422755  0.21086554  0.09863291  1
  Al  Al2  1  0.77311558  0.09585332  0.84180306  1
  Al  Al3  1  0.88415338  0.20790311  0.59098529  1
  Al  Al4  1  0.44639847  0.09318856  0.34483825  1
  Al  Al5  1  0.55604993  0.20456683  0.09532420  1
  Al  Al6  1  0.22461021  0.20790311  0.59098529  1
  Al  Al7  1  0.77707967  0.09318853  0.34483827  1
  Al  Al8  1  0.88157361  0.21086553  0.09863290  1
  Al  Al9  1  0.44769773  0.09585335  0.84180309  1
  Al  Al10  1  0.55486199  0.20694269  0.59085605  1
  Al  Al11  1  0.11081468  0.42925610  0.34505672  1
  Al  Al12  1  0.22058552  0.53621546  0.09254087  1
  Al  Al13  1  0.77444511  0.43137901  0.84109299  1
  Al  Al14  1  0.88834075  0.53998515  0.59169319  1
  Al  Al15  1  0.44431600  0.42803475  0.34130477  1
  Al  Al16  1  0.55986569  0.53621547  0.09254083  1
  Al  Al17  1  0.11084254  0.43137899  0.84109299  1
  Al  Al18  1  0.22449305  0.53623753  0.59375844  1
  Al  Al19  1  0.77659591  0.42925611  0.34505671  1
  Al  Al20  1  0.88919732  0.53827203  0.09517347  1
  Al  Al21  1  0.44487584  0.42691498  0.84557472  1
  Al  Al22  1  0.55593608  0.53623757  0.59375848  1
  Al  Al23  1  0.10747857  0.75745806  0.35146060  1
  Al  Al24  1  0.77838149  0.75990365  0.84457042  1
  Al  Al25  1  0.88620936  0.87263060  0.59461845  1
  Al  Al26  1  0.45173007  0.75745806  0.35146058  1
  Al  Al27  1  0.55869049  0.87174646  0.09212610  1
  Al  Al28  1  0.11030680  0.75682898  0.83813256  1
  Al  Al29  1  0.22371819  0.86923030  0.59580734  1
  Al  Al30  1  0.77747473  0.76171729  0.34177931  1
  Al  Al31  1  0.88622978  0.87174642  0.09212606  1
  Al  Al32  1  0.44953081  0.75682906  0.83813258  1
  Al  Al33  1  0.55782673  0.87263062  0.59461842  1
  Sc  Sc34  1  0.10866445  0.09933774  0.85029886  1
  Sc  Sc35  1  0.22526678  0.86613307  0.10757987  1
  N  N36  1  0.22411464  0.20686463  0.36315638  1
  N  N37  1  0.10231514  0.11203641  0.11440504  1
  N  N38  1  0.86789810  0.21628320  0.86473493  1
  N  N39  1  0.77581011  0.09499835  0.61243901  1
  N  N40  1  0.55486219  0.20694230  0.36268933  1
  N  N41  1  0.44621612  0.09256231  0.11681446  1
  N  N42  1  0.23248535  0.21628318  0.86473492  1
  N  N43  1  0.11014986  0.09636691  0.59910177  1
  N  N44  1  0.88568739  0.20686465  0.36315636  1
  N  N45  1  0.77788827  0.09256227  0.11681447  1
  N  N46  1  0.55576070  0.20514527  0.86681362  1
  N  N47  1  0.44585821  0.09499834  0.61243900  1
  N  N48  1  0.22495940  0.53573238  0.36736412  1
  N  N49  1  0.11015392  0.42928616  0.11735762  1
  N  N50  1  0.88959877  0.53746916  0.86543204  1
  N  N51  1  0.77788138  0.42908660  0.61206141  1
  N  N52  1  0.55597494  0.53573240  0.36736414  1
  N  N53  1  0.44388328  0.42890013  0.11176999  1
  N  N54  1  0.22184304  0.53896288  0.86238499  1
  N  N55  1  0.10969868  0.42908660  0.61206140  1
  N  N56  1  0.88812770  0.54041128  0.36361509  1
  N  N57  1  0.77722659  0.42928616  0.11735759  1
  N  N58  1  0.55586071  0.53896293  0.86238495  1
  N  N59  1  0.44510578  0.42645512  0.61759898  1
  N  N60  1  0.22313359  0.87039954  0.36494018  1
  N  N61  1  0.10036706  0.75052441  0.12020917  1
  N  N62  1  0.88875869  0.87318231  0.86145398  1
  N  N63  1  0.77842312  0.75982043  0.61753162  1
  N  N64  1  0.55823258  0.87262638  0.36793274  1
  N  N65  1  0.46577521  0.75052441  0.12020915  1
  N  N66  1  0.23105232  0.85456195  0.85227498  1
  N  N67  1  0.10963840  0.75962809  0.60865564  1
  N  N68  1  0.88580778  0.87262637  0.36793279  1
  N  N69  1  0.77765950  0.76134770  0.11180676  1
  N  N70  1  0.55472565  0.87318235  0.86145401  1
  N  N71  1  0.44740017  0.75962813  0.60865564  1
