# generated using pymatgen
data_ScAl17N18
_symmetry_space_group_name_H-M   'P 1'
_cell_length_a   9.50216535
_cell_length_b   9.49878398
_cell_length_c   9.98710471
_cell_angle_alpha   89.98778984
_cell_angle_beta   90.00003387
_cell_angle_gamma   59.98822727
_symmetry_Int_Tables_number   1
_chemical_formula_structural   ScAl17N18
_chemical_formula_sum   'Sc2 Al34 N36'
_cell_volume   780.56537661
_cell_formula_units_Z   2
loop_
 _symmetry_equiv_pos_site_id
 _symmetry_equiv_pos_as_xyz
  1  'x, y, z'
loop_
 _atom_site_type_symbol
 _atom_site_label
 _atom_site_symmetry_multiplicity
 _atom_site_fract_x
 _atom_site_fract_y
 _atom_site_fract_z
 _atom_site_occupancy
  Al  Al0  1  0.10781481  0.10103698  0.32375387  1
  Al  Al1  1  0.22396018  0.21160945  0.07466918  1
  Al  Al2  1  0.77364275  0.09582344  0.82178519  1
  Al  Al3  1  0.88623224  0.20666857  0.56757142  1
  Al  Al4  1  0.44610430  0.09389752  0.32190767  1
  Al  Al5  1  0.55567546  0.20531571  0.07174600  1
  Al  Al6  1  0.22376582  0.20666859  0.56757148  1
  Al  Al7  1  0.77666484  0.09389749  0.32190763  1
  Al  Al8  1  0.88109698  0.21160944  0.07466915  1
  Al  Al9  1  0.44720039  0.09582353  0.82178518  1
  Al  Al10  1  0.55534793  0.20597085  0.57166266  1
  Al  Al11  1  0.11084528  0.42914969  0.32155667  1
  Al  Al12  1  0.22064856  0.53603827  0.07092986  1
  Al  Al13  1  0.77404619  0.43073775  0.82155599  1
  Al  Al14  1  0.88891457  0.53883754  0.57175770  1
  Al  Al15  1  0.44448943  0.42768779  0.32175431  1
  Al  Al16  1  0.55997977  0.53603826  0.07092984  1
  Al  Al17  1  0.11188269  0.43073772  0.82155598  1
  Al  Al18  1  0.22328687  0.53713763  0.57222721  1
  Al  Al19  1  0.77667170  0.42914966  0.32155660  1
  Al  Al20  1  0.88895982  0.53874702  0.07273601  1
  Al  Al21  1  0.44441632  0.42783395  0.82273011  1
  Al  Al22  1  0.55624216  0.53713765  0.57222722  1
  Al  Al23  1  0.10700349  0.75686097  0.32480504  1
  Al  Al24  1  0.77807823  0.76051024  0.82182508  1
  Al  Al25  1  0.88748331  0.87262023  0.57243550  1
  Al  Al26  1  0.45280219  0.75686095  0.32480504  1
  Al  Al27  1  0.55979615  0.87100319  0.07124929  1
  Al  Al28  1  0.11167149  0.75753516  0.81835223  1
  Al  Al29  1  0.22317054  0.87032555  0.56479631  1
  Al  Al30  1  0.77764054  0.76138560  0.32137629  1
  Al  Al31  1  0.88586732  0.87100317  0.07124932  1
  Al  Al32  1  0.44745993  0.75753521  0.81835229  1
  Al  Al33  1  0.55656317  0.87262026  0.57243557  1
  Sc  Sc34  1  0.10994896  0.09676824  0.82441790  1
  Sc  Sc35  1  0.22477254  0.86712135  0.08695851  1
  N  N36  1  0.22416993  0.20730549  0.37691755  1
  N  N37  1  0.10040110  0.11586440  0.12974820  1
  N  N38  1  0.86790009  0.21604793  0.88457435  1
  N  N39  1  0.77741423  0.09481965  0.62914317  1
  N  N40  1  0.55532247  0.20602182  0.37940889  1
  N  N41  1  0.44633614  0.09289742  0.13017694  1
  N  N42  1  0.23271857  0.21604791  0.88457429  1
  N  N43  1  0.11122210  0.09422245  0.61079126  1
  N  N44  1  0.88519124  0.20730551  0.37691756  1
  N  N45  1  0.77743315  0.09289737  0.13017685  1
  N  N46  1  0.55538123  0.20590433  0.87979278  1
  N  N47  1  0.44443281  0.09481975  0.62914320  1
  N  N48  1  0.22382882  0.53647376  0.38137670  1
  N  N49  1  0.10998508  0.42953177  0.13075778  1
  N  N50  1  0.88929002  0.53808666  0.87927981  1
  N  N51  1  0.77841056  0.42734457  0.62905003  1
  N  N52  1  0.55636421  0.53647367  0.38137665  1
  N  N53  1  0.44397730  0.42871206  0.12832131  1
  N  N54  1  0.22207996  0.53937691  0.87840484  1
  N  N55  1  0.11091162  0.42734456  0.62904994  1
  N  N56  1  0.88871763  0.53923149  0.37935903  1
  N  N57  1  0.77714990  0.42953168  0.13075777  1
  N  N58  1  0.55520980  0.53937686  0.87840479  1
  N  N59  1  0.44469956  0.42726763  0.63036764  1
  N  N60  1  0.22304474  0.87057715  0.36734389  1
  N  N61  1  0.09866085  0.74888887  0.13610744  1
  N  N62  1  0.88918148  0.87244123  0.87779139  1
  N  N63  1  0.77812511  0.76041665  0.63011075  1
  N  N64  1  0.55704709  0.87312869  0.38144602  1
  N  N65  1  0.46911701  0.74888886  0.13610745  1
  N  N66  1  0.23150800  0.85365064  0.87479137  1
  N  N67  1  0.11092417  0.76066619  0.62518608  1
  N  N68  1  0.88649096  0.87312871  0.38144593  1
  N  N69  1  0.77788517  0.76089647  0.12894122  1
  N  N70  1  0.55504402  0.87244126  0.87779138  1
  N  N71  1  0.44507626  0.76066620  0.62518611  1
