# generated using pymatgen
data_ScAl17N18
_symmetry_space_group_name_H-M   'P 1'
_cell_length_a   9.50040411
_cell_length_b   9.49703363
_cell_length_c   9.99182227
_cell_angle_alpha   89.98574557
_cell_angle_beta   89.99999189
_cell_angle_gamma   59.98825836
_symmetry_Int_Tables_number   1
_chemical_formula_structural   ScAl17N18
_chemical_formula_sum   'Sc2 Al34 N36'
_cell_volume   780.64570100
_cell_formula_units_Z   2
loop_
 _symmetry_equiv_pos_site_id
 _symmetry_equiv_pos_as_xyz
  1  'x, y, z'
loop_
 _atom_site_type_symbol
 _atom_site_label
 _atom_site_symmetry_multiplicity
 _atom_site_fract_x
 _atom_site_fract_y
 _atom_site_fract_z
 _atom_site_occupancy
  Al  Al0  1  0.10782940  0.10100787  0.30811604  1
  Al  Al1  1  0.22392407  0.21160977  0.05898687  1
  Al  Al2  1  0.77365256  0.09582861  0.80610670  1
  Al  Al3  1  0.88618949  0.20669078  0.55180659  1
  Al  Al4  1  0.44610696  0.09390847  0.30618348  1
  Al  Al5  1  0.55566567  0.20533543  0.05603400  1
  Al  Al6  1  0.22378639  0.20669080  0.55180661  1
  Al  Al7  1  0.77665127  0.09390844  0.30618351  1
  Al  Al8  1  0.88113284  0.21160974  0.05898686  1
  Al  Al9  1  0.44718554  0.09582870  0.80610672  1
  Al  Al10  1  0.55535220  0.20596231  0.55597966  1
  Al  Al11  1  0.11083668  0.42916915  0.30583224  1
  Al  Al12  1  0.22065472  0.53606459  0.05524188  1
  Al  Al13  1  0.77403213  0.43074581  0.80588286  1
  Al  Al14  1  0.88891962  0.53882743  0.55607138  1
  Al  Al15  1  0.44448821  0.42769021  0.30606547  1
  Al  Al16  1  0.55994740  0.53606456  0.05524187  1
  Al  Al17  1  0.11188869  0.43074586  0.80588288  1
  Al  Al18  1  0.22327477  0.53714286  0.55650559  1
  Al  Al19  1  0.77666083  0.42916912  0.30583225  1
  Al  Al20  1  0.88894843  0.53876979  0.05702705  1
  Al  Al21  1  0.44440567  0.42785533  0.80701693  1
  Al  Al22  1  0.55624903  0.53714284  0.55650554  1
  Al  Al23  1  0.10703301  0.75689773  0.30906871  1
  Al  Al24  1  0.77806962  0.76052746  0.80611464  1
  Al  Al25  1  0.88748612  0.87262161  0.55670805  1
  Al  Al26  1  0.45273590  0.75689774  0.30906870  1
  Al  Al27  1  0.55978715  0.87101466  0.05556108  1
  Al  Al28  1  0.11164450  0.75755319  0.80261538  1
  Al  Al29  1  0.22318655  0.87029353  0.54908807  1
  Al  Al30  1  0.77764093  0.76138480  0.30568793  1
  Al  Al31  1  0.88586485  0.87101468  0.05556112  1
  Al  Al32  1  0.44746896  0.75755315  0.80261538  1
  Al  Al33  1  0.55655894  0.87262162  0.55670807  1
  Sc  Sc34  1  0.10990300  0.09686087  0.80846137  1
  Sc  Sc35  1  0.22471990  0.86722713  0.07103498  1
  N  N36  1  0.22418581  0.20733109  0.36125769  1
  N  N37  1  0.10039578  0.11587518  0.11424310  1
  N  N38  1  0.86794770  0.21603253  0.86897003  1
  N  N39  1  0.77742883  0.09481386  0.61352886  1
  N  N40  1  0.55532440  0.20601783  0.36379370  1
  N  N41  1  0.44632878  0.09291330  0.11453067  1
  N  N42  1  0.23268654  0.21603251  0.86896996  1
  N  N43  1  0.11121090  0.09424496  0.59497518  1
  N  N44  1  0.88514977  0.20733110  0.36125779  1
  N  N45  1  0.77742458  0.09291330  0.11453073  1
  N  N46  1  0.55537121  0.20592423  0.86415508  1
  N  N47  1  0.44442392  0.09481388  0.61352887  1
  N  N48  1  0.22381395  0.53649763  0.36572684  1
  N  N49  1  0.10997308  0.42956019  0.11511102  1
  N  N50  1  0.88928169  0.53810332  0.86364450  1
  N  N51  1  0.77841094  0.42733147  0.61344014  1
  N  N52  1  0.55635505  0.53649766  0.36572679  1
  N  N53  1  0.44397719  0.42871226  0.11270545  1
  N  N54  1  0.22207985  0.53940354  0.86278902  1
  N  N55  1  0.11092426  0.42733142  0.61344019  1
  N  N56  1  0.88872073  0.53922520  0.36374077  1
  N  N57  1  0.77713340  0.42956022  0.11511100  1
  N  N58  1  0.55518324  0.53940357  0.86278905  1
  N  N59  1  0.44469514  0.42727636  0.61472431  1
  N  N60  1  0.22305031  0.87056606  0.35178437  1
  N  N61  1  0.09869536  0.74894562  0.12045105  1
  N  N62  1  0.88917631  0.87244287  0.86217482  1
  N  N63  1  0.77812228  0.76042203  0.61446793  1
  N  N64  1  0.55702912  0.87313386  0.36579108  1
  N  N65  1  0.46902567  0.74894566  0.12045099  1
  N  N66  1  0.23144952  0.85376770  0.85898081  1
  N  N67  1  0.11091299  0.76065466  0.60954768  1
  N  N68  1  0.88650363  0.87313385  0.36579113  1
  N  N69  1  0.77788235  0.76090185  0.11332751  1
  N  N70  1  0.55504737  0.87244294  0.86217472  1
  N  N71  1  0.44509898  0.76065471  0.60954765  1
