# generated using pymatgen
data_ScAl17N18
_symmetry_space_group_name_H-M   'P 1'
_cell_length_a   10.01484186
_cell_length_b   10.01256289
_cell_length_c   8.45069881
_cell_angle_alpha   90.02582845
_cell_angle_beta   90.00000034
_cell_angle_gamma   59.99246095
_symmetry_Int_Tables_number   1
_chemical_formula_structural   ScAl17N18
_chemical_formula_sum   'Sc2 Al34 N36'
_cell_volume   733.80311562
_cell_formula_units_Z   2
loop_
 _symmetry_equiv_pos_site_id
 _symmetry_equiv_pos_as_xyz
  1  'x, y, z'
loop_
 _atom_site_type_symbol
 _atom_site_label
 _atom_site_symmetry_multiplicity
 _atom_site_fract_x
 _atom_site_fract_y
 _atom_site_fract_z
 _atom_site_occupancy
  Al  Al0  1  0.10913412  0.09839843  0.35784079  1
  Al  Al1  1  0.22359687  0.21015146  0.11116945  1
  Al  Al2  1  0.77405343  0.09499618  0.85715254  1
  Al  Al3  1  0.88261804  0.20865959  0.60202067  1
  Al  Al4  1  0.44647497  0.09387025  0.35714410  1
  Al  Al5  1  0.55528901  0.20608867  0.10765091  1
  Al  Al6  1  0.22538898  0.20865961  0.60202067  1
  Al  Al7  1  0.77632146  0.09387021  0.35714407  1
  Al  Al8  1  0.88291841  0.21015140  0.11116945  1
  Al  Al9  1  0.44761698  0.09499626  0.85715253  1
  Al  Al10  1  0.55555883  0.20554897  0.60682119  1
  Al  Al11  1  0.10979730  0.42958891  0.35768281  1
  Al  Al12  1  0.22219641  0.53532357  0.10861727  1
  Al  Al13  1  0.77390834  0.43099154  0.85674868  1
  Al  Al14  1  0.88884337  0.53897992  0.60736041  1
  Al  Al15  1  0.44472166  0.42722338  0.35826018  1
  Al  Al16  1  0.55914675  0.53532358  0.10861726  1
  Al  Al17  1  0.11176675  0.43099157  0.85674865  1
  Al  Al18  1  0.22295030  0.53739676  0.60609510  1
  Al  Al19  1  0.77728049  0.42958889  0.35768281  1
  Al  Al20  1  0.88869347  0.53927975  0.10704886  1
  Al  Al21  1  0.44445362  0.42775943  0.85620275  1
  Al  Al22  1  0.55631961  0.53739677  0.60609512  1
  Al  Al23  1  0.10834025  0.75830953  0.36034080  1
  Al  Al24  1  0.77772687  0.76121291  0.85595600  1
  Al  Al25  1  0.88710834  0.87299824  0.60637911  1
  Al  Al26  1  0.45001693  0.75830953  0.36034081  1
  Al  Al27  1  0.55976330  0.87129250  0.10807971  1
  Al  Al28  1  0.10944453  0.75616201  0.85289592  1
  Al  Al29  1  0.22436281  0.86794105  0.60243316  1
  Al  Al30  1  0.77812680  0.76041310  0.35882291  1
  Al  Al31  1  0.88561095  0.87129242  0.10807970  1
  Al  Al32  1  0.45106012  0.75616204  0.85289590  1
  Al  Al33  1  0.55656009  0.87299827  0.60637912  1
  Sc  Sc34  1  0.10840139  0.09986384  0.85062266  1
  Sc  Sc35  1  0.22483105  0.86700465  0.10761069  1
  N  N36  1  0.22401853  0.20711426  0.35429159  1
  N  N37  1  0.10262085  0.11142507  0.11134279  1
  N  N38  1  0.86890862  0.21554307  0.84866958  1
  N  N39  1  0.77579253  0.09412474  0.59924607  1
  N  N40  1  0.55510965  0.20644733  0.35014206  1
  N  N41  1  0.44537965  0.09338819  0.10368624  1
  N  N42  1  0.23221487  0.21554311  0.84866955  1
  N  N43  1  0.11006550  0.09653560  0.59422380  1
  N  N44  1  0.88553386  0.20711425  0.35429155  1
  N  N45  1  0.77789891  0.09338812  0.10368624  1
  N  N46  1  0.55550171  0.20566321  0.85287545  1
  N  N47  1  0.44674936  0.09412478  0.59924610  1
  N  N48  1  0.22366916  0.53712625  0.35350924  1
  N  N49  1  0.11062819  0.42847380  0.10326237  1
  N  N50  1  0.88928456  0.53809751  0.85244600  1
  N  N51  1  0.77733177  0.43005236  0.59948152  1
  N  N52  1  0.55587125  0.53712625  0.35350923  1
  N  N53  1  0.44403570  0.42859534  0.10113499  1
  N  N54  1  0.22316836  0.53765361  0.84948802  1
  N  N55  1  0.10928256  0.43005238  0.59948150  1
  N  N56  1  0.88843628  0.53979407  0.35040332  1
  N  N57  1  0.77756477  0.42847378  0.10326236  1
  N  N58  1  0.55584466  0.53765362  0.84948803  1
  N  N59  1  0.44496471  0.42673730  0.60196998  1
  N  N60  1  0.22334273  0.86998127  0.36288836  1
  N  N61  1  0.10130007  0.75095597  0.10277265  1
  N  N62  1  0.88749481  0.87349313  0.84961233  1
  N  N63  1  0.77827028  0.76012616  0.60259550  1
  N  N64  1  0.55737574  0.87216232  0.35339371  1
  N  N65  1  0.46441072  0.75095599  0.10277264  1
  N  N66  1  0.23072637  0.85521388  0.84547933  1
  N  N67  1  0.10923828  0.75961868  0.60101431  1
  N  N68  1  0.88712864  0.87216228  0.35339369  1
  N  N69  1  0.77784616  0.76097440  0.10020102  1
  N  N70  1  0.55567868  0.87349320  0.84961234  1
  N  N71  1  0.44780973  0.75961869  0.60101434  1
