# generated using pymatgen
data_ScAl17N18
_symmetry_space_group_name_H-M   'P 1'
_cell_length_a   9.75039605
_cell_length_b   9.74718346
_cell_length_c   9.26514995
_cell_angle_alpha   90.01993840
_cell_angle_beta   89.99999684
_cell_angle_gamma   59.98912679
_symmetry_Int_Tables_number   1
_chemical_formula_structural   ScAl17N18
_chemical_formula_sum   'Sc2 Al34 N36'
_cell_volume   762.49473994
_cell_formula_units_Z   2
loop_
 _symmetry_equiv_pos_site_id
 _symmetry_equiv_pos_as_xyz
  1  'x, y, z'
loop_
 _atom_site_type_symbol
 _atom_site_label
 _atom_site_symmetry_multiplicity
 _atom_site_fract_x
 _atom_site_fract_y
 _atom_site_fract_z
 _atom_site_occupancy
  Al  Al0  1  0.11051922  0.09562818  0.37808829  1
  Al  Al1  1  0.22187037  0.20921453  0.13097399  1
  Al  Al2  1  0.77446310  0.09528021  0.87773805  1
  Al  Al3  1  0.87941646  0.21026442  0.61888992  1
  Al  Al4  1  0.44720111  0.09386936  0.37421945  1
  Al  Al5  1  0.55493949  0.20678770  0.12439961  1
  Al  Al6  1  0.22698579  0.21026441  0.61888990  1
  Al  Al7  1  0.77559617  0.09386936  0.37421943  1
  Al  Al8  1  0.88558178  0.20921453  0.13097397  1
  Al  Al9  1  0.44692328  0.09528024  0.87773802  1
  Al  Al10  1  0.55599408  0.20467850  0.62806543  1
  Al  Al11  1  0.10870377  0.43057901  0.37495681  1
  Al  Al12  1  0.22220235  0.53536285  0.12797257  1
  Al  Al13  1  0.77309811  0.43005330  0.87762163  1
  Al  Al14  1  0.88901162  0.53864347  0.62811787  1
  Al  Al15  1  0.44497836  0.42670993  0.37715301  1
  Al  Al16  1  0.55910153  0.53536281  0.12797260  1
  Al  Al17  1  0.11351528  0.43005328  0.87762163  1
  Al  Al18  1  0.22236984  0.53738485  0.62486007  1
  Al  Al19  1  0.77738392  0.43057899  0.37495682  1
  Al  Al20  1  0.88858068  0.53950536  0.12323367  1
  Al  Al21  1  0.44411913  0.42842841  0.87445217  1
  Al  Al22  1  0.55691203  0.53738484  0.62486004  1
  Al  Al23  1  0.10951607  0.75959274  0.37844563  1
  Al  Al24  1  0.77721672  0.76223326  0.87474166  1
  Al  Al25  1  0.88688693  0.87338538  0.62484400  1
  Al  Al26  1  0.44755787  0.75959274  0.37844561  1
  Al  Al27  1  0.56047305  0.87040403  0.12741863  1
  Al  Al28  1  0.10850208  0.75465532  0.87254115  1
  Al  Al29  1  0.22530937  0.86604805  0.61957394  1
  Al  Al30  1  0.77852773  0.75961120  0.37777365  1
  Al  Al31  1  0.88578964  0.87040399  0.12741866  1
  Al  Al32  1  0.45350929  0.75465529  0.87254117  1
  Al  Al33  1  0.55639442  0.87338537  0.62484403  1
  Sc  Sc34  1  0.10753220  0.10160228  0.85462787  1
  Sc  Sc35  1  0.22376304  0.86914038  0.11297699  1
  N  N36  1  0.22291528  0.20629426  0.33942525  1
  N  N37  1  0.10136957  0.11392747  0.08915971  1
  N  N38  1  0.86429834  0.21764641  0.82513262  1
  N  N39  1  0.77500035  0.09363082  0.57951220  1
  N  N40  1  0.55495308  0.20676053  0.33027234  1
  N  N41  1  0.44399990  0.09369057  0.08600421  1
  N  N42  1  0.23472193  0.21764637  0.82513261  1
  N  N43  1  0.11042423  0.09581811  0.59260956  1
  N  N44  1  0.88745719  0.20629426  0.33942523  1
  N  N45  1  0.77897612  0.09369054  0.08600422  1
  N  N46  1  0.55574897  0.20516875  0.83556130  1
  N  N47  1  0.44803541  0.09363080  0.57951222  1
  N  N48  1  0.22331297  0.53821408  0.33484520  1
  N  N49  1  0.11199489  0.42699870  0.08509427  1
  N  N50  1  0.88957803  0.53751073  0.83601806  1
  N  N51  1  0.77711265  0.43137392  0.58004945  1
  N  N52  1  0.55513972  0.53821406  0.33484521  1
  N  N53  1  0.44370205  0.42926251  0.08234504  1
  N  N54  1  0.22328431  0.53702829  0.83043125  1
  N  N55  1  0.10818005  0.43137392  0.58004946  1
  N  N56  1  0.88829133  0.54008410  0.32998199  1
  N  N57  1  0.77767306  0.42699870  0.08509427  1
  N  N58  1  0.55635416  0.53702828  0.83043122  1
  N  N59  1  0.44517432  0.42631796  0.58379063  1
  N  N60  1  0.22268812  0.87129054  0.34822043  1
  N  N61  1  0.09986262  0.74943402  0.07999435  1
  N  N62  1  0.88678682  0.87429955  0.83108307  1
  N  N63  1  0.77845930  0.75974804  0.58439702  1
  N  N64  1  0.55716870  0.87134085  0.33448417  1
  N  N65  1  0.46737006  0.74943397  0.07999437  1
  N  N66  1  0.23212943  0.85240794  0.83803902  1
  N  N67  1  0.10926370  0.75968202  0.58494615  1
  N  N68  1  0.88815721  0.87134084  0.33448419  1
  N  N69  1  0.77756974  0.76152714  0.08126642  1
  N  N70  1  0.55558040  0.87429954  0.83108309  1
  N  N71  1  0.44772095  0.75968200  0.58494612  1
