# generated using pymatgen
data_ScAl17N18
_symmetry_space_group_name_H-M   'P 1'
_cell_length_a   9.50173677
_cell_length_b   9.49837014
_cell_length_c   9.98830902
_cell_angle_alpha   89.98711832
_cell_angle_beta   90.00001053
_cell_angle_gamma   59.98828420
_symmetry_Int_Tables_number   1
_chemical_formula_structural   ScAl17N18
_chemical_formula_sum   'Sc2 Al34 N36'
_cell_volume   780.59072745
_cell_formula_units_Z   2
loop_
 _symmetry_equiv_pos_site_id
 _symmetry_equiv_pos_as_xyz
  1  'x, y, z'
loop_
 _atom_site_type_symbol
 _atom_site_label
 _atom_site_symmetry_multiplicity
 _atom_site_fract_x
 _atom_site_fract_y
 _atom_site_fract_z
 _atom_site_occupancy
  Al  Al0  1  0.10780693  0.10105273  0.30104020  1
  Al  Al1  1  0.22393706  0.21162319  0.05192137  1
  Al  Al2  1  0.77364134  0.09583715  0.79903999  1
  Al  Al3  1  0.88619956  0.20669523  0.54478360  1
  Al  Al4  1  0.44610174  0.09391600  0.29914176  1
  Al  Al5  1  0.55566477  0.20533715  0.04898591  1
  Al  Al6  1  0.22377182  0.20669521  0.54478365  1
  Al  Al7  1  0.77664891  0.09391599  0.29914171  1
  Al  Al8  1  0.88110636  0.21162320  0.05192135  1
  Al  Al9  1  0.44718810  0.09583721  0.79904002  1
  Al  Al10  1  0.55534391  0.20597888  0.54891793  1
  Al  Al11  1  0.11083541  0.42917612  0.29878861  1
  Al  Al12  1  0.22064673  0.53606256  0.04817728  1
  Al  Al13  1  0.77403375  0.43075385  0.79881341  1
  Al  Al14  1  0.88891133  0.53884401  0.54900964  1
  Al  Al15  1  0.44448181  0.42770311  0.29900895  1
  Al  Al16  1  0.55995744  0.53606255  0.04817730  1
  Al  Al17  1  0.11187910  0.43075382  0.79881338  1
  Al  Al18  1  0.22327450  0.53715362  0.54946588  1
  Al  Al19  1  0.77665515  0.42917615  0.29878858  1
  Al  Al20  1  0.88894806  0.53877062  0.04997716  1
  Al  Al21  1  0.44440560  0.42785554  0.79996612  1
  Al  Al22  1  0.55623858  0.53715364  0.54946593  1
  Al  Al23  1  0.10700343  0.75688582  0.30203317  1
  Al  Al24  1  0.77806924  0.76052817  0.79906482  1
  Al  Al25  1  0.88747756  0.87263391  0.54967112  1
  Al  Al26  1  0.45277739  0.75688581  0.30203322  1
  Al  Al27  1  0.55978784  0.87101989  0.04849847  1
  Al  Al28  1  0.11165651  0.75756164  0.79558546  1
  Al  Al29  1  0.22317177  0.87032305  0.54202288  1
  Al  Al30  1  0.77763384  0.76139898  0.29863048  1
  Al  Al31  1  0.88585894  0.87101990  0.04849843  1
  Al  Al32  1  0.44744845  0.75756167  0.79558552  1
  Al  Al33  1  0.55655518  0.87263392  0.54967116  1
  Sc  Sc34  1  0.10992425  0.09681811  0.80154550  1
  Sc  Sc35  1  0.22473936  0.86718793  0.06414806  1
  N  N36  1  0.22417480  0.20733818  0.35416917  1
  N  N37  1  0.10038540  0.11589577  0.10707827  1
  N  N38  1  0.86791547  0.21605315  0.86184859  1
  N  N39  1  0.77741399  0.09482954  0.60641719  1
  N  N40  1  0.55531616  0.20603439  0.35668384  1
  N  N41  1  0.44632741  0.09291536  0.10743528  1
  N  N42  1  0.23269796  0.21605309  0.86184848  1
  N  N43  1  0.11121029  0.09424595  0.58795133  1
  N  N44  1  0.88515364  0.20733820  0.35416908  1
  N  N45  1  0.77742389  0.09291534  0.10743529  1
  N  N46  1  0.55537026  0.20592619  0.85705499  1
  N  N47  1  0.44442312  0.09482957  0.60641726  1
  N  N48  1  0.22381535  0.53649922  0.35863858  1
  N  N49  1  0.10997458  0.42955858  0.10801431  1
  N  N50  1  0.88928059  0.53810556  0.85654327  1
  N  N51  1  0.77840412  0.42735205  0.60632582  1
  N  N52  1  0.55635221  0.53649919  0.35863849  1
  N  N53  1  0.44397070  0.42872534  0.10559565  1
  N  N54  1  0.22207431  0.53940302  0.85567358  1
  N  N55  1  0.11091050  0.42735206  0.60632586  1
  N  N56  1  0.88871262  0.53924149  0.35663019  1
  N  N57  1  0.77713354  0.42955861  0.10801433  1
  N  N58  1  0.55518940  0.53940306  0.85567360  1
  N  N59  1  0.44469168  0.42728336  0.60762636  1
  N  N60  1  0.22304069  0.87058528  0.34461521  1
  N  N61  1  0.09866435  0.74892098  0.11336283  1
  N  N62  1  0.88917296  0.87245403  0.85506130  1
  N  N63  1  0.77811858  0.76042953  0.60737102  1
  N  N64  1  0.55703292  0.87314614  0.35870527  1
  N  N65  1  0.46908138  0.74892094  0.11336286  1
  N  N66  1  0.23147192  0.85372279  0.85200104  1
  N  N67  1  0.11091440  0.76067715  0.60244753  1
  N  N68  1  0.88648762  0.87314616  0.35870518  1
  N  N69  1  0.77787728  0.76091210  0.10621700  1
  N  N70  1  0.55503970  0.87245405  0.85506130  1
  N  N71  1  0.44507503  0.76067718  0.60244757  1
