# generated using pymatgen
data_ScAl17N18
_symmetry_space_group_name_H-M   'P 1'
_cell_length_a   9.50046212
_cell_length_b   9.49708991
_cell_length_c   9.99166848
_cell_angle_alpha   89.98587273
_cell_angle_beta   90.00000257
_cell_angle_gamma   59.98825825
_symmetry_Int_Tables_number   1
_chemical_formula_structural   ScAl17N18
_chemical_formula_sum   'Sc2 Al34 N36'
_cell_volume   780.64307838
_cell_formula_units_Z   2
loop_
 _symmetry_equiv_pos_site_id
 _symmetry_equiv_pos_as_xyz
  1  'x, y, z'
loop_
 _atom_site_type_symbol
 _atom_site_label
 _atom_site_symmetry_multiplicity
 _atom_site_fract_x
 _atom_site_fract_y
 _atom_site_fract_z
 _atom_site_occupancy
  Al  Al0  1  0.11016762  0.09633140  0.39788704  1
  Al  Al1  1  0.22170758  0.20907498  0.14435188  1
  Al  Al2  1  0.77356547  0.09561209  0.89141259  1
  Al  Al3  1  0.88061458  0.20972952  0.63790318  1
  Al  Al4  1  0.44586744  0.09400358  0.39026879  1
  Al  Al5  1  0.55528408  0.20609850  0.14086279  1
  Al  Al6  1  0.22632256  0.20972953  0.63790320  1
  Al  Al7  1  0.77679563  0.09400357  0.39026877  1
  Al  Al8  1  0.88588410  0.20907497  0.14435185  1
  Al  Al9  1  0.44748914  0.09561210  0.89141258  1
  Al  Al10  1  0.55571276  0.20524116  0.64128810  1
  Al  Al11  1  0.11007966  0.42948193  0.39047133  1
  Al  Al12  1  0.22146483  0.53588091  0.14109414  1
  Al  Al13  1  0.77340421  0.43056387  0.89173131  1
  Al  Al14  1  0.88886540  0.53893587  0.64091028  1
  Al  Al15  1  0.44443460  0.42779743  0.39090577  1
  Al  Al16  1  0.55932095  0.53588090  0.14109416  1
  Al  Al17  1  0.11269860  0.43056389  0.89173132  1
  Al  Al18  1  0.22251716  0.53745848  0.64114354  1
  Al  Al19  1  0.77710506  0.42948191  0.39047131  1
  Al  Al20  1  0.88894772  0.53877123  0.13996129  1
  Al  Al21  1  0.44440483  0.42785698  0.88995121  1
  Al  Al22  1  0.55669105  0.53745846  0.64114354  1
  Al  Al23  1  0.10956870  0.75993588  0.39516168  1
  Al  Al24  1  0.77768794  0.76129080  0.89094325  1
  Al  Al25  1  0.88724844  0.87271613  0.64079258  1
  Al  Al26  1  0.44716210  0.75993588  0.39516169  1
  Al  Al27  1  0.55970135  0.87079863  0.14087055  1
  Al  Al28  1  0.10942813  0.75501709  0.88799057  1
  Al  Al29  1  0.22552567  0.86561534  0.63886326  1
  Al  Al30  1  0.77800179  0.76066307  0.39099828  1
  Al  Al31  1  0.88616673  0.87079858  0.14087055  1
  Al  Al32  1  0.45222149  0.75501708  0.88799055  1
  Al  Al33  1  0.55670212  0.87271614  0.64079257  1
  Sc  Sc34  1  0.10863092  0.09940509  0.87592452  1
  Sc  Sc35  1  0.22344639  0.86977425  0.13850187  1
  N  N36  1  0.22244058  0.20597020  0.33742559  1
  N  N37  1  0.10189999  0.11286669  0.08798119  1
  N  N38  1  0.86432173  0.21768430  0.82652237  1
  N  N39  1  0.77632438  0.09349094  0.58118612  1
  N  N40  1  0.55523200  0.20620265  0.33251026  1
  N  N41  1  0.44417769  0.09418353  0.08480023  1
  N  N42  1  0.23466064  0.21768428  0.82652239  1
  N  N43  1  0.11030379  0.09605907  0.59519488  1
  N  N44  1  0.88825590  0.20597016  0.33742560  1
  N  N45  1  0.77830545  0.09418352  0.08480022  1
  N  N46  1  0.55547069  0.20572536  0.83364897  1
  N  N47  1  0.44685133  0.09349095  0.58118616  1
  N  N48  1  0.22243048  0.53929269  0.33353712  1
  N  N49  1  0.11127269  0.42722588  0.08418573  1
  N  N50  1  0.88937607  0.53791453  0.83427033  1
  N  N51  1  0.77699752  0.43012924  0.58125040  1
  N  N52  1  0.55494346  0.53929270  0.33353717  1
  N  N53  1  0.44407192  0.42852281  0.08333408  1
  N  N54  1  0.22338051  0.53706836  0.83186601  1
  N  N55  1  0.10953989  0.43012925  0.58125035  1
  N  N56  1  0.88865893  0.53934881  0.33225461  1
  N  N57  1  0.77816811  0.42722586  0.08418579  1
  N  N58  1  0.55621786  0.53706832  0.83186600  1
  N  N59  1  0.44463325  0.42740012  0.58323675  1
  N  N60  1  0.22214186  0.87238298  0.35199142  1
  N  N61  1  0.10066577  0.75059394  0.07800937  1
  N  N62  1  0.88702511  0.87371242  0.83244633  1
  N  N63  1  0.77802946  0.76060775  0.58318441  1
  N  N64  1  0.55592606  0.87181172  0.33344861  1
  N  N65  1  0.46540702  0.75059393  0.07800939  1
  N  N66  1  0.23295771  0.85075129  0.83273887  1
  N  N67  1  0.10916919  0.75929567  0.58571505  1
  N  N68  1  0.88892890  0.87181170  0.33344861  1
  N  N69  1  0.77798217  0.76070232  0.08282294  1
  N  N70  1  0.55592916  0.87371243  0.83244631  1
  N  N71  1  0.44820183  0.75929565  0.58571510  1
