# generated using pymatgen
data_ScAl17N18
_symmetry_space_group_name_H-M   'P 1'
_cell_length_a   9.58875470
_cell_length_b   9.58519471
_cell_length_c   9.74695009
_cell_angle_alpha   90.00833565
_cell_angle_beta   90.00002951
_cell_angle_gamma   59.98774588
_symmetry_Int_Tables_number   1
_chemical_formula_structural   ScAl17N18
_chemical_formula_sum   'Sc2 Al34 N36'
_cell_volume   775.72694259
_cell_formula_units_Z   2
loop_
 _symmetry_equiv_pos_site_id
 _symmetry_equiv_pos_as_xyz
  1  'x, y, z'
loop_
 _atom_site_type_symbol
 _atom_site_label
 _atom_site_symmetry_multiplicity
 _atom_site_fract_x
 _atom_site_fract_y
 _atom_site_fract_z
 _atom_site_occupancy
  Al  Al0  1  0.10744835  0.10176995  0.32847030  1
  Al  Al1  1  0.22474592  0.21215922  0.07979701  1
  Al  Al2  1  0.77318306  0.09604079  0.82650916  1
  Al  Al3  1  0.88684174  0.20645829  0.57436794  1
  Al  Al4  1  0.44615205  0.09368345  0.32790035  1
  Al  Al5  1  0.55584858  0.20496953  0.07757705  1
  Al  Al6  1  0.22336666  0.20645829  0.57436795  1
  Al  Al7  1  0.77683111  0.09368346  0.32790034  1
  Al  Al8  1  0.87976154  0.21215922  0.07979701  1
  Al  Al9  1  0.44744275  0.09604082  0.82650914  1
  Al  Al10  1  0.55511580  0.20643512  0.57649970  1
  Al  Al11  1  0.11092372  0.42907960  0.32763737  1
  Al  Al12  1  0.22022446  0.53612472  0.07590552  1
  Al  Al13  1  0.77402031  0.43105380  0.82615222  1
  Al  Al14  1  0.88867632  0.53931407  0.57677889  1
  Al  Al15  1  0.44443932  0.42778798  0.32647812  1
  Al  Al16  1  0.56031750  0.53612472  0.07590552  1
  Al  Al17  1  0.11159253  0.43105378  0.82615221  1
  Al  Al18  1  0.22379263  0.53686430  0.57807108  1
  Al  Al19  1  0.77666330  0.42907962  0.32763736  1
  Al  Al20  1  0.88907342  0.53851985  0.07835622  1
  Al  Al21  1  0.44454318  0.42758025  0.82875832  1
  Al  Al22  1  0.55600977  0.53686429  0.57807108  1
  Al  Al23  1  0.10625455  0.75626040  0.33155767  1
  Al  Al24  1  0.77819747  0.76027166  0.82775994  1
  Al  Al25  1  0.88704145  0.87273109  0.57848093  1
  Al  Al26  1  0.45415173  0.75626039  0.33155768  1
  Al  Al27  1  0.55961417  0.87107936  0.07613641  1
  Al  Al28  1  0.11198899  0.75763098  0.82377286  1
  Al  Al29  1  0.22264880  0.87136913  0.57107247  1
  Al  Al30  1  0.77751680  0.76163302  0.32619612  1
  Al  Al31  1  0.88597318  0.87107934  0.07613643  1
  Al  Al32  1  0.44704668  0.75763097  0.82377287  1
  Al  Al33  1  0.55689415  0.87273111  0.57848095  1
  Sc  Sc34  1  0.11025752  0.09615153  0.83687111  1
  Sc  Sc35  1  0.22569696  0.86527272  0.09745384  1
  N  N36  1  0.22384569  0.20695582  0.37896114  1
  N  N37  1  0.10046265  0.11574135  0.12750769  1
  N  N38  1  0.86617117  0.21699799  0.88528952  1
  N  N39  1  0.77688826  0.09508783  0.63012371  1
  N  N40  1  0.55514301  0.20638071  0.38044594  1
  N  N41  1  0.44646449  0.09267374  0.13222888  1
  N  N42  1  0.23349755  0.21699797  0.88528952  1
  N  N43  1  0.11118494  0.09429678  0.61649981  1
  N  N44  1  0.88586522  0.20695584  0.37896113  1
  N  N45  1  0.77752840  0.09267374  0.13222887  1
  N  N46  1  0.55553944  0.20558785  0.88171404  1
  N  N47  1  0.44469056  0.09508784  0.63012371  1
  N  N48  1  0.22436488  0.53591005  0.38339319  1
  N  N49  1  0.11006114  0.42946783  0.13282474  1
  N  N50  1  0.88942985  0.53780705  0.88103934  1
  N  N51  1  0.77829248  0.42785549  0.62992730  1
  N  N52  1  0.55639182  0.53591004  0.38339319  1
  N  N53  1  0.44384827  0.42897008  0.12918240  1
  N  N54  1  0.22176229  0.53945786  0.87941383  1
  N  N55  1  0.11051867  0.42785549  0.62992729  1
  N  N56  1  0.88848868  0.53968940  0.38059538  1
  N  N57  1  0.77713766  0.42946784  0.13282474  1
  N  N58  1  0.55544657  0.53945786  0.87941384  1
  N  N59  1  0.44482000  0.42702665  0.63255891  1
  N  N60  1  0.22279635  0.87107407  0.36778357  1
  N  N61  1  0.09798937  0.74826575  0.13827760  1
  N  N62  1  0.88924908  0.87270560  0.87875767  1
  N  N63  1  0.77819909  0.76026847  0.63229229  1
  N  N64  1  0.55762293  0.87312330  0.38364384  1
  N  N65  1  0.47041161  0.74826572  0.13827762  1
  N  N66  1  0.23232726  0.85201225  0.87895149  1
  N  N67  1  0.11097940  0.76089644  0.62616869  1
  N  N68  1  0.88592053  0.87312330  0.38364381  1
  N  N69  1  0.77775918  0.76114831  0.12973581  1
  N  N70  1  0.55471206  0.87270562  0.87875767  1
  N  N71  1  0.44479082  0.76089642  0.62616869  1
