# generated using pymatgen
data_ScAl17N18
_symmetry_space_group_name_H-M   'P 1'
_cell_length_a   10.01435464
_cell_length_b   10.01205675
_cell_length_c   8.45199093
_cell_angle_alpha   90.02585829
_cell_angle_beta   89.99999994
_cell_angle_gamma   59.99241594
_symmetry_Int_Tables_number   1
_chemical_formula_structural   ScAl17N18
_chemical_formula_sum   'Sc2 Al34 N36'
_cell_volume   733.84217880
_cell_formula_units_Z   2
loop_
 _symmetry_equiv_pos_site_id
 _symmetry_equiv_pos_as_xyz
  1  'x, y, z'
loop_
 _atom_site_type_symbol
 _atom_site_label
 _atom_site_symmetry_multiplicity
 _atom_site_fract_x
 _atom_site_fract_y
 _atom_site_fract_z
 _atom_site_occupancy
  Al  Al0  1  0.10899624  0.09867418  0.35600477  1
  Al  Al1  1  0.22391466  0.21045503  0.10552369  1
  Al  Al2  1  0.77359354  0.09532559  0.85033099  1
  Al  Al3  1  0.88334655  0.20830486  0.59808043  1
  Al  Al4  1  0.44624969  0.09361745  0.35203657  1
  Al  Al5  1  0.55563332  0.20540008  0.10245770  1
  Al  Al6  1  0.22501526  0.20830487  0.59808044  1
  Al  Al7  1  0.77679954  0.09361740  0.35203656  1
  Al  Al8  1  0.88229704  0.21045499  0.10552369  1
  Al  Al9  1  0.44774745  0.09532567  0.85033102  1
  Al  Al10  1  0.55523007  0.20620654  0.59958720  1
  Al  Al11  1  0.11040980  0.42921970  0.35231928  1
  Al  Al12  1  0.22158792  0.53562727  0.10165772  1
  Al  Al13  1  0.77421241  0.43129458  0.84979327  1
  Al  Al14  1  0.88863525  0.53939618  0.60015137  1
  Al  Al15  1  0.44451421  0.42763827  0.35104465  1
  Al  Al16  1  0.55945154  0.53562729  0.10165769  1
  Al  Al17  1  0.11115961  0.43129459  0.84979325  1
  Al  Al18  1  0.22356515  0.53702378  0.60073406  1
  Al  Al19  1  0.77703716  0.42921970  0.35231926  1
  Al  Al20  1  0.88890599  0.53885473  0.10221308  1
  Al  Al21  1  0.44466560  0.42733544  0.85137227  1
  Al  Al22  1  0.55607776  0.53702381  0.60073407  1
  Al  Al23  1  0.10796835  0.75795552  0.35640826  1
  Al  Al24  1  0.77807030  0.76052601  0.85077112  1
  Al  Al25  1  0.88688004  0.87274604  0.60127263  1
  Al  Al26  1  0.45074283  0.75795553  0.35640825  1
  Al  Al27  1  0.55930133  0.87162157  0.10125542  1
  Al  Al28  1  0.10976410  0.75646820  0.84723522  1
  Al  Al29  1  0.22422095  0.86822480  0.60058845  1
  Al  Al30  1  0.77779799  0.76107070  0.35158243  1
  Al  Al31  1  0.88574387  0.87162149  0.10125541  1
  Al  Al32  1  0.45043429  0.75646825  0.84723522  1
  Al  Al33  1  0.55704060  0.87274609  0.60127265  1
  Sc  Sc34  1  0.10852810  0.09961043  0.85083623  1
  Sc  Sc35  1  0.22495863  0.86674949  0.10782638  1
  N  N36  1  0.22411871  0.20699611  0.35745726  1
  N  N37  1  0.10263052  0.11140570  0.11296819  1
  N  N38  1  0.86894313  0.21566349  0.85571040  1
  N  N39  1  0.77598130  0.09445752  0.60508519  1
  N  N40  1  0.55508692  0.20649284  0.35588040  1
  N  N41  1  0.44586379  0.09312129  0.10887107  1
  N  N42  1  0.23205999  0.21566352  0.85571037  1
  N  N43  1  0.11001683  0.09663295  0.59557462  1
  N  N44  1  0.88555187  0.20699610  0.35745722  1
  N  N45  1  0.77768165  0.09312120  0.10887108  1
  N  N46  1  0.55551368  0.20563932  0.85828782  1
  N  N47  1  0.44622781  0.09445757  0.60508520  1
  N  N48  1  0.22408041  0.53656012  0.35900544  1
  N  N49  1  0.11019052  0.42896357  0.10899739  1
  N  N50  1  0.88932401  0.53801862  0.85735085  1
  N  N51  1  0.77748950  0.42948889  0.60496863  1
  N  N52  1  0.55602615  0.53656014  0.35900543  1
  N  N53  1  0.44407253  0.42852164  0.10602593  1
  N  N54  1  0.22272537  0.53814765  0.85521645  1
  N  N55  1  0.10968829  0.42948889  0.60496861  1
  N  N56  1  0.88839203  0.53988259  0.35650730  1
  N  N57  1  0.77751262  0.42896356  0.10899737  1
  N  N58  1  0.55579360  0.53814768  0.85521645  1
  N  N59  1  0.44492325  0.42682021  0.60808964  1
  N  N60  1  0.22329123  0.87008430  0.36422436  1
  N  N61  1  0.10114040  0.75107115  0.10982698  1
  N  N62  1  0.88798359  0.87322818  0.85479008  1
  N  N63  1  0.77824946  0.76016776  0.60834930  1
  N  N64  1  0.55756900  0.87249232  0.35924167  1
  N  N65  1  0.46445516  0.75107118  0.10982696  1
  N  N66  1  0.23073920  0.85518819  0.84712549  1
  N  N67  1  0.10934180  0.75950408  0.60417304  1
  N  N68  1  0.88660543  0.87249227  0.35924167  1
  N  N69  1  0.77785513  0.76095642  0.10559783  1
  N  N70  1  0.55545485  0.87322825  0.85479009  1
  N  N71  1  0.44782078  0.75950411  0.60417306  1
