# generated using pymatgen
data_ScAl17N18
_symmetry_space_group_name_H-M   'P 1'
_cell_length_a   9.64431227
_cell_length_b   9.64083104
_cell_length_c   9.58522621
_cell_angle_alpha   90.01358216
_cell_angle_beta   89.99999875
_cell_angle_gamma   59.98807145
_symmetry_Int_Tables_number   1
_chemical_formula_structural   ScAl17N18
_chemical_formula_sum   'Sc2 Al34 N36'
_cell_volume   771.73198925
_cell_formula_units_Z   2
loop_
 _symmetry_equiv_pos_site_id
 _symmetry_equiv_pos_as_xyz
  1  'x, y, z'
loop_
 _atom_site_type_symbol
 _atom_site_label
 _atom_site_symmetry_multiplicity
 _atom_site_fract_x
 _atom_site_fract_y
 _atom_site_fract_z
 _atom_site_occupancy
  Al  Al0  1  0.11076034  0.09514595  0.38488627  1
  Al  Al1  1  0.22143089  0.20900022  0.13364287  1
  Al  Al2  1  0.77397156  0.09547743  0.88109420  1
  Al  Al3  1  0.87899408  0.21046002  0.62448936  1
  Al  Al4  1  0.44663771  0.09386419  0.37823594  1
  Al  Al5  1  0.55507869  0.20650935  0.12882609  1
  Al  Al6  1  0.22721257  0.21046002  0.62448936  1
  Al  Al7  1  0.77616477  0.09386419  0.37823593  1
  Al  Al8  1  0.88623558  0.20900024  0.13364286  1
  Al  Al9  1  0.44721764  0.09547748  0.88109418  1
  Al  Al10  1  0.55589993  0.20486685  0.63114100  1
  Al  Al11  1  0.10923449  0.43005494  0.37875975  1
  Al  Al12  1  0.22190680  0.53546799  0.13115450  1
  Al  Al13  1  0.77302384  0.43032167  0.88122014  1
  Al  Al14  1  0.88894172  0.53878327  0.63096127  1
  Al  Al15  1  0.44478913  0.42708840  0.38040567  1
  Al  Al16  1  0.55929190  0.53546799  0.13115449  1
  Al  Al17  1  0.11332118  0.43032167  0.88122015  1
  Al  Al18  1  0.22240724  0.53749359  0.62904460  1
  Al  Al19  1  0.77737724  0.43005493  0.37875975  1
  Al  Al20  1  0.88873668  0.53919335  0.12776441  1
  Al  Al21  1  0.44422835  0.42820997  0.87848291  1
  Al  Al22  1  0.55676590  0.53749356  0.62904459  1
  Al  Al23  1  0.10992795  0.76006377  0.38229536  1
  Al  Al24  1  0.77739755  0.76187157  0.87910191  1
  Al  Al25  1  0.88708350  0.87309879  0.62886031  1
  Al  Al26  1  0.44667494  0.76006377  0.38229535  1
  Al  Al27  1  0.56032189  0.87049245  0.13073263  1
  Al  Al28  1  0.10844136  0.75438229  0.87701276  1
  Al  Al29  1  0.22582408  0.86501856  0.62743128  1
  Al  Al30  1  0.77835025  0.75996615  0.38079843  1
  Al  Al31  1  0.88585235  0.87049241  0.13073265  1
  Al  Al32  1  0.45384301  0.75438229  0.87701277  1
  Al  Al33  1  0.55648443  0.87309879  0.62886033  1
  Sc  Sc34  1  0.10748322  0.10170010  0.85833431  1
  Sc  Sc35  1  0.22325244  0.87016183  0.11793448  1
  N  N36  1  0.22249580  0.20584428  0.33446017  1
  N  N37  1  0.10100964  0.11464736  0.08171849  1
  N  N38  1  0.86310746  0.21825602  0.82152239  1
  N  N39  1  0.77543406  0.09352794  0.57612256  1
  N  N40  1  0.55508447  0.20649776  0.32731837  1
  N  N41  1  0.44404613  0.09382880  0.08161999  1
  N  N42  1  0.23530318  0.21825599  0.82152239  1
  N  N43  1  0.11056103  0.09554455  0.59168315  1
  N  N44  1  0.88832661  0.20584429  0.33446014  1
  N  N45  1  0.77879174  0.09382877  0.08162000  1
  N  N46  1  0.55566042  0.20534588  0.83080377  1
  N  N47  1  0.44770466  0.09352793  0.57612258  1
  N  N48  1  0.22300971  0.53856852  0.33045016  1
  N  N49  1  0.11177064  0.42706203  0.08089186  1
  N  N50  1  0.88954414  0.53757846  0.83132533  1
  N  N51  1  0.77699367  0.43100143  0.57647652  1
  N  N52  1  0.55508850  0.53856851  0.33045016  1
  N  N53  1  0.44383964  0.42898737  0.07885413  1
  N  N54  1  0.22329511  0.53709276  0.82699323  1
  N  N55  1  0.10867156  0.43100144  0.57647652  1
  N  N56  1  0.88844559  0.53977552  0.32703749  1
  N  N57  1  0.77783398  0.42706205  0.08089184  1
  N  N58  1  0.55627886  0.53709275  0.82699323  1
  N  N59  1  0.44498288  0.42670089  0.57962752  1
  N  N60  1  0.22231478  0.87203715  0.34306388  1
  N  N61  1  0.09971042  0.74940156  0.07520837  1
  N  N62  1  0.88682772  0.87408954  0.82760420  1
  N  N63  1  0.77830466  0.76005736  0.57992258  1
  N  N64  1  0.55672470  0.87144240  0.33019865  1
  N  N65  1  0.46755467  0.74940155  0.07520839  1
  N  N66  1  0.23269150  0.85128371  0.83367084  1
  N  N67  1  0.10947190  0.75971171  0.58104024  1
  N  N68  1  0.88849961  0.87144240  0.33019866  1
  N  N69  1  0.77772357  0.76121949  0.07805432  1
  N  N70  1  0.55574947  0.87408953  0.82760421  1
  N  N71  1  0.44748307  0.75971169  0.58104024  1
