# generated using pymatgen
data_Sc5Al13N18
_symmetry_space_group_name_H-M   'P 1'
_cell_length_a   9.84701888
_cell_length_b   9.83773000
_cell_length_c   10.10279643
_cell_angle_alpha   89.91824176
_cell_angle_beta   90.02341724
_cell_angle_gamma   59.99090763
_symmetry_Int_Tables_number   1
_chemical_formula_structural   Sc5Al13N18
_chemical_formula_sum   'Sc10 Al26 N36'
_cell_volume   847.48359245
_cell_formula_units_Z   2
loop_
 _symmetry_equiv_pos_site_id
 _symmetry_equiv_pos_as_xyz
  1  'x, y, z'
loop_
 _atom_site_type_symbol
 _atom_site_label
 _atom_site_symmetry_multiplicity
 _atom_site_fract_x
 _atom_site_fract_y
 _atom_site_fract_z
 _atom_site_occupancy
  Al  Al0  1  0.10755921  0.09349418  0.30578288  1
  Al  Al1  1  0.77125373  0.09467295  0.81241820  1
  Al  Al2  1  0.45286645  0.08934976  0.31094437  1
  Al  Al3  1  0.55957176  0.20257443  0.05446323  1
  Al  Al4  1  0.23100526  0.19809189  0.54856753  1
  Al  Al5  1  0.77485941  0.09598418  0.30220928  1
  Al  Al6  1  0.88203496  0.20452624  0.05914558  1
  Al  Al7  1  0.45218705  0.09484473  0.80574622  1
  Al  Al8  1  0.55939762  0.19708958  0.56077689  1
  Al  Al9  1  0.10727901  0.42779253  0.30005627  1
  Al  Al10  1  0.22448758  0.54563270  0.04902455  1
  Al  Al11  1  0.76678576  0.42774150  0.81389736  1
  Al  Al12  1  0.55640761  0.53472082  0.05886117  1
  Al  Al13  1  0.78056482  0.42574579  0.30032859  1
  Al  Al14  1  0.87800616  0.54664783  0.05388078  1
  Al  Al15  1  0.45569029  0.42087023  0.80724486  1
  Al  Al16  1  0.55629871  0.54337514  0.55595590  1
  Al  Al17  1  0.21846048  0.86827799  0.05955989  1
  Al  Al18  1  0.77365426  0.77070029  0.80731160  1
  Al  Al19  1  0.87922111  0.88426507  0.56335908  1
  Al  Al20  1  0.44590288  0.76730859  0.30525725  1
  Al  Al21  1  0.56383696  0.87471109  0.05524222  1
  Al  Al22  1  0.10597284  0.76966760  0.80693438  1
  Al  Al23  1  0.22866347  0.87499903  0.55284102  1
  Al  Al24  1  0.88902169  0.87154040  0.05181839  1
  Al  Al25  1  0.54817614  0.87835881  0.55894789  1
  Sc  Sc26  1  0.23196962  0.19669928  0.08175829  1
  Sc  Sc27  1  0.88519149  0.20231887  0.56023632  1
  Sc  Sc28  1  0.11257051  0.09333252  0.81353962  1
  Sc  Sc29  1  0.88691630  0.53581700  0.56836165  1
  Sc  Sc30  1  0.44755041  0.42423000  0.31637461  1
  Sc  Sc31  1  0.11212838  0.42351088  0.83005125  1
  Sc  Sc32  1  0.22245159  0.53776574  0.57788295  1
  Sc  Sc33  1  0.10832153  0.76503207  0.31389804  1
  Sc  Sc34  1  0.77427629  0.76287333  0.31436157  1
  Sc  Sc35  1  0.44959615  0.75831630  0.81927008  1
  N  N36  1  0.22425012  0.20478310  0.34510519  1
  N  N37  1  0.09843410  0.08309559  0.11455426  1
  N  N38  1  0.87109639  0.21193663  0.86704478  1
  N  N39  1  0.76530404  0.08928790  0.62627975  1
  N  N40  1  0.56637997  0.18702972  0.37147120  1
  N  N41  1  0.47402214  0.08110299  0.12422013  1
  N  N42  1  0.24952891  0.18693559  0.87621493  1
  N  N43  1  0.13019978  0.08721840  0.60173982  1
  N  N44  1  0.88408007  0.20689881  0.34900124  1
  N  N45  1  0.77651026  0.09231534  0.11092272  1
  N  N46  1  0.55468645  0.20572504  0.86461817  1
  N  N47  1  0.44362041  0.09532574  0.61299947  1
  N  N48  1  0.21074026  0.52864236  0.36810454  1
  N  N49  1  0.10029681  0.44860170  0.10006828  1
  N  N50  1  0.86240069  0.55196708  0.86152580  1
  N  N51  1  0.75814140  0.43400041  0.62678363  1
  N  N52  1  0.56673363  0.55073007  0.36422600  1
  N  N53  1  0.44285714  0.42600253  0.10502133  1
  N  N54  1  0.23366692  0.54881473  0.85181938  1
  N  N55  1  0.12191696  0.40029590  0.62198394  1
  N  N56  1  0.89865954  0.51762026  0.35679378  1
  N  N57  1  0.77647041  0.42782005  0.11070109  1
  N  N58  1  0.56041188  0.52138986  0.87293530  1
  N  N59  1  0.46636945  0.41621000  0.61133163  1
  N  N60  1  0.23292080  0.87969139  0.36286843  1
  N  N61  1  0.10911187  0.75942524  0.10361603  1
  N  N62  1  0.88929451  0.87221163  0.86250401  1
  N  N63  1  0.76658009  0.77977670  0.61380899  1
  N  N64  1  0.53774290  0.88196230  0.37077907  1
  N  N65  1  0.44661644  0.76270940  0.10806192  1
  N  N66  1  0.21466586  0.86368118  0.87380380  1
  N  N67  1  0.09884856  0.78772761  0.61392518  1
  N  N68  1  0.87749189  0.89403478  0.37510872  1
  N  N69  1  0.77980615  0.76158620  0.10432018  1
  N  N70  1  0.56572297  0.88557264  0.86718201  1
  N  N71  1  0.44426732  0.76058053  0.60801033  1
