# generated using pymatgen
data_Sc5Al13N18
_symmetry_space_group_name_H-M   'P 1'
_cell_length_a   9.85776821
_cell_length_b   9.84804089
_cell_length_c   10.08680981
_cell_angle_alpha   89.98222840
_cell_angle_beta   90.02994347
_cell_angle_gamma   59.98008722
_symmetry_Int_Tables_number   1
_chemical_formula_structural   Sc5Al13N18
_chemical_formula_sum   'Sc10 Al26 N36'
_cell_volume   847.86279263
_cell_formula_units_Z   2
loop_
 _symmetry_equiv_pos_site_id
 _symmetry_equiv_pos_as_xyz
  1  'x, y, z'
loop_
 _atom_site_type_symbol
 _atom_site_label
 _atom_site_symmetry_multiplicity
 _atom_site_fract_x
 _atom_site_fract_y
 _atom_site_fract_z
 _atom_site_occupancy
  Al  Al0  1  0.11927311  0.09278658  0.38621677  1
  Al  Al1  1  0.77267839  0.09839534  0.88440975  1
  Al  Al2  1  0.44442567  0.09310872  0.38695454  1
  Al  Al3  1  0.56393925  0.19583184  0.13134903  1
  Al  Al4  1  0.23632518  0.19383899  0.63254408  1
  Al  Al5  1  0.77155213  0.09231994  0.38332618  1
  Al  Al6  1  0.88521129  0.20237270  0.14058229  1
  Al  Al7  1  0.45843233  0.09142416  0.88154186  1
  Al  Al8  1  0.55598153  0.20240906  0.63613546  1
  Al  Al9  1  0.11249644  0.41666640  0.38716509  1
  Al  Al10  1  0.21839574  0.53990825  0.13358210  1
  Al  Al11  1  0.77043633  0.42544299  0.88967174  1
  Al  Al12  1  0.55704799  0.54502366  0.13267259  1
  Al  Al13  1  0.77558400  0.42922263  0.37674326  1
  Al  Al14  1  0.88902616  0.53494122  0.13415444  1
  Al  Al15  1  0.45009742  0.42325656  0.88997337  1
  Al  Al16  1  0.55582118  0.53369246  0.63440265  1
  Al  Al17  1  0.22579270  0.87169146  0.13654310  1
  Al  Al18  1  0.77484826  0.76543442  0.89084627  1
  Al  Al19  1  0.88153172  0.87827826  0.63972440  1
  Al  Al20  1  0.44583032  0.76713947  0.38639653  1
  Al  Al21  1  0.55283099  0.87366186  0.13365464  1
  Al  Al22  1  0.11066735  0.76101719  0.88981284  1
  Al  Al23  1  0.22142668  0.87191857  0.63132583  1
  Al  Al24  1  0.88579004  0.87919223  0.12585483  1
  Al  Al25  1  0.55826025  0.88014120  0.63337837  1
  Sc  Sc26  1  0.22771276  0.20153483  0.13190123  1
  Sc  Sc27  1  0.88365860  0.20423506  0.61621048  1
  Sc  Sc28  1  0.10510686  0.09245649  0.87650330  1
  Sc  Sc29  1  0.87721591  0.54525220  0.62745072  1
  Sc  Sc30  1  0.45315429  0.42227618  0.36664191  1
  Sc  Sc31  1  0.10902345  0.43068819  0.87499267  1
  Sc  Sc32  1  0.22697350  0.54264312  0.62796097  1
  Sc  Sc33  1  0.10642979  0.77032150  0.37012459  1
  Sc  Sc34  1  0.77354902  0.76479764  0.36618733  1
  Sc  Sc35  1  0.44913154  0.75950669  0.86871590  1
  N  N36  1  0.22587711  0.20280975  0.34062230  1
  N  N37  1  0.09966052  0.08685156  0.08722397  1
  N  N38  1  0.86761259  0.21564035  0.82688768  1
  N  N39  1  0.76381665  0.08473603  0.57288042  1
  N  N40  1  0.56310827  0.18398160  0.31949790  1
  N  N41  1  0.46622579  0.08327253  0.06981577  1
  N  N42  1  0.24623804  0.19061645  0.82547971  1
  N  N43  1  0.13176742  0.08429918  0.57869312  1
  N  N44  1  0.88682911  0.20328271  0.33781254  1
  N  N45  1  0.77741649  0.09750133  0.07394976  1
  N  N46  1  0.55634796  0.20729472  0.82854140  1
  N  N47  1  0.44834227  0.09448922  0.57683675  1
  N  N48  1  0.21165504  0.52861025  0.32691512  1
  N  N49  1  0.10245375  0.44236064  0.08222256  1
  N  N50  1  0.86244066  0.55011652  0.83847094  1
  N  N51  1  0.75561997  0.43937769  0.56238836  1
  N  N52  1  0.56327696  0.55604774  0.31979749  1
  N  N53  1  0.44698537  0.42599318  0.08830753  1
  N  N54  1  0.23426829  0.54652872  0.83943686  1
  N  N55  1  0.11915391  0.40904426  0.58215453  1
  N  N56  1  0.90076861  0.51646210  0.32683551  1
  N  N57  1  0.77787384  0.42398999  0.08211681  1
  N  N58  1  0.56288061  0.51880976  0.82593120  1
  N  N59  1  0.46325098  0.41532571  0.57733170  1
  N  N60  1  0.23477375  0.88134452  0.32567729  1
  N  N61  1  0.11282730  0.76189064  0.08552581  1
  N  N62  1  0.88920780  0.87124783  0.83613325  1
  N  N63  1  0.76946735  0.78113912  0.57619188  1
  N  N64  1  0.53387600  0.88587847  0.32280217  1
  N  N65  1  0.44358613  0.76394319  0.07982303  1
  N  N66  1  0.21243097  0.86146007  0.81876530  1
  N  N67  1  0.09427865  0.78503469  0.57923730  1
  N  N68  1  0.87771263  0.89390102  0.31031029  1
  N  N69  1  0.77638114  0.75994237  0.08737937  1
  N  N70  1  0.56957601  0.88248956  0.82195518  1
  N  N71  1  0.44621728  0.76020364  0.58570512  1
