# generated using pymatgen
data_Sc5Al13N18
_symmetry_space_group_name_H-M   'P 1'
_cell_length_a   9.85038489
_cell_length_b   9.84094449
_cell_length_c   10.10643215
_cell_angle_alpha   89.98065582
_cell_angle_beta   90.03730091
_cell_angle_gamma   59.98368504
_symmetry_Int_Tables_number   1
_chemical_formula_structural   Sc5Al13N18
_chemical_formula_sum   'Sc10 Al26 N36'
_cell_volume   848.29486413
_cell_formula_units_Z   2
loop_
 _symmetry_equiv_pos_site_id
 _symmetry_equiv_pos_as_xyz
  1  'x, y, z'
loop_
 _atom_site_type_symbol
 _atom_site_label
 _atom_site_symmetry_multiplicity
 _atom_site_fract_x
 _atom_site_fract_y
 _atom_site_fract_z
 _atom_site_occupancy
  Al  Al0  1  0.11898664  0.09276808  0.40242238  1
  Al  Al1  1  0.77274564  0.09817265  0.90077065  1
  Al  Al2  1  0.44449767  0.09296825  0.40323615  1
  Al  Al3  1  0.56384607  0.19585731  0.14748726  1
  Al  Al4  1  0.23612044  0.19395898  0.64832503  1
  Al  Al5  1  0.77166106  0.09226337  0.39935651  1
  Al  Al6  1  0.88517129  0.20236209  0.15667283  1
  Al  Al7  1  0.45821655  0.09141947  0.89758167  1
  Al  Al8  1  0.55607285  0.20218850  0.65233674  1
  Al  Al9  1  0.11240613  0.41687046  0.40317198  1
  Al  Al10  1  0.21855874  0.53990344  0.14963865  1
  Al  Al11  1  0.77045904  0.42539657  0.90597478  1
  Al  Al12  1  0.55704543  0.54475300  0.14905482  1
  Al  Al13  1  0.77570647  0.42905127  0.39298271  1
  Al  Al14  1  0.88890114  0.53502809  0.15035537  1
  Al  Al15  1  0.45027907  0.42309135  0.90605979  1
  Al  Al16  1  0.55586151  0.53377444  0.65049661  1
  Al  Al17  1  0.22563434  0.87158172  0.15289073  1
  Al  Al18  1  0.77481641  0.76545389  0.90694312  1
  Al  Al19  1  0.88150339  0.87822163  0.65591539  1
  Al  Al20  1  0.44574789  0.76705215  0.40235049  1
  Al  Al21  1  0.55294279  0.87359057  0.14981161  1
  Al  Al22  1  0.11057212  0.76111444  0.90595075  1
  Al  Al23  1  0.22150657  0.87190084  0.64754773  1
  Al  Al24  1  0.88584581  0.87896262  0.14223530  1
  Al  Al25  1  0.55804518  0.87995835  0.64964466  1
  Sc  Sc26  1  0.22781269  0.20139890  0.14884815  1
  Sc  Sc27  1  0.88366192  0.20413775  0.63292782  1
  Sc  Sc28  1  0.10535658  0.09240021  0.89308969  1
  Sc  Sc29  1  0.87740314  0.54502880  0.64409622  1
  Sc  Sc30  1  0.45309998  0.42214298  0.38336945  1
  Sc  Sc31  1  0.10914485  0.43044842  0.89188955  1
  Sc  Sc32  1  0.22697662  0.54246937  0.64485288  1
  Sc  Sc33  1  0.10649120  0.77004378  0.38682535  1
  Sc  Sc34  1  0.77348973  0.76466008  0.38289393  1
  Sc  Sc35  1  0.44911110  0.75932468  0.88546096  1
  N  N36  1  0.22583307  0.20274674  0.35701996  1
  N  N37  1  0.09977544  0.08683516  0.10338137  1
  N  N38  1  0.86778895  0.21546526  0.84321455  1
  N  N39  1  0.76389523  0.08466029  0.58865692  1
  N  N40  1  0.56307344  0.18392850  0.33538260  1
  N  N41  1  0.46603910  0.08328793  0.08561426  1
  N  N42  1  0.24610948  0.19072621  0.84082922  1
  N  N43  1  0.13157705  0.08425159  0.59443092  1
  N  N44  1  0.88678866  0.20324571  0.35351742  1
  N  N45  1  0.77743725  0.09730015  0.09001497  1
  N  N46  1  0.55646081  0.20708743  0.84445714  1
  N  N47  1  0.44838759  0.09432067  0.59277946  1
  N  N48  1  0.21178763  0.52856495  0.34244787  1
  N  N49  1  0.10254641  0.44211806  0.09856589  1
  N  N50  1  0.86266284  0.54995022  0.85468711  1
  N  N51  1  0.75579521  0.43923751  0.57833020  1
  N  N52  1  0.56327352  0.55577761  0.33586473  1
  N  N53  1  0.44710328  0.42586000  0.10398800  1
  N  N54  1  0.23422637  0.54644016  0.85579681  1
  N  N55  1  0.11909685  0.40922024  0.59760129  1
  N  N56  1  0.90064608  0.51652563  0.34257029  1
  N  N57  1  0.77777723  0.42400177  0.09806299  1
  N  N58  1  0.56298501  0.51876886  0.84170421  1
  N  N59  1  0.46318910  0.41527261  0.59361876  1
  N  N60  1  0.23456626  0.88125827  0.34164829  1
  N  N61  1  0.11272890  0.76191270  0.10125466  1
  N  N62  1  0.88914751  0.87127582  0.85195528  1
  N  N63  1  0.76941713  0.78093493  0.59248464  1
  N  N64  1  0.53389932  0.88580851  0.33864237  1
  N  N65  1  0.44354970  0.76377903  0.09614144  1
  N  N66  1  0.21249039  0.86149281  0.83465921  1
  N  N67  1  0.09439670  0.78475183  0.59552283  1
  N  N68  1  0.87779833  0.89361451  0.32639243  1
  N  N69  1  0.77637335  0.75995021  0.10309470  1
  N  N70  1  0.56939000  0.88234398  0.83792163  1
  N  N71  1  0.44617005  0.76014750  0.60135507  1
