# generated using pymatgen
data_Sc5Al13N18
_symmetry_space_group_name_H-M   'P 1'
_cell_length_a   10.04687660
_cell_length_b   10.03443688
_cell_length_c   9.54939338
_cell_angle_alpha   90.02311853
_cell_angle_beta   89.98329433
_cell_angle_gamma   60.00011786
_symmetry_Int_Tables_number   1
_chemical_formula_structural   Sc5Al13N18
_chemical_formula_sum   'Sc10 Al26 N36'
_cell_volume   833.74050157
_cell_formula_units_Z   2
loop_
 _symmetry_equiv_pos_site_id
 _symmetry_equiv_pos_as_xyz
  1  'x, y, z'
loop_
 _atom_site_type_symbol
 _atom_site_label
 _atom_site_symmetry_multiplicity
 _atom_site_fract_x
 _atom_site_fract_y
 _atom_site_fract_z
 _atom_site_occupancy
  Al  Al0  1  0.12188683  0.09245783  0.37822056  1
  Al  Al1  1  0.77136928  0.10209381  0.87580897  1
  Al  Al2  1  0.44367380  0.09386757  0.37901858  1
  Al  Al3  1  0.56547367  0.19427555  0.12529478  1
  Al  Al4  1  0.23855050  0.19206473  0.63029636  1
  Al  Al5  1  0.77069645  0.09099739  0.37914458  1
  Al  Al6  1  0.88627007  0.20111933  0.13508316  1
  Al  Al7  1  0.46126795  0.08997400  0.87746772  1
  Al  Al8  1  0.55516602  0.20358907  0.63010076  1
  Al  Al9  1  0.11392094  0.41369391  0.38038344  1
  Al  Al10  1  0.21769374  0.53867690  0.12646446  1
  Al  Al11  1  0.77142557  0.42507205  0.88424300  1
  Al  Al12  1  0.55585487  0.54773660  0.12218527  1
  Al  Al13  1  0.77272920  0.43111100  0.36693622  1
  Al  Al14  1  0.89028281  0.53384407  0.12697153  1
  Al  Al15  1  0.44824812  0.42377776  0.88461966  1
  Al  Al16  1  0.55562731  0.53158496  0.63071906  1
  Al  Al17  1  0.22750662  0.87259844  0.12832023  1
  Al  Al18  1  0.77445324  0.76308535  0.88525568  1
  Al  Al19  1  0.88243364  0.87729675  0.63675241  1
  Al  Al20  1  0.44631099  0.76651836  0.38323322  1
  Al  Al21  1  0.55110718  0.87338365  0.12830421  1
  Al  Al22  1  0.11268892  0.75858829  0.88425722  1
  Al  Al23  1  0.21979068  0.87085342  0.62360444  1
  Al  Al24  1  0.88457017  0.88152194  0.11254982  1
  Al  Al25  1  0.56090336  0.88107595  0.62549657  1
  Sc  Sc26  1  0.22767171  0.20141190  0.11225134  1
  Sc  Sc27  1  0.88220303  0.20577477  0.60259436  1
  Sc  Sc28  1  0.10316224  0.09217044  0.86206682  1
  Sc  Sc29  1  0.87614004  0.54534811  0.61179151  1
  Sc  Sc30  1  0.45437755  0.42216909  0.35343237  1
  Sc  Sc31  1  0.10802853  0.43232108  0.85844645  1
  Sc  Sc32  1  0.22701911  0.54281485  0.61020920  1
  Sc  Sc33  1  0.10467331  0.77240349  0.35562051  1
  Sc  Sc34  1  0.77395396  0.76706123  0.35329545  1
  Sc  Sc35  1  0.44872485  0.76083631  0.85509974  1
  N  N36  1  0.22655418  0.20242541  0.33692808  1
  N  N37  1  0.09880531  0.08632834  0.08742565  1
  N  N38  1  0.86644773  0.21745954  0.82606445  1
  N  N39  1  0.76399213  0.08386259  0.57917977  1
  N  N40  1  0.56381210  0.18406528  0.32310700  1
  N  N41  1  0.46892251  0.08154397  0.07509498  1
  N  N42  1  0.24757915  0.18951873  0.83807212  1
  N  N43  1  0.13199254  0.08494159  0.58544818  1
  N  N44  1  0.88703960  0.20268865  0.34204643  1
  N  N45  1  0.77664689  0.10022952  0.07413890  1
  N  N46  1  0.55508700  0.20848801  0.83165971  1
  N  N47  1  0.44788557  0.09549079  0.57926040  1
  N  N48  1  0.21186973  0.52845707  0.33661592  1
  N  N49  1  0.10160736  0.44360734  0.08183713  1
  N  N50  1  0.86145764  0.54990345  0.83809030  1
  N  N51  1  0.75316382  0.43973766  0.56405028  1
  N  N52  1  0.56130952  0.55818260  0.31958377  1
  N  N53  1  0.44576977  0.42579756  0.09259965  1
  N  N54  1  0.23461451  0.54636546  0.83839581  1
  N  N55  1  0.12012649  0.40629142  0.59195484  1
  N  N56  1  0.90089064  0.51729965  0.33413990  1
  N  N57  1  0.77924551  0.42305900  0.08729171  1
  N  N58  1  0.56245508  0.51899187  0.83361508  1
  N  N59  1  0.46412391  0.41487932  0.57763393  1
  N  N60  1  0.23614898  0.88105201  0.32958308  1
  N  N61  1  0.11495520  0.76041471  0.09053111  1
  N  N62  1  0.88965700  0.87008980  0.84443390  1
  N  N63  1  0.77107657  0.78174213  0.57679832  1
  N  N64  1  0.53417587  0.88499732  0.32830286  1
  N  N65  1  0.44321607  0.76591952  0.07807573  1
  N  N66  1  0.21240218  0.86036213  0.82269228  1
  N  N67  1  0.09239650  0.78606296  0.57882455  1
  N  N68  1  0.87668567  0.89577358  0.30853448  1
  N  N69  1  0.77525382  0.75853776  0.09155959  1
  N  N70  1  0.57044191  0.88271103  0.82422664  1
  N  N71  1  0.44627726  0.75927962  0.59126147  1
