# generated using pymatgen
data_Sc5Al13N18
_symmetry_space_group_name_H-M   'P 1'
_cell_length_a   10.18195776
_cell_length_b   10.16835966
_cell_length_c   9.15074167
_cell_angle_alpha   90.05865236
_cell_angle_beta   89.99180808
_cell_angle_gamma   60.02917494
_symmetry_Int_Tables_number   1
_chemical_formula_structural   Sc5Al13N18
_chemical_formula_sum   'Sc10 Al26 N36'
_cell_volume   820.72255143
_cell_formula_units_Z   2
loop_
 _symmetry_equiv_pos_site_id
 _symmetry_equiv_pos_as_xyz
  1  'x, y, z'
loop_
 _atom_site_type_symbol
 _atom_site_label
 _atom_site_symmetry_multiplicity
 _atom_site_fract_x
 _atom_site_fract_y
 _atom_site_fract_z
 _atom_site_occupancy
  Al  Al0  1  0.11877315  0.09272276  0.36703210  1
  Al  Al1  1  0.77091904  0.10256512  0.87086038  1
  Al  Al2  1  0.44578039  0.09350299  0.37373381  1
  Al  Al3  1  0.56510762  0.19551466  0.11937610  1
  Al  Al4  1  0.23630006  0.19394118  0.61660920  1
  Al  Al5  1  0.77160432  0.09132924  0.37367917  1
  Al  Al6  1  0.88559971  0.20111579  0.12756405  1
  Al  Al7  1  0.45964758  0.09016171  0.87286878  1
  Al  Al8  1  0.55554302  0.20273399  0.62597589  1
  Al  Al9  1  0.11252369  0.41752584  0.36484285  1
  Al  Al10  1  0.22009127  0.53985116  0.11224574  1
  Al  Al11  1  0.77177583  0.42492223  0.88253265  1
  Al  Al12  1  0.55456087  0.54638600  0.11555765  1
  Al  Al13  1  0.77235577  0.43112540  0.35765377  1
  Al  Al14  1  0.88805268  0.53643246  0.11652490  1
  Al  Al15  1  0.44955188  0.42277929  0.87655620  1
  Al  Al16  1  0.55560153  0.53347092  0.62611101  1
  Al  Al17  1  0.22679346  0.87156481  0.12310343  1
  Al  Al18  1  0.77348366  0.76355509  0.87721867  1
  Al  Al19  1  0.88256340  0.87744048  0.63516200  1
  Al  Al20  1  0.44634085  0.76547376  0.37550236  1
  Al  Al21  1  0.55256529  0.87322820  0.12382192  1
  Al  Al22  1  0.11195918  0.76030050  0.87567346  1
  Al  Al23  1  0.22079216  0.87146441  0.61607451  1
  Al  Al24  1  0.88436490  0.88146841  0.10429958  1
  Al  Al25  1  0.55939572  0.88056136  0.61919556  1
  Sc  Sc26  1  0.22991032  0.19985266  0.10868977  1
  Sc  Sc27  1  0.88187513  0.20679329  0.59926851  1
  Sc  Sc28  1  0.10534759  0.09238996  0.85674887  1
  Sc  Sc29  1  0.87817352  0.54268180  0.60600893  1
  Sc  Sc30  1  0.45362537  0.42240410  0.35042559  1
  Sc  Sc31  1  0.10931349  0.42932096  0.85569735  1
  Sc  Sc32  1  0.22590700  0.54129214  0.60588330  1
  Sc  Sc33  1  0.10423327  0.77118425  0.35173886  1
  Sc  Sc34  1  0.77492782  0.76717789  0.35052792  1
  Sc  Sc35  1  0.44817831  0.76157220  0.85300323  1
  N  N36  1  0.22716459  0.20233610  0.34569856  1
  N  N37  1  0.10038898  0.08665054  0.09753232  1
  N  N38  1  0.86855033  0.21692113  0.83548400  1
  N  N39  1  0.76535306  0.08406515  0.58615525  1
  N  N40  1  0.56421989  0.18573169  0.32858446  1
  N  N41  1  0.46859818  0.08174782  0.08200812  1
  N  N42  1  0.24696336  0.18997883  0.84381725  1
  N  N43  1  0.12910093  0.08606426  0.58889575  1
  N  N44  1  0.88598197  0.20266772  0.34294205  1
  N  N45  1  0.77605635  0.10016228  0.07830689  1
  N  N46  1  0.55533757  0.20728936  0.83731121  1
  N  N47  1  0.44829900  0.09550797  0.58413758  1
  N  N48  1  0.21374577  0.52992488  0.34178929  1
  N  N49  1  0.10305337  0.44134115  0.09353082  1
  N  N50  1  0.86427064  0.54756789  0.84847311  1
  N  N51  1  0.75416137  0.43861829  0.56871468  1
  N  N52  1  0.55962223  0.55637167  0.32380808  1
  N  N53  1  0.44675790  0.42465247  0.09321121  1
  N  N54  1  0.23320506  0.54552715  0.84965972  1
  N  N55  1  0.11905576  0.40801365  0.59686641  1
  N  N56  1  0.89835612  0.52040456  0.33801253  1
  N  N57  1  0.77848647  0.42325602  0.09533536  1
  N  N58  1  0.56286287  0.52094572  0.84179362  1
  N  N59  1  0.46303210  0.41586186  0.58807731  1
  N  N60  1  0.23490465  0.87931287  0.33713481  1
  N  N61  1  0.11471529  0.76143100  0.09180127  1
  N  N62  1  0.88871644  0.87128212  0.85206973  1
  N  N63  1  0.77237339  0.77964658  0.58733760  1
  N  N64  1  0.53660794  0.88368253  0.33583680  1
  N  N65  1  0.44312615  0.76648423  0.08625424  1
  N  N66  1  0.21415327  0.86167112  0.82921747  1
  N  N67  1  0.09326633  0.78371514  0.58912119  1
  N  N68  1  0.87731159  0.89430693  0.31270757  1
  N  N69  1  0.77418591  0.75958503  0.09254840  1
  N  N70  1  0.56789003  0.88245904  0.82936258  1
  N  N71  1  0.44652830  0.75873733  0.59294553  1
