# generated using pymatgen
data_Sc5Al13N18
_symmetry_space_group_name_H-M   'P 1'
_cell_length_a   9.85142951
_cell_length_b   9.84192643
_cell_length_c   10.10381326
_cell_angle_alpha   89.98100077
_cell_angle_beta   90.03591402
_cell_angle_gamma   59.98221307
_symmetry_Int_Tables_number   1
_chemical_formula_structural   Sc5Al13N18
_chemical_formula_sum   'Sc10 Al26 N36'
_cell_volume   848.23704869
_cell_formula_units_Z   2
loop_
 _symmetry_equiv_pos_site_id
 _symmetry_equiv_pos_as_xyz
  1  'x, y, z'
loop_
 _atom_site_type_symbol
 _atom_site_label
 _atom_site_symmetry_multiplicity
 _atom_site_fract_x
 _atom_site_fract_y
 _atom_site_fract_z
 _atom_site_occupancy
  Al  Al0  1  0.11903003  0.09279978  0.39454267  1
  Al  Al1  1  0.77273416  0.09823190  0.89286829  1
  Al  Al2  1  0.44448924  0.09301836  0.39534683  1
  Al  Al3  1  0.56385739  0.19588485  0.13961788  1
  Al  Al4  1  0.23614860  0.19397209  0.64050640  1
  Al  Al5  1  0.77164339  0.09230182  0.39150269  1
  Al  Al6  1  0.88517584  0.20239033  0.14881093  1
  Al  Al7  1  0.45824545  0.09145169  0.88972663  1
  Al  Al8  1  0.55605645  0.20225317  0.64445797  1
  Al  Al9  1  0.11241712  0.41687233  0.39532321  1
  Al  Al10  1  0.21853246  0.53993578  0.14178071  1
  Al  Al11  1  0.77045310  0.42542985  0.89808022  1
  Al  Al12  1  0.55704676  0.54482066  0.14115125  1
  Al  Al13  1  0.77569099  0.42910127  0.38509952  1
  Al  Al14  1  0.88891900  0.53504126  0.14247366  1
  Al  Al15  1  0.45025041  0.42314763  0.89819811  1
  Al  Al16  1  0.55585494  0.53379232  0.64263139  1
  Al  Al17  1  0.22565985  0.87162491  0.14499078  1
  Al  Al18  1  0.77482222  0.76548046  0.89908038  1
  Al  Al19  1  0.88150695  0.87825908  0.64803590  1
  Al  Al20  1  0.44576386  0.76709412  0.39450729  1
  Al  Al21  1  0.55292892  0.87363006  0.14194023  1
  Al  Al22  1  0.11058546  0.76113241  0.89807980  1
  Al  Al23  1  0.22149827  0.87193499  0.63966733  1
  Al  Al24  1  0.88583889  0.87902351  0.13433305  1
  Al  Al25  1  0.55807866  0.88001512  0.64175608  1
  Sc  Sc26  1  0.22779715  0.20144839  0.14086821  1
  Sc  Sc27  1  0.88366372  0.20417567  0.62497570  1
  Sc  Sc28  1  0.10531832  0.09244005  0.88516071  1
  Sc  Sc29  1  0.87737333  0.54508836  0.63615934  1
  Sc  Sc30  1  0.45310360  0.42219621  0.37541493  1
  Sc  Sc31  1  0.10912766  0.43051239  0.88391247  1
  Sc  Sc32  1  0.22697170  0.54252776  0.63687770  1
  Sc  Sc33  1  0.10648342  0.77011709  0.37887750  1
  Sc  Sc34  1  0.77350469  0.76470289  0.37494226  1
  Sc  Sc35  1  0.44911654  0.75938231  0.87750444  1
  N  N36  1  0.22584088  0.20278511  0.34911320  1
  N  N37  1  0.09975960  0.08686707  0.09550930  1
  N  N38  1  0.86776222  0.21551545  0.83531393  1
  N  N39  1  0.76388097  0.08470172  0.58083527  1
  N  N40  1  0.56307639  0.18396798  0.32754605  1
  N  N41  1  0.46606469  0.08331692  0.07779078  1
  N  N42  1  0.24612630  0.19073791  0.83306737  1
  N  N43  1  0.13160690  0.08428880  0.58661279  1
  N  N44  1  0.88679512  0.20327632  0.34570736  1
  N  N45  1  0.77743370  0.09735693  0.08215259  1
  N  N46  1  0.55644124  0.20714869  0.83661680  1
  N  N47  1  0.44838146  0.09437638  0.58493525  1
  N  N48  1  0.21176215  0.52860478  0.33466036  1
  N  N49  1  0.10253469  0.44218203  0.09066247  1
  N  N50  1  0.86262890  0.55000068  0.84680727  1
  N  N51  1  0.75577205  0.43928345  0.57048602  1
  N  N52  1  0.56327589  0.55584415  0.32800286  1
  N  N53  1  0.44708475  0.42591154  0.09618194  1
  N  N54  1  0.23423045  0.54648339  0.84789199  1
  N  N55  1  0.11910228  0.40922786  0.58982814  1
  N  N56  1  0.90066479  0.51653863  0.33475034  1
  N  N57  1  0.77779102  0.42402627  0.09021577  1
  N  N58  1  0.56296733  0.51880465  0.83388155  1
  N  N59  1  0.46319439  0.41531407  0.58572303  1
  N  N60  1  0.23460070  0.88129827  0.33379821  1
  N  N61  1  0.11274337  0.76194092  0.09343894  1
  N  N62  1  0.88915620  0.87129926  0.84412524  1
  N  N63  1  0.76942869  0.78099051  0.58458824  1
  N  N64  1  0.53390055  0.88584651  0.33081295  1
  N  N65  1  0.44355875  0.76383178  0.08824276  1
  N  N66  1  0.21248274  0.86151899  0.82682201  1
  N  N67  1  0.09438136  0.78482772  0.58763004  1
  N  N68  1  0.87778621  0.89368407  0.31852885  1
  N  N69  1  0.77637695  0.75997766  0.09528292  1
  N  N70  1  0.56941926  0.88239543  0.83007261  1
  N  N71  1  0.44618082  0.76018656  0.59355291  1
