# generated using pymatgen
data_Sc5Al13N18
_symmetry_space_group_name_H-M   'P 1'
_cell_length_a   10.22266535
_cell_length_b   10.20897314
_cell_length_c   9.02953778
_cell_angle_alpha   90.06493329
_cell_angle_beta   89.99403187
_cell_angle_gamma   60.03733774
_symmetry_Int_Tables_number   1
_chemical_formula_structural   Sc5Al13N18
_chemical_formula_sum   'Sc10 Al26 N36'
_cell_volume   816.40418730
_cell_formula_units_Z   2
loop_
 _symmetry_equiv_pos_site_id
 _symmetry_equiv_pos_as_xyz
  1  'x, y, z'
loop_
 _atom_site_type_symbol
 _atom_site_label
 _atom_site_symmetry_multiplicity
 _atom_site_fract_x
 _atom_site_fract_y
 _atom_site_fract_z
 _atom_site_occupancy
  Al  Al0  1  0.11744082  0.09272346  0.36262253  1
  Al  Al1  1  0.77091793  0.10209034  0.86924205  1
  Al  Al2  1  0.44675068  0.09323455  0.37154911  1
  Al  Al3  1  0.56471274  0.19625674  0.11689360  1
  Al  Al4  1  0.23532995  0.19473242  0.61028308  1
  Al  Al5  1  0.77199052  0.09181384  0.37095861  1
  Al  Al6  1  0.88518172  0.20140163  0.12391193  1
  Al  Al7  1  0.45882324  0.09040510  0.87083578  1
  Al  Al8  1  0.55579899  0.20225523  0.62424494  1
  Al  Al9  1  0.11185600  0.41912873  0.35870014  1
  Al  Al10  1  0.22080371  0.54038619  0.10753658  1
  Al  Al11  1  0.77168384  0.42505081  0.88130116  1
  Al  Al12  1  0.55442069  0.54537323  0.11345175  1
  Al  Al13  1  0.77261214  0.43081038  0.35473295  1
  Al  Al14  1  0.88708059  0.53744614  0.11262466  1
  Al  Al15  1  0.45002263  0.42250827  0.87277326  1
  Al  Al16  1  0.55543048  0.53454878  0.62361300  1
  Al  Al17  1  0.22620613  0.87107865  0.12045994  1
  Al  Al18  1  0.77331703  0.76402792  0.87338368  1
  Al  Al19  1  0.88250102  0.87773747  0.63394701  1
  Al  Al20  1  0.44630241  0.76522627  0.37129975  1
  Al  Al21  1  0.55349276  0.87318126  0.12162319  1
  Al  Al22  1  0.11137592  0.76107511  0.87162179  1
  Al  Al23  1  0.22154422  0.87179151  0.61301017  1
  Al  Al24  1  0.88444114  0.88109210  0.10236682  1
  Al  Al25  1  0.55844320  0.88032622  0.61677620  1
  Sc  Sc26  1  0.23073876  0.19927670  0.10831652  1
  Sc  Sc27  1  0.88199135  0.20684863  0.59873763  1
  Sc  Sc28  1  0.10632127  0.09251173  0.85539696  1
  Sc  Sc29  1  0.87905960  0.54167567  0.60473659  1
  Sc  Sc30  1  0.45324034  0.42247007  0.34986607  1
  Sc  Sc31  1  0.10988086  0.42811330  0.85540578  1
  Sc  Sc32  1  0.22544385  0.54069955  0.60515002  1
  Sc  Sc33  1  0.10433553  0.77066581  0.35103100  1
  Sc  Sc34  1  0.77525548  0.76693546  0.35013820  1
  Sc  Sc35  1  0.44812777  0.76162183  0.85294741  1
  N  N36  1  0.22723958  0.20244692  0.34943880  1
  N  N37  1  0.10100284  0.08675756  0.10150022  1
  N  N38  1  0.86936194  0.21643185  0.83973398  1
  N  N39  1  0.76579730  0.08437772  0.58847545  1
  N  N40  1  0.56427594  0.18645068  0.33072648  1
  N  N41  1  0.46827349  0.08199841  0.08474934  1
  N  N42  1  0.24662343  0.19022849  0.84585846  1
  N  N43  1  0.12813071  0.08642425  0.58982016  1
  N  N44  1  0.88552442  0.20286018  0.34280296  1
  N  N45  1  0.77590217  0.09968329  0.08032226  1
  N  N46  1  0.55554318  0.20669545  0.83951043  1
  N  N47  1  0.44834348  0.09547931  0.58604661  1
  N  N48  1  0.21428330  0.53045423  0.34334163  1
  N  N49  1  0.10352755  0.44070353  0.09800115  1
  N  N50  1  0.86530853  0.54683714  0.85228795  1
  N  N51  1  0.75484550  0.43801641  0.57120901  1
  N  N52  1  0.55942893  0.55525577  0.32599385  1
  N  N53  1  0.44699107  0.42435783  0.09308318  1
  N  N54  1  0.23262473  0.54530516  0.85321876  1
  N  N55  1  0.11864461  0.40864828  0.59837275  1
  N  N56  1  0.89747052  0.52136364  0.33901724  1
  N  N57  1  0.77807518  0.42355531  0.09766532  1
  N  N58  1  0.56286923  0.52176751  0.84444900  1
  N  N59  1  0.46262052  0.41621118  0.59241710  1
  N  N60  1  0.23428415  0.87878002  0.33990126  1
  N  N61  1  0.11424916  0.76176967  0.09188333  1
  N  N62  1  0.88831979  0.87190959  0.85375867  1
  N  N63  1  0.77258499  0.77889641  0.59178532  1
  N  N64  1  0.53765375  0.88321521  0.33857005  1
  N  N65  1  0.44329123  0.76638831  0.09026058  1
  N  N66  1  0.21491884  0.86220098  0.83239743  1
  N  N67  1  0.09391189  0.78295747  0.59356536  1
  N  N68  1  0.87764053  0.89360136  0.31525308  1
  N  N69  1  0.77410575  0.76010070  0.09251528  1
  N  N70  1  0.56680037  0.88240035  0.83164682  1
  N  N71  1  0.44659808  0.75867827  0.59309154  1
