# generated using pymatgen
data_Sc5Al13N18
_symmetry_space_group_name_H-M   'P 1'
_cell_length_a   10.09465936
_cell_length_b   10.08178177
_cell_length_c   9.40967543
_cell_angle_alpha   90.03781738
_cell_angle_beta   89.98606908
_cell_angle_gamma   60.01072867
_symmetry_Int_Tables_number   1
_chemical_formula_structural   Sc5Al13N18
_chemical_formula_sum   'Sc10 Al26 N36'
_cell_volume   829.43238411
_cell_formula_units_Z   2
loop_
 _symmetry_equiv_pos_site_id
 _symmetry_equiv_pos_as_xyz
  1  'x, y, z'
loop_
 _atom_site_type_symbol
 _atom_site_label
 _atom_site_symmetry_multiplicity
 _atom_site_fract_x
 _atom_site_fract_y
 _atom_site_fract_z
 _atom_site_occupancy
  Al  Al0  1  0.12113959  0.09256912  0.37508690  1
  Al  Al1  1  0.77113005  0.10259900  0.87415396  1
  Al  Al2  1  0.44417280  0.09382618  0.37739234  1
  Al  Al3  1  0.56548507  0.19448730  0.12355535  1
  Al  Al4  1  0.23803794  0.19252185  0.62700682  1
  Al  Al5  1  0.77093918  0.09090137  0.37767718  1
  Al  Al6  1  0.88619988  0.20098202  0.13309277  1
  Al  Al7  1  0.46094279  0.08993392  0.87616340  1
  Al  Al8  1  0.55522883  0.20341938  0.62884419  1
  Al  Al9  1  0.11364984  0.41459741  0.37638145  1
  Al  Al10  1  0.21840273  0.53890689  0.12243584  1
  Al  Al11  1  0.77165763  0.42498148  0.88385557  1
  Al  Al12  1  0.55532717  0.54759244  0.11992003  1
  Al  Al13  1  0.77240763  0.43127345  0.36388249  1
  Al  Al14  1  0.88977670  0.53451663  0.12403903  1
  Al  Al15  1  0.44855631  0.42349179  0.88250733  1
  Al  Al16  1  0.55567642  0.53194287  0.62957284  1
  Al  Al17  1  0.22742551  0.87240969  0.12682198  1
  Al  Al18  1  0.77408618  0.76300647  0.88314684  1
  Al  Al19  1  0.88254580  0.87721885  0.63652136  1
  Al  Al20  1  0.44632581  0.76616096  0.38135148  1
  Al  Al21  1  0.55133627  0.87334197  0.12705878  1
  Al  Al22  1  0.11270203  0.75892140  0.88204948  1
  Al  Al23  1  0.21989480  0.87096408  0.62134441  1
  Al  Al24  1  0.88442798  0.88167511  0.10937535  1
  Al  Al25  1  0.56066826  0.88095928  0.62354276  1
  Sc  Sc26  1  0.22828811  0.20099264  0.11041656  1
  Sc  Sc27  1  0.88194648  0.20623784  0.60110048  1
  Sc  Sc28  1  0.10369988  0.09221119  0.85997436  1
  Sc  Sc29  1  0.87663964  0.54458329  0.60947045  1
  Sc  Sc30  1  0.45425161  0.42220388  0.35210844  1
  Sc  Sc31  1  0.10833183  0.43160310  0.85705113  1
  Sc  Sc32  1  0.22675325  0.54240481  0.60831383  1
  Sc  Sc33  1  0.10438438  0.77214106  0.35390762  1
  Sc  Sc34  1  0.77423791  0.76729092  0.35200279  1
  Sc  Sc35  1  0.44849581  0.76112721  0.85394591  1
  N  N36  1  0.22679339  0.20234083  0.33912583  1
  N  N37  1  0.09923507  0.08642037  0.09020636  1
  N  N38  1  0.86702530  0.21746801  0.82862436  1
  N  N39  1  0.76443704  0.08379997  0.58154713  1
  N  N40  1  0.56397695  0.18451326  0.32485850  1
  N  N41  1  0.46894123  0.08150852  0.07726257  1
  N  N42  1  0.24746061  0.18964200  0.84012574  1
  N  N43  1  0.13111198  0.08533185  0.58686337  1
  N  N44  1  0.88679290  0.20260146  0.34264468  1
  N  N45  1  0.77641664  0.10047665  0.07530639  1
  N  N46  1  0.55508166  0.20823513  0.83342490  1
  N  N47  1  0.44801405  0.09553346  0.58079218  1
  N  N48  1  0.21246942  0.52885075  0.33845221  1
  N  N49  1  0.10200087  0.44292877  0.08498634  1
  N  N50  1  0.86226053  0.54916927  0.84097907  1
  N  N51  1  0.75327931  0.43948254  0.56527846  1
  N  N52  1  0.56059648  0.55785290  0.32069888  1
  N  N53  1  0.44603116  0.42542974  0.09307663  1
  N  N54  1  0.23425269  0.54610024  0.84164242  1
  N  N55  1  0.11988488  0.40669709  0.59365955  1
  N  N56  1  0.90018024  0.51828746  0.33571402  1
  N  N57  1  0.77911637  0.42303726  0.09005055  1
  N  N58  1  0.56262718  0.51952609  0.83642008  1
  N  N59  1  0.46384591  0.41515140  0.58056382  1
  N  N60  1  0.23583597  0.88053011  0.33198197  1
  N  N61  1  0.11510977  0.76062720  0.09126594  1
  N  N62  1  0.88941433  0.87033845  0.84742727  1
  N  N63  1  0.77159502  0.78114289  0.57978140  1
  N  N64  1  0.53484097  0.88458151  0.33074716  1
  N  N65  1  0.44309542  0.76624644  0.08019557  1
  N  N66  1  0.21286146  0.86069866  0.82459500  1
  N  N67  1  0.09248113  0.78536466  0.58163666  1
  N  N68  1  0.87681151  0.89543504  0.30938670  1
  N  N69  1  0.77480685  0.75871119  0.09217001  1
  N  N70  1  0.56975591  0.88260986  0.82577098  1
  N  N71  1  0.44632968  0.75906007  0.59213333  1
