# generated using pymatgen
data_Sc5Al13N18
_symmetry_space_group_name_H-M   'P 1'
_cell_length_a   9.99368746
_cell_length_b   9.98426189
_cell_length_c   9.69648075
_cell_angle_alpha   90.00963591
_cell_angle_beta   89.99408608
_cell_angle_gamma   59.96915633
_symmetry_Int_Tables_number   1
_chemical_formula_structural   Sc5Al13N18
_chemical_formula_sum   'Sc10 Al26 N36'
_cell_volume   837.62844877
_cell_formula_units_Z   2
loop_
 _symmetry_equiv_pos_site_id
 _symmetry_equiv_pos_as_xyz
  1  'x, y, z'
loop_
 _atom_site_type_symbol
 _atom_site_label
 _atom_site_symmetry_multiplicity
 _atom_site_fract_x
 _atom_site_fract_y
 _atom_site_fract_z
 _atom_site_occupancy
  Al  Al0  1  0.10613168  0.09406523  0.32372396  1
  Al  Al1  1  0.77029559  0.09397795  0.83184160  1
  Al  Al2  1  0.45516233  0.08813074  0.32933708  1
  Al  Al3  1  0.55803329  0.20411088  0.07240615  1
  Al  Al4  1  0.23088464  0.19718675  0.56611834  1
  Al  Al5  1  0.77500752  0.09730277  0.31726097  1
  Al  Al6  1  0.88125763  0.20567488  0.07445988  1
  Al  Al7  1  0.45245536  0.09533567  0.82175076  1
  Al  Al8  1  0.56042730  0.19638375  0.57691611  1
  Al  Al9  1  0.10590895  0.42804904  0.31881236  1
  Al  Al10  1  0.22428675  0.54637643  0.06890902  1
  Al  Al11  1  0.76424495  0.42891747  0.83082476  1
  Al  Al12  1  0.55637478  0.53321907  0.07986974  1
  Al  Al13  1  0.78154640  0.42507199  0.31898100  1
  Al  Al14  1  0.87690493  0.54779716  0.07121502  1
  Al  Al15  1  0.45583769  0.42111224  0.82310462  1
  Al  Al16  1  0.55496072  0.54621652  0.57073230  1
  Al  Al17  1  0.21665013  0.86745739  0.07944047  1
  Al  Al18  1  0.77410358  0.77157668  0.82184801  1
  Al  Al19  1  0.87842022  0.88619787  0.57784661  1
  Al  Al20  1  0.44642764  0.76839098  0.31832121  1
  Al  Al21  1  0.56637273  0.87572756  0.07200600  1
  Al  Al22  1  0.10521661  0.76969654  0.82199519  1
  Al  Al23  1  0.23072958  0.87556025  0.57036565  1
  Al  Al24  1  0.88969115  0.87010579  0.07204926  1
  Al  Al25  1  0.54670788  0.87838603  0.57749076  1
  Sc  Sc26  1  0.23424685  0.19556015  0.10352384  1
  Sc  Sc27  1  0.88601634  0.20172339  0.58575345  1
  Sc  Sc28  1  0.11447797  0.09168424  0.83881303  1
  Sc  Sc29  1  0.88765570  0.53380958  0.59363096  1
  Sc  Sc30  1  0.44680661  0.42413118  0.34106562  1
  Sc  Sc31  1  0.11343067  0.42133193  0.85335573  1
  Sc  Sc32  1  0.22166382  0.53572453  0.60043672  1
  Sc  Sc33  1  0.10909759  0.76427973  0.34047450  1
  Sc  Sc34  1  0.77487784  0.76121968  0.34012398  1
  Sc  Sc35  1  0.44946942  0.75829788  0.84474010  1
  N  N36  1  0.22417401  0.20446471  0.35635289  1
  N  N37  1  0.09766695  0.08476714  0.12190537  1
  N  N38  1  0.87058077  0.21248405  0.87330653  1
  N  N39  1  0.76452768  0.08866236  0.63842254  1
  N  N40  1  0.56771035  0.18629820  0.38123764  1
  N  N41  1  0.47491301  0.08113011  0.13562751  1
  N  N42  1  0.25174679  0.18573108  0.88931971  1
  N  N43  1  0.13175793  0.08608760  0.61617992  1
  N  N44  1  0.88398299  0.20667095  0.36354251  1
  N  N45  1  0.77618766  0.09372430  0.11903754  1
  N  N46  1  0.55330188  0.20721538  0.87563577  1
  N  N47  1  0.44377972  0.09585303  0.62271100  1
  N  N48  1  0.20988899  0.52732155  0.38078307  1
  N  N49  1  0.09998917  0.44788866  0.10918057  1
  N  N50  1  0.86211987  0.55252096  0.86873185  1
  N  N51  1  0.75516891  0.43500246  0.63603002  1
  N  N52  1  0.56568144  0.55281392  0.37120703  1
  N  N53  1  0.44168945  0.42622829  0.12009405  1
  N  N54  1  0.23309174  0.54853172  0.86075094  1
  N  N55  1  0.12259137  0.39827526  0.63551809  1
  N  N56  1  0.89902145  0.51600815  0.37140236  1
  N  N57  1  0.77751545  0.42719496  0.12131373  1
  N  N58  1  0.55946204  0.52071041  0.88594322  1
  N  N59  1  0.46580165  0.41702752  0.61735045  1
  N  N60  1  0.23431407  0.88042940  0.37119049  1
  N  N61  1  0.10874333  0.75893438  0.12004437  1
  N  N62  1  0.88995684  0.87087329  0.87450165  1
  N  N63  1  0.76730943  0.77992771  0.61920983  1
  N  N64  1  0.53697335  0.88172844  0.38177901  1
  N  N65  1  0.44727485  0.76369478  0.11501102  1
  N  N66  1  0.21411938  0.86119462  0.88531288  1
  N  N67  1  0.09905088  0.78724446  0.61936780  1
  N  N68  1  0.87639273  0.89573045  0.38225788  1
  N  N69  1  0.78003268  0.76097103  0.11937518  1
  N  N70  1  0.56731265  0.88610685  0.87608792  1
  N  N71  1  0.44432763  0.76073241  0.62325585  1
