# generated using pymatgen
data_Gd5Al31N36
_symmetry_space_group_name_H-M   'P 1'
_cell_length_a   9.68482156
_cell_length_b   9.70665550
_cell_length_c   10.55799965
_cell_angle_alpha   90.00005057
_cell_angle_beta   89.20071442
_cell_angle_gamma   59.92562051
_symmetry_Int_Tables_number   1
_chemical_formula_structural   Gd5Al31N36
_chemical_formula_sum   'Gd5 Al31 N36'
_cell_volume   858.79812487
_cell_formula_units_Z   1
loop_
 _symmetry_equiv_pos_site_id
 _symmetry_equiv_pos_as_xyz
  1  'x, y, z'
loop_
 _atom_site_type_symbol
 _atom_site_label
 _atom_site_symmetry_multiplicity
 _atom_site_fract_x
 _atom_site_fract_y
 _atom_site_fract_z
 _atom_site_occupancy
  Al  Al0  1  0.12360487  0.08032855  0.42476856  1
  Al  Al1  1  0.77392601  0.09259995  0.82603928  1
  Al  Al2  1  0.88778353  0.20109182  0.59092083  1
  Al  Al3  1  0.44881002  0.09226131  0.35380864  1
  Al  Al4  1  0.11686564  0.08852144  0.88857165  1
  Al  Al5  1  0.21530772  0.20901256  0.64249383  1
  Al  Al6  1  0.79754078  0.08004678  0.33860665  1
  Al  Al7  1  0.88964597  0.19445647  0.06544306  1
  Al  Al8  1  0.44631698  0.09350784  0.81769758  1
  Al  Al9  1  0.55898169  0.19389247  0.57944752  1
  Al  Al10  1  0.12360457  0.42939902  0.42476859  1
  Al  Al11  1  0.21615624  0.54851425  0.14613485  1
  Al  Al12  1  0.79234519  0.42049358  0.83112114  1
  Al  Al13  1  0.88778333  0.54445737  0.59092088  1
  Al  Al14  1  0.43239367  0.42821482  0.40516742  1
  Al  Al15  1  0.55993374  0.53669981  0.06119214  1
  Al  Al16  1  0.11686543  0.42794560  0.88857164  1
  Al  Al17  1  0.21391309  0.54090262  0.65371141  1
  Al  Al18  1  0.88964592  0.54923018  0.06544315  1
  Al  Al19  1  0.43172904  0.43155349  0.89169313  1
  Al  Al20  1  0.12371154  0.75481034  0.40091547  1
  Al  Al21  1  0.21615643  0.86866245  0.14613491  1
  Al  Al22  1  0.77392597  0.76680659  0.82603921  1
  Al  Al23  1  0.88832846  0.87250212  0.58095319  1
  Al  Al24  1  0.43239373  0.77272403  0.40516728  1
  Al  Al25  1  0.11408484  0.75962387  0.90171776  1
  Al  Al26  1  0.21391320  0.87851698  0.65371139  1
  Al  Al27  1  0.79754058  0.75574479  0.33860661  1
  Al  Al28  1  0.89891777  0.86720753  0.08807139  1
  Al  Al29  1  0.43172913  0.77005006  0.89169312  1
  Al  Al30  1  0.55898162  0.88045898  0.57944749  1
  Gd  Gd31  1  0.16823633  0.23254833  0.17688298  1
  Gd  Gd32  1  0.55982896  0.20177456  0.09730289  1
  Gd  Gd33  1  0.77384775  0.42974197  0.33146231  1
  Gd  Gd34  1  0.54107017  0.54613165  0.63030604  1
  Gd  Gd35  1  0.55982937  0.87173013  0.09730252  1
  N  N36  1  0.22262198  0.20535547  0.39477665  1
  N  N37  1  0.11292630  0.07161052  0.06886720  1
  N  N38  1  0.88125616  0.20296032  0.88291904  1
  N  N39  1  0.77705826  0.09088263  0.64320037  1
  N  N40  1  0.56995463  0.19602417  0.38900200  1
  N  N41  1  0.42230941  0.10551169  0.17824960  1
  N  N42  1  0.21443727  0.20944789  0.83221229  1
  N  N43  1  0.11066396  0.09053916  0.60580086  1
  N  N44  1  0.89979855  0.18259934  0.40811948  1
  N  N45  1  0.81669972  0.07543650  0.15746349  1
  N  N46  1  0.55060825  0.20453107  0.87488859  1
  N  N47  1  0.44927390  0.09202936  0.63537284  1
  N  N48  1  0.22131469  0.53474660  0.33483954  1
  N  N49  1  0.11292620  0.44879562  0.06886717  1
  N  N50  1  0.88125596  0.54911663  0.88291900  1
  N  N51  1  0.80786246  0.41273480  0.64871861  1
  N  N52  1  0.52553823  0.55389741  0.39396021  1
  N  N53  1  0.42420106  0.45640477  0.07564615  1
  N  N54  1  0.21872525  0.54603058  0.83334296  1
  N  N55  1  0.11066374  0.43212914  0.60580082  1
  N  N56  1  0.89979813  0.55093505  0.40811953  1
  N  N57  1  0.78347729  0.42492740  0.10968568  1
  N  N58  1  0.55899364  0.53716974  0.86630540  1
  N  N59  1  0.41885699  0.41177690  0.58607593  1
  N  N60  1  0.22131482  0.87727122  0.33483952  1
  N  N61  1  0.11892456  0.75720397  0.08591342  1
  N  N62  1  0.87848345  0.87742478  0.89656892  1
  N  N63  1  0.77705812  0.76539137  0.64320033  1
  N  N64  1  0.56995446  0.86735457  0.38900187  1
  N  N65  1  0.42420147  0.75272697  0.07564620  1
  N  N66  1  0.21872529  0.86857710  0.83334298  1
  N  N67  1  0.12149393  0.75591908  0.58852727  1
  N  N68  1  0.89418336  0.86957473  0.39839377  1
  N  N69  1  0.81669981  0.74119596  0.15746351  1
  N  N70  1  0.55060818  0.87819383  0.87488829  1
  N  N71  1  0.41885686  0.80269877  0.58607576  1
