# generated using pymatgen
data_Gd5Al31N36
_symmetry_space_group_name_H-M   'P 1'
_cell_length_a   9.70490400
_cell_length_b   9.68538694
_cell_length_c   10.28542366
_cell_angle_alpha   89.99999660
_cell_angle_beta   90.13271227
_cell_angle_gamma   60.06651267
_symmetry_Int_Tables_number   1
_chemical_formula_structural   Gd5Al31N36
_chemical_formula_sum   'Gd5 Al31 N36'
_cell_volume   837.81893358
_cell_formula_units_Z   1
loop_
 _symmetry_equiv_pos_site_id
 _symmetry_equiv_pos_as_xyz
  1  'x, y, z'
loop_
 _atom_site_type_symbol
 _atom_site_label
 _atom_site_symmetry_multiplicity
 _atom_site_fract_x
 _atom_site_fract_y
 _atom_site_fract_z
 _atom_site_occupancy
  Al  Al0  1  0.11258267  0.08564616  0.41922762  1
  Al  Al1  1  0.78433273  0.08973637  0.90114569  1
  Al  Al2  1  0.89441376  0.20242105  0.66458859  1
  Al  Al3  1  0.44411472  0.09460921  0.43457696  1
  Al  Al4  1  0.11013398  0.09042890  0.90206430  1
  Al  Al5  1  0.21638139  0.20847588  0.65710545  1
  Al  Al6  1  0.78287169  0.08565276  0.41729683  1
  Al  Al7  1  0.89947422  0.18554831  0.15201734  1
  Al  Al8  1  0.44268570  0.09532372  0.89110146  1
  Al  Al9  1  0.55442225  0.20480390  0.65963570  1
  Al  Al10  1  0.11258267  0.43510426  0.41922762  1
  Al  Al11  1  0.21393966  0.55027013  0.15715536  1
  Al  Al12  1  0.78162250  0.42585533  0.91838318  1
  Al  Al13  1  0.89441373  0.53649839  0.66458859  1
  Al  Al14  1  0.43094650  0.42997538  0.41319756  1
  Al  Al15  1  0.53648164  0.54842578  0.15367612  1
  Al  Al16  1  0.11013397  0.43277030  0.90206430  1
  Al  Al17  1  0.21566177  0.54147694  0.65979358  1
  Al  Al18  1  0.89947419  0.54831062  0.15201735  1
  Al  Al19  1  0.43807846  0.43265514  0.91088657  1
  Al  Al20  1  0.11011875  0.76160717  0.40657208  1
  Al  Al21  1  0.21393968  0.86912337  0.15715535  1
  Al  Al22  1  0.78433273  0.75926406  0.90114570  1
  Al  Al23  1  0.89214179  0.87059570  0.65890458  1
  Al  Al24  1  0.43094650  0.77241126  0.41319757  1
  Al  Al25  1  0.11060955  0.76136180  0.90936455  1
  Al  Al26  1  0.21566179  0.87619441  0.65979359  1
  Al  Al27  1  0.78287167  0.76480867  0.41729685  1
  Al  Al28  1  0.90018464  0.86657425  0.15521359  1
  Al  Al29  1  0.43807850  0.76259955  0.91088658  1
  Al  Al30  1  0.55442225  0.87410704  0.65963570  1
  Gd  Gd31  1  0.21163542  0.21084888  0.16301089  1
  Gd  Gd32  1  0.56362111  0.20732756  0.15909124  1
  Gd  Gd33  1  0.78267401  0.42532953  0.38658373  1
  Gd  Gd34  1  0.55548703  0.53892307  0.66101094  1
  Gd  Gd35  1  0.56362111  0.86238456  0.15909126  1
  N  N36  1  0.22104392  0.20614462  0.38640568  1
  N  N37  1  0.10411432  0.07605581  0.08494781  1
  N  N38  1  0.88803635  0.20768839  0.85123767  1
  N  N39  1  0.78038535  0.09410658  0.60550482  1
  N  N40  1  0.55623361  0.20218638  0.37933898  1
  N  N41  1  0.44198845  0.09567237  0.07213207  1
  N  N42  1  0.21588296  0.20872512  0.84742092  1
  N  N43  1  0.10772436  0.09218517  0.60579440  1
  N  N44  1  0.90724880  0.16734188  0.33866990  1
  N  N45  1  0.80652227  0.07367570  0.08392777  1
  N  N46  1  0.55800953  0.20966683  0.85020762  1
  N  N47  1  0.44353302  0.09490007  0.61981805  1
  N  N48  1  0.21889278  0.53941718  0.34772831  1
  N  N49  1  0.10411429  0.45316303  0.08494782  1
  N  N50  1  0.88803634  0.53760846  0.85123766  1
  N  N51  1  0.80867847  0.41232733  0.60426647  1
  N  N52  1  0.51952620  0.55690350  0.34727030  1
  N  N53  1  0.42246167  0.45376443  0.09315607  1
  N  N54  1  0.22128899  0.54294058  0.84585539  1
  N  N55  1  0.10772434  0.43342359  0.60579440  1
  N  N56  1  0.90724876  0.55874248  0.33866992  1
  N  N57  1  0.78114294  0.42609507  0.11492083  1
  N  N58  1  0.55923633  0.53704843  0.87706083  1
  N  N59  1  0.42512507  0.41722120  0.59656855  1
  N  N60  1  0.21889279  0.87502317  0.34772831  1
  N  N61  1  0.11080134  0.76126591  0.09882694  1
  N  N62  1  0.89317966  0.87007677  0.84351674  1
  N  N63  1  0.78038535  0.75884121  0.60550483  1
  N  N64  1  0.55623361  0.87491319  0.37933900  1
  N  N65  1  0.42246173  0.75710706  0.09315607  1
  N  N66  1  0.22128902  0.86910361  0.84585540  1
  N  N67  1  0.11061849  0.76135731  0.59597481  1
  N  N68  1  0.88709943  0.87311685  0.34932971  1
  N  N69  1  0.80652226  0.75313516  0.08392777  1
  N  N70  1  0.55800954  0.86565685  0.85020762  1
  N  N71  1  0.42512508  0.79098688  0.59656856  1
