# generated using pymatgen
data_Gd5Al31N36
_symmetry_space_group_name_H-M   'P 1'
_cell_length_a   9.68456537
_cell_length_b   9.70650330
_cell_length_c   10.55875811
_cell_angle_alpha   90.00001094
_cell_angle_beta   89.20108907
_cell_angle_gamma   59.92502112
_symmetry_Int_Tables_number   1
_chemical_formula_structural   Gd5Al31N36
_chemical_formula_sum   'Gd5 Al31 N36'
_cell_volume   858.81853944
_cell_formula_units_Z   1
loop_
 _symmetry_equiv_pos_site_id
 _symmetry_equiv_pos_as_xyz
  1  'x, y, z'
loop_
 _atom_site_type_symbol
 _atom_site_label
 _atom_site_symmetry_multiplicity
 _atom_site_fract_x
 _atom_site_fract_y
 _atom_site_fract_z
 _atom_site_occupancy
  Al  Al0  1  0.12374773  0.08026443  0.40540770  1
  Al  Al1  1  0.77407038  0.09253005  0.80668017  1
  Al  Al2  1  0.88792808  0.20102421  0.57156408  1
  Al  Al3  1  0.44897474  0.09217901  0.33445346  1
  Al  Al4  1  0.11700466  0.08844909  0.86922552  1
  Al  Al5  1  0.21543804  0.20894737  0.62315154  1
  Al  Al6  1  0.79767443  0.07998176  0.31926810  1
  Al  Al7  1  0.88980512  0.19437761  0.04610494  1
  Al  Al8  1  0.44645051  0.09344114  0.79832504  1
  Al  Al9  1  0.55912406  0.19381875  0.56009952  1
  Al  Al10  1  0.12374776  0.42932062  0.40540772  1
  Al  Al11  1  0.21632267  0.54843037  0.12678466  1
  Al  Al12  1  0.79249331  0.42041977  0.81178058  1
  Al  Al13  1  0.88792808  0.54438053  0.57156409  1
  Al  Al14  1  0.43254318  0.42813688  0.38583110  1
  Al  Al15  1  0.56009442  0.53661918  0.04182304  1
  Al  Al16  1  0.11700470  0.42787905  0.86922549  1
  Al  Al17  1  0.21405366  0.54083167  0.63435286  1
  Al  Al18  1  0.88980522  0.54915011  0.04610493  1
  Al  Al19  1  0.43186315  0.43149183  0.87233175  1
  Al  Al20  1  0.12386060  0.75473608  0.38156102  1
  Al  Al21  1  0.21632262  0.86857981  0.12678467  1
  Al  Al22  1  0.77407039  0.76673244  0.80668020  1
  Al  Al23  1  0.88847729  0.87242779  0.56159778  1
  Al  Al24  1  0.43254317  0.77265266  0.38583108  1
  Al  Al25  1  0.11421617  0.75955835  0.88236846  1
  Al  Al26  1  0.21405368  0.87844747  0.63435284  1
  Al  Al27  1  0.79767450  0.75567660  0.31926810  1
  Al  Al28  1  0.89907491  0.86712898  0.06874147  1
  Al  Al29  1  0.43186316  0.76997786  0.87233178  1
  Al  Al30  1  0.55912407  0.88038994  0.56009947  1
  Gd  Gd31  1  0.16842993  0.23245146  0.15751741  1
  Gd  Gd32  1  0.56000517  0.20167570  0.07789552  1
  Gd  Gd33  1  0.77399011  0.42967136  0.31209454  1
  Gd  Gd34  1  0.54122569  0.54605354  0.61095587  1
  Gd  Gd35  1  0.56000519  0.87165179  0.07789566  1
  N  N36  1  0.22276756  0.20528259  0.37538968  1
  N  N37  1  0.11309326  0.07152715  0.04951020  1
  N  N38  1  0.88139177  0.20288766  0.86358990  1
  N  N39  1  0.77721132  0.09080627  0.62385515  1
  N  N40  1  0.57010109  0.19594766  0.36967799  1
  N  N41  1  0.42251535  0.10540873  0.15890051  1
  N  N42  1  0.21456326  0.20938475  0.81285278  1
  N  N43  1  0.11081484  0.09046760  0.58642943  1
  N  N44  1  0.89992968  0.18254005  0.38877851  1
  N  N45  1  0.81685524  0.07536450  0.13813390  1
  N  N46  1  0.55073958  0.20446800  0.85550901  1
  N  N47  1  0.44940624  0.09196328  0.61602159  1
  N  N48  1  0.22146618  0.53466931  0.31548257  1
  N  N49  1  0.11309336  0.44871238  0.04951017  1
  N  N50  1  0.88139179  0.54905341  0.86358990  1
  N  N51  1  0.80802437  0.41265425  0.62939449  1
  N  N52  1  0.52569074  0.55382096  0.37462889  1
  N  N53  1  0.42436435  0.45631626  0.05628024  1
  N  N54  1  0.21885269  0.54596850  0.81397961  1
  N  N55  1  0.11081484  0.43205038  0.58642946  1
  N  N56  1  0.89992973  0.55086304  0.38877851  1
  N  N57  1  0.78363370  0.42484962  0.09033336  1
  N  N58  1  0.55913401  0.53709941  0.84695027  1
  N  N59  1  0.41900287  0.41170733  0.56672851  1
  N  N60  1  0.22146617  0.87719726  0.31548258  1
  N  N61  1  0.11908735  0.75712275  0.06655534  1
  N  N62  1  0.87860567  0.87736361  0.87723958  1
  N  N63  1  0.77721131  0.76531530  0.62385516  1
  N  N64  1  0.57010110  0.86728395  0.36967794  1
  N  N65  1  0.42436426  0.75265224  0.05628024  1
  N  N66  1  0.21885270  0.86851162  0.81397960  1
  N  N67  1  0.12164399  0.75584442  0.56916435  1
  N  N68  1  0.89432588  0.86950347  0.37905011  1
  N  N69  1  0.81685532  0.74111314  0.13813390  1
  N  N70  1  0.55073960  0.87812523  0.85550912  1
  N  N71  1  0.41900289  0.80262261  0.56672849  1
