# generated using pymatgen
data_Gd5Al31N36
_symmetry_space_group_name_H-M   'P 1'
_cell_length_a   9.62453336
_cell_length_b   9.65280194
_cell_length_c   10.69130319
_cell_angle_alpha   89.69698015
_cell_angle_beta   89.44964688
_cell_angle_gamma   60.00212925
_symmetry_Int_Tables_number   1
_chemical_formula_structural   Gd5Al31N36
_chemical_formula_sum   'Gd5 Al31 N36'
_cell_volume   860.16856758
_cell_formula_units_Z   1
loop_
 _symmetry_equiv_pos_site_id
 _symmetry_equiv_pos_as_xyz
  1  'x, y, z'
loop_
 _atom_site_type_symbol
 _atom_site_label
 _atom_site_symmetry_multiplicity
 _atom_site_fract_x
 _atom_site_fract_y
 _atom_site_fract_z
 _atom_site_occupancy
  Al  Al0  1  0.11917752  0.08607250  0.39659084  1
  Al  Al1  1  0.77670792  0.08856435  0.79977050  1
  Al  Al2  1  0.89168587  0.19937867  0.56690900  1
  Al  Al3  1  0.44813454  0.09679064  0.32971418  1
  Al  Al4  1  0.11666729  0.08542742  0.86634144  1
  Al  Al5  1  0.21351989  0.21001785  0.62039693  1
  Al  Al6  1  0.78866295  0.08790953  0.31390738  1
  Al  Al7  1  0.88884608  0.19382035  0.04022146  1
  Al  Al8  1  0.44681940  0.09138715  0.78670866  1
  Al  Al9  1  0.55367422  0.20342282  0.55535333  1
  Al  Al10  1  0.12097367  0.43161515  0.39738662  1
  Al  Al11  1  0.20928918  0.55258045  0.12715056  1
  Al  Al12  1  0.78996725  0.41896025  0.80885943  1
  Al  Al13  1  0.89216316  0.54254137  0.56732647  1
  Al  Al14  1  0.43867388  0.43575136  0.30501527  1
  Al  Al15  1  0.55120968  0.53697102  0.03640754  1
  Al  Al16  1  0.11767104  0.42770986  0.86661597  1
  Al  Al17  1  0.20967653  0.54645352  0.63167373  1
  Al  Al18  1  0.89014708  0.54666047  0.04034375  1
  Al  Al19  1  0.44351654  0.41765388  0.79745663  1
  Al  Al20  1  0.11786348  0.75898011  0.37788083  1
  Al  Al21  1  0.21859722  0.86643659  0.11989313  1
  Al  Al22  1  0.77858810  0.76331202  0.79874007  1
  Al  Al23  1  0.88543789  0.87530840  0.55467106  1
  Al  Al24  1  0.43221582  0.77704112  0.36113944  1
  Al  Al25  1  0.11384007  0.75788256  0.88051793  1
  Al  Al26  1  0.21278061  0.87614540  0.63066026  1
  Al  Al27  1  0.79096611  0.75943670  0.31513695  1
  Al  Al28  1  0.89548146  0.86773872  0.06534410  1
  Al  Al29  1  0.43937704  0.76152876  0.82694533  1
  Al  Al30  1  0.55833502  0.87828165  0.56173932  1
  Gd  Gd31  1  0.18129559  0.22362663  0.14577981  1
  Gd  Gd32  1  0.55591434  0.20801296  0.05824395  1
  Gd  Gd33  1  0.77843882  0.43152237  0.29569142  1
  Gd  Gd34  1  0.56107779  0.53207207  0.57164277  1
  Gd  Gd35  1  0.56169555  0.87073948  0.05387169  1
  N  N36  1  0.21745873  0.21005294  0.35951813  1
  N  N37  1  0.11277088  0.06947057  0.04392362  1
  N  N38  1  0.88088615  0.19976447  0.85983399  1
  N  N39  1  0.77804071  0.09108037  0.61839567  1
  N  N40  1  0.55835031  0.21327249  0.37010883  1
  N  N41  1  0.43862340  0.09699008  0.15417546  1
  N  N42  1  0.21399936  0.20831825  0.80730001  1
  N  N43  1  0.11679041  0.08674975  0.57466406  1
  N  N44  1  0.89286486  0.18980852  0.38469523  1
  N  N45  1  0.80949808  0.07828204  0.13351250  1
  N  N46  1  0.55145858  0.20004393  0.84565129  1
  N  N47  1  0.44681990  0.09453029  0.60676400  1
  N  N48  1  0.20877053  0.54471174  0.31269025  1
  N  N49  1  0.11632708  0.44737278  0.04465324  1
  N  N50  1  0.88090056  0.54806954  0.86047931  1
  N  N51  1  0.81951257  0.40690502  0.63130468  1
  N  N52  1  0.52512701  0.55878712  0.36233654  1
  N  N53  1  0.43898290  0.45261353  0.12512127  1
  N  N54  1  0.21242452  0.54879414  0.81155837  1
  N  N55  1  0.11761358  0.42985440  0.57538842  1
  N  N56  1  0.89333726  0.55418411  0.38712776  1
  N  N57  1  0.78568353  0.42186333  0.08027989  1
  N  N58  1  0.55592008  0.52930907  0.84745322  1
  N  N59  1  0.43207801  0.40846734  0.62171515  1
  N  N60  1  0.21582537  0.88180469  0.31059181  1
  N  N61  1  0.11801671  0.75695105  0.06146726  1
  N  N62  1  0.87620678  0.87640080  0.87513982  1
  N  N63  1  0.78171850  0.76337602  0.61910303  1
  N  N64  1  0.56292127  0.87223551  0.37480421  1
  N  N65  1  0.42835781  0.75109087  0.06200542  1
  N  N66  1  0.21231100  0.86982007  0.80878369  1
  N  N67  1  0.11970304  0.75745019  0.56131973  1
  N  N68  1  0.88599976  0.87623003  0.37423578  1
  N  N69  1  0.81387577  0.73822267  0.13550641  1
  N  N70  1  0.55252953  0.87448304  0.83816824  1
  N  N71  1  0.43082797  0.78905874  0.59856251  1
