# generated using pymatgen
data_Gd5Al31N36
_symmetry_space_group_name_H-M   'P 1'
_cell_length_a   9.70275586
_cell_length_b   9.67976188
_cell_length_c   10.31039611
_cell_angle_alpha   90.10183460
_cell_angle_beta   89.70550785
_cell_angle_gamma   60.00530919
_symmetry_Int_Tables_number   1
_chemical_formula_structural   Gd5Al31N36
_chemical_formula_sum   'Gd5 Al31 N36'
_cell_volume   838.64427219
_cell_formula_units_Z   1
loop_
 _symmetry_equiv_pos_site_id
 _symmetry_equiv_pos_as_xyz
  1  'x, y, z'
loop_
 _atom_site_type_symbol
 _atom_site_label
 _atom_site_symmetry_multiplicity
 _atom_site_fract_x
 _atom_site_fract_y
 _atom_site_fract_z
 _atom_site_occupancy
  Al  Al0  1  0.11132681  0.08645330  0.32131371  1
  Al  Al1  1  0.77869667  0.09084617  0.80263215  1
  Al  Al2  1  0.89764646  0.19705668  0.56698016  1
  Al  Al3  1  0.44289916  0.09509233  0.32862856  1
  Al  Al4  1  0.11204516  0.09054755  0.79933275  1
  Al  Al5  1  0.21765296  0.20841206  0.56210594  1
  Al  Al6  1  0.78769680  0.08506535  0.31862464  1
  Al  Al7  1  0.89457273  0.19299289  0.05259239  1
  Al  Al8  1  0.44415213  0.09481891  0.78520272  1
  Al  Al9  1  0.55500653  0.20376021  0.55796743  1
  Al  Al10  1  0.11231271  0.43572744  0.31756064  1
  Al  Al11  1  0.21329632  0.55103888  0.06360467  1
  Al  Al12  1  0.78732276  0.42349983  0.82156772  1
  Al  Al13  1  0.89805125  0.53847651  0.56576482  1
  Al  Al14  1  0.43510880  0.43642746  0.30965379  1
  Al  Al15  1  0.54208398  0.54590220  0.04845436  1
  Al  Al16  1  0.11138016  0.43153719  0.80005418  1
  Al  Al17  1  0.21702950  0.53954028  0.55938460  1
  Al  Al18  1  0.89502572  0.54599515  0.05241741  1
  Al  Al19  1  0.43390846  0.42558272  0.80590790  1
  Al  Al20  1  0.11032569  0.76038823  0.31406816  1
  Al  Al21  1  0.21305989  0.86982926  0.07152309  1
  Al  Al22  1  0.77890179  0.76407556  0.80187526  1
  Al  Al23  1  0.89077613  0.87126558  0.56100605  1
  Al  Al24  1  0.43653893  0.76146493  0.31232680  1
  Al  Al25  1  0.10992189  0.76271537  0.81189128  1
  Al  Al26  1  0.21743825  0.87527958  0.55953922  1
  Al  Al27  1  0.78775618  0.76065436  0.31810946  1
  Al  Al28  1  0.90028030  0.86668892  0.06541137  1
  Al  Al29  1  0.43382686  0.77390125  0.80418454  1
  Al  Al30  1  0.55606586  0.87356673  0.55800049  1
  Gd  Gd31  1  0.21203289  0.20949556  0.05736658  1
  Gd  Gd32  1  0.56216440  0.20727644  0.06309358  1
  Gd  Gd33  1  0.78721145  0.42282994  0.29919003  1
  Gd  Gd34  1  0.55905397  0.53523932  0.57605737  1
  Gd  Gd35  1  0.56240240  0.86253752  0.06168103  1
  N  N36  1  0.21468333  0.20986900  0.37191339  1
  N  N37  1  0.09516045  0.08322443  0.13537745  1
  N  N38  1  0.89341212  0.19607576  0.86610424  1
  N  N39  1  0.77794180  0.09294217  0.61764502  1
  N  N40  1  0.55894443  0.20951788  0.36726448  1
  N  N41  1  0.44060509  0.09549752  0.14904940  1
  N  N42  1  0.22298176  0.20555362  0.83564488  1
  N  N43  1  0.11310709  0.08998577  0.61567125  1
  N  N44  1  0.90051398  0.18066491  0.38523173  1
  N  N45  1  0.80804581  0.07762557  0.13267734  1
  N  N46  1  0.55450568  0.20171556  0.84412718  1
  N  N47  1  0.44459392  0.09417711  0.59928751  1
  N  N48  1  0.22196000  0.54166768  0.37331064  1
  N  N49  1  0.09771504  0.45480399  0.13131077  1
  N  N50  1  0.89286854  0.54491929  0.86621023  1
  N  N51  1  0.81573958  0.40923523  0.63254724  1
  N  N52  1  0.53692188  0.54752498  0.36128187  1
  N  N53  1  0.42492164  0.45702599  0.12332868  1
  N  N54  1  0.21764734  0.54078306  0.87286155  1
  N  N55  1  0.11236316  0.43090508  0.61669062  1
  N  N56  1  0.90205478  0.55142189  0.38338713  1
  N  N57  1  0.77532581  0.42947231  0.07733100  1
  N  N58  1  0.54827311  0.54278179  0.85433920  1
  N  N59  1  0.42425032  0.41378995  0.62412967  1
  N  N60  1  0.22155976  0.86886335  0.37301959  1
  N  N61  1  0.10941984  0.76121258  0.12536086  1
  N  N62  1  0.88705975  0.87333633  0.87181573  1
  N  N63  1  0.77874675  0.76224941  0.61697994  1
  N  N64  1  0.55983443  0.86472777  0.36789394  1
  N  N65  1  0.42614855  0.75129681  0.12633317  1
  N  N66  1  0.21827950  0.87576319  0.87256440  1
  N  N67  1  0.11079025  0.76093525  0.62221071  1
  N  N68  1  0.89226963  0.87045373  0.37611785  1
  N  N69  1  0.80779134  0.74847825  0.13233921  1
  N  N70  1  0.55445098  0.87708187  0.84236621  1
  N  N71  1  0.42613292  0.79242728  0.62181231  1
