# generated using pymatgen
data_Gd5Al31N36
_symmetry_space_group_name_H-M   'P 1'
_cell_length_a   9.69251348
_cell_length_b   9.67253665
_cell_length_c   10.54665530
_cell_angle_alpha   89.22591376
_cell_angle_beta   89.11918185
_cell_angle_gamma   60.11818896
_symmetry_Int_Tables_number   1
_chemical_formula_structural   Gd5Al31N36
_chemical_formula_sum   'Gd5 Al31 N36'
_cell_volume   857.18973382
_cell_formula_units_Z   1
loop_
 _symmetry_equiv_pos_site_id
 _symmetry_equiv_pos_as_xyz
  1  'x, y, z'
loop_
 _atom_site_type_symbol
 _atom_site_label
 _atom_site_symmetry_multiplicity
 _atom_site_fract_x
 _atom_site_fract_y
 _atom_site_fract_z
 _atom_site_occupancy
  Al  Al0  1  0.11920938  0.08481147  0.39022062  1
  Al  Al1  1  0.77433654  0.08923663  0.79926725  1
  Al  Al2  1  0.89293525  0.20027987  0.56853221  1
  Al  Al3  1  0.44596419  0.09710582  0.32532599  1
  Al  Al4  1  0.11116205  0.08018479  0.86440652  1
  Al  Al5  1  0.22484746  0.20918991  0.56361491  1
  Al  Al6  1  0.78817909  0.08836093  0.31677886  1
  Al  Al7  1  0.88775757  0.19860232  0.04405915  1
  Al  Al8  1  0.44177896  0.09177018  0.78442720  1
  Al  Al9  1  0.55762747  0.20212556  0.55600541  1
  Al  Al10  1  0.10910115  0.43574064  0.32699070  1
  Al  Al11  1  0.21086306  0.55116595  0.11473325  1
  Al  Al12  1  0.78358467  0.42201348  0.81619769  1
  Al  Al13  1  0.89615458  0.53919763  0.56576913  1
  Al  Al14  1  0.44190437  0.43356451  0.31261831  1
  Al  Al15  1  0.54138073  0.54649757  0.04557471  1
  Al  Al16  1  0.10925283  0.42544009  0.79580076  1
  Al  Al17  1  0.21724353  0.54037429  0.57073263  1
  Al  Al18  1  0.89155668  0.54735678  0.05006135  1
  Al  Al19  1  0.43318478  0.42292073  0.80027410  1
  Al  Al20  1  0.10404754  0.76778089  0.31920438  1
  Al  Al21  1  0.21193122  0.87874077  0.13158628  1
  Al  Al22  1  0.77825021  0.76136040  0.80010882  1
  Al  Al23  1  0.88876390  0.87184796  0.55825556  1
  Al  Al24  1  0.44335172  0.76332300  0.30612426  1
  Al  Al25  1  0.10442839  0.75235846  0.80935797  1
  Al  Al26  1  0.21376183  0.88132586  0.63134810  1
  Al  Al27  1  0.78636369  0.76273071  0.31628298  1
  Al  Al28  1  0.90105475  0.86752899  0.06445296  1
  Al  Al29  1  0.44380755  0.76327920  0.80062406  1
  Al  Al30  1  0.55710370  0.87440944  0.55614397  1
  Gd  Gd31  1  0.21916905  0.22124523  0.05646030  1
  Gd  Gd32  1  0.56789206  0.20916463  0.05853763  1
  Gd  Gd33  1  0.79125120  0.42432759  0.29351806  1
  Gd  Gd34  1  0.56112969  0.53705478  0.56587617  1
  Gd  Gd35  1  0.56197686  0.86793171  0.05521481  1
  N  N36  1  0.22209205  0.21295479  0.37491102  1
  N  N37  1  0.10775938  0.07342853  0.05017495  1
  N  N38  1  0.87831333  0.19927427  0.86135894  1
  N  N39  1  0.77826890  0.09104227  0.61753278  1
  N  N40  1  0.56144988  0.20904633  0.36927216  1
  N  N41  1  0.44708121  0.09707309  0.14930293  1
  N  N42  1  0.22035735  0.20029974  0.83581632  1
  N  N43  1  0.11750692  0.08886434  0.57398967  1
  N  N44  1  0.89477355  0.18731332  0.38520854  1
  N  N45  1  0.81256840  0.07918975  0.13475220  1
  N  N46  1  0.55064872  0.19870663  0.84336104  1
  N  N47  1  0.44751808  0.09303759  0.60239501  1
  N  N48  1  0.22230884  0.54431715  0.36364929  1
  N  N49  1  0.08514263  0.45693293  0.14389472  1
  N  N50  1  0.89115613  0.54131742  0.86582841  1
  N  N51  1  0.81392593  0.40948356  0.63345414  1
  N  N52  1  0.53939319  0.55044927  0.35650400  1
  N  N53  1  0.42926855  0.45346182  0.12898804  1
  N  N54  1  0.21636014  0.53323473  0.84929070  1
  N  N55  1  0.11126192  0.42794620  0.61437473  1
  N  N56  1  0.89786157  0.55473549  0.38776068  1
  N  N57  1  0.77455966  0.42805898  0.07676352  1
  N  N58  1  0.54803015  0.53828709  0.85554978  1
  N  N59  1  0.43045552  0.41227084  0.61924163  1
  N  N60  1  0.21742893  0.88379301  0.31877899  1
  N  N61  1  0.10414005  0.76534499  0.13093452  1
  N  N62  1  0.88377969  0.87190177  0.87309453  1
  N  N63  1  0.77867504  0.76178196  0.61793733  1
  N  N64  1  0.55970423  0.86822021  0.36888096  1
  N  N65  1  0.43480672  0.74861049  0.12096849  1
  N  N66  1  0.21642734  0.86780611  0.81570591  1
  N  N67  1  0.10427337  0.76110848  0.61696847  1
  N  N68  1  0.88828089  0.87430069  0.37668032  1
  N  N69  1  0.80485518  0.74958249  0.13201363  1
  N  N70  1  0.55442489  0.87299554  0.84084019  1
  N  N71  1  0.43478706  0.78749619  0.62006510  1
