# generated using pymatgen
data_Gd5Al31N36
_symmetry_space_group_name_H-M   'P 1'
_cell_length_a   9.70808943
_cell_length_b   9.69938089
_cell_length_c   10.27668048
_cell_angle_alpha   89.99913714
_cell_angle_beta   90.31452959
_cell_angle_gamma   60.02417862
_symmetry_Int_Tables_number   1
_chemical_formula_structural   Gd5Al31N36
_chemical_formula_sum   'Gd5 Al31 N36'
_cell_volume   838.22050911
_cell_formula_units_Z   1
loop_
 _symmetry_equiv_pos_site_id
 _symmetry_equiv_pos_as_xyz
  1  'x, y, z'
loop_
 _atom_site_type_symbol
 _atom_site_label
 _atom_site_symmetry_multiplicity
 _atom_site_fract_x
 _atom_site_fract_y
 _atom_site_fract_z
 _atom_site_occupancy
  Al  Al0  1  0.11147320  0.08641281  0.40814538  1
  Al  Al1  1  0.78452819  0.08941365  0.89073195  1
  Al  Al2  1  0.89395626  0.20265172  0.65331352  1
  Al  Al3  1  0.44263737  0.09534998  0.42465481  1
  Al  Al4  1  0.11039024  0.09002891  0.89203483  1
  Al  Al5  1  0.21581778  0.20875751  0.64712714  1
  Al  Al6  1  0.78221991  0.08569185  0.40766272  1
  Al  Al7  1  0.90096407  0.18372865  0.14177335  1
  Al  Al8  1  0.44379684  0.09476971  0.88182461  1
  Al  Al9  1  0.55406322  0.20431827  0.64897724  1
  Al  Al10  1  0.11147561  0.43545378  0.40814393  1
  Al  Al11  1  0.21550651  0.54992246  0.14769171  1
  Al  Al12  1  0.78590004  0.42372166  0.90529486  1
  Al  Al13  1  0.89395575  0.53673045  0.65331423  1
  Al  Al14  1  0.43078924  0.43110140  0.40525817  1
  Al  Al15  1  0.54389775  0.54471549  0.12076346  1
  Al  Al16  1  0.11039340  0.43291732  0.89203497  1
  Al  Al17  1  0.21436057  0.54176651  0.64941641  1
  Al  Al18  1  0.90097210  0.54864468  0.14177274  1
  Al  Al19  1  0.43711280  0.43016727  0.89855249  1
  Al  Al20  1  0.11019440  0.76157371  0.39617561  1
  Al  Al21  1  0.21550324  0.86790370  0.14769127  1
  Al  Al22  1  0.78452942  0.75940137  0.89073200  1
  Al  Al23  1  0.89219994  0.87056935  0.64888408  1
  Al  Al24  1  0.43078937  0.77144631  0.40525788  1
  Al  Al25  1  0.11076328  0.76128762  0.89957164  1
  Al  Al26  1  0.21436203  0.87720450  0.64941598  1
  Al  Al27  1  0.78222266  0.76543156  0.40766143  1
  Al  Al28  1  0.90055968  0.86638935  0.14498118  1
  Al  Al29  1  0.43711124  0.76605817  0.89855191  1
  Al  Al30  1  0.55406613  0.87494772  0.64897821  1
  Gd  Gd31  1  0.21337741  0.20997172  0.15179157  1
  Gd  Gd32  1  0.56489910  0.20749069  0.15112564  1
  Gd  Gd33  1  0.78042149  0.42646668  0.37484722  1
  Gd  Gd34  1  0.55451702  0.53940109  0.65175915  1
  Gd  Gd35  1  0.56490374  0.86092334  0.15112261  1
  N  N36  1  0.21954164  0.20689457  0.37508833  1
  N  N37  1  0.10527455  0.07499325  0.07508929  1
  N  N38  1  0.88877074  0.20677277  0.84014152  1
  N  N39  1  0.78031959  0.09379962  0.59569464  1
  N  N40  1  0.55494167  0.20276290  0.37127709  1
  N  N41  1  0.44519759  0.09406814  0.06328982  1
  N  N42  1  0.21620414  0.20856211  0.83819293  1
  N  N43  1  0.10700469  0.09295907  0.59496900  1
  N  N44  1  0.90546349  0.16746757  0.32814591  1
  N  N45  1  0.80669750  0.07353289  0.07348936  1
  N  N46  1  0.55844599  0.20858616  0.83951002  1
  N  N47  1  0.44229741  0.09552233  0.60980728  1
  N  N48  1  0.21864655  0.53924423  0.33794348  1
  N  N49  1  0.10528402  0.45306951  0.07509038  1
  N  N50  1  0.88877356  0.53778918  0.84014431  1
  N  N51  1  0.80715688  0.41309839  0.59421235  1
  N  N52  1  0.51920935  0.55705784  0.34546294  1
  N  N53  1  0.42255901  0.45198760  0.08073849  1
  N  N54  1  0.22021530  0.54338460  0.83539313  1
  N  N55  1  0.10700495  0.43338023  0.59496967  1
  N  N56  1  0.90546902  0.56040381  0.32814169  1
  N  N57  1  0.78454323  0.42440466  0.10163135  1
  N  N58  1  0.56004049  0.53664444  0.87214839  1
  N  N59  1  0.42417768  0.41720813  0.58916790  1
  N  N60  1  0.21864625  0.87544258  0.33794423  1
  N  N61  1  0.11165039  0.76084635  0.08917039  1
  N  N62  1  0.89337137  0.86998140  0.83358605  1
  N  N63  1  0.78032155  0.75923090  0.59569414  1
  N  N64  1  0.55494357  0.87562151  0.37127421  1
  N  N65  1  0.42255287  0.75879809  0.08073779  1
  N  N66  1  0.22021502  0.86972941  0.83539156  1
  N  N67  1  0.11023762  0.76155370  0.58571887  1
  N  N68  1  0.88622652  0.87355543  0.33909118  1
  N  N69  1  0.80669929  0.75312327  0.07348880  1
  N  N70  1  0.55844691  0.86629602  0.83951086  1
  N  N71  1  0.42418271  0.79195297  0.58916909  1
