# generated using pymatgen
data_Gd5Al31N36
_symmetry_space_group_name_H-M   'P 1'
_cell_length_a   9.72827439
_cell_length_b   9.73794165
_cell_length_c   10.35711491
_cell_angle_alpha   90.32676455
_cell_angle_beta   90.20386851
_cell_angle_gamma   59.80410301
_symmetry_Int_Tables_number   1
_chemical_formula_structural   Gd5Al31N36
_chemical_formula_sum   'Gd5 Al31 N36'
_cell_volume   848.01693164
_cell_formula_units_Z   1
loop_
 _symmetry_equiv_pos_site_id
 _symmetry_equiv_pos_as_xyz
  1  'x, y, z'
loop_
 _atom_site_type_symbol
 _atom_site_label
 _atom_site_symmetry_multiplicity
 _atom_site_fract_x
 _atom_site_fract_y
 _atom_site_fract_z
 _atom_site_occupancy
  Al  Al0  1  0.11523548  0.08527326  0.41525426  1
  Al  Al1  1  0.78032013  0.08401824  0.88601539  1
  Al  Al2  1  0.89357993  0.19607188  0.62931773  1
  Al  Al3  1  0.44446990  0.09248555  0.42486801  1
  Al  Al4  1  0.12004945  0.08635468  0.88561661  1
  Al  Al5  1  0.21823621  0.20909406  0.64814560  1
  Al  Al6  1  0.78056686  0.08255583  0.41628080  1
  Al  Al7  1  0.89183849  0.20443039  0.06491324  1
  Al  Al8  1  0.44326765  0.09614162  0.88783598  1
  Al  Al9  1  0.55137584  0.20019850  0.65298604  1
  Al  Al10  1  0.11161996  0.43359133  0.40706240  1
  Al  Al11  1  0.22050209  0.54956455  0.14575121  1
  Al  Al12  1  0.78884534  0.42440955  0.83224295  1
  Al  Al13  1  0.89540175  0.54301987  0.65170370  1
  Al  Al14  1  0.42782356  0.42518963  0.41463642  1
  Al  Al15  1  0.55914067  0.53896915  0.06083681  1
  Al  Al16  1  0.11049496  0.43404606  0.89461216  1
  Al  Al17  1  0.20988380  0.54077601  0.65085035  1
  Al  Al18  1  0.90110961  0.55046518  0.14133601  1
  Al  Al19  1  0.43453022  0.42649738  0.89055255  1
  Al  Al20  1  0.11298459  0.76113842  0.39488913  1
  Al  Al21  1  0.21764265  0.86826935  0.14499468  1
  Al  Al22  1  0.78584886  0.75982732  0.89443533  1
  Al  Al23  1  0.89332197  0.86650586  0.65054261  1
  Al  Al24  1  0.43005277  0.77514620  0.41188594  1
  Al  Al25  1  0.11139986  0.76083831  0.90110246  1
  Al  Al26  1  0.21345134  0.87834505  0.65120274  1
  Al  Al27  1  0.78354755  0.76276666  0.40583013  1
  Al  Al28  1  0.90065415  0.87031713  0.14675003  1
  Al  Al29  1  0.43637410  0.77149948  0.89027202  1
  Al  Al30  1  0.55476727  0.87714800  0.65129530  1
  Gd  Gd31  1  0.20921019  0.21175482  0.15527829  1
  Gd  Gd32  1  0.56562906  0.21299280  0.15414289  1
  Gd  Gd33  1  0.77008350  0.42441658  0.34636363  1
  Gd  Gd34  1  0.53883806  0.54585000  0.63023233  1
  Gd  Gd35  1  0.56169708  0.86200726  0.15077059  1
  N  N36  1  0.22214387  0.20412233  0.37680169  1
  N  N37  1  0.10983495  0.07391243  0.06915564  1
  N  N38  1  0.89125939  0.20219631  0.85852253  1
  N  N39  1  0.77612331  0.08762849  0.60517276  1
  N  N40  1  0.55608136  0.20030597  0.37345184  1
  N  N41  1  0.44372913  0.09875114  0.06827097  1
  N  N42  1  0.21850310  0.21026464  0.83782525  1
  N  N43  1  0.11216038  0.09233383  0.60311306  1
  N  N44  1  0.90200270  0.17319220  0.38404022  1
  N  N45  1  0.80427802  0.07446891  0.06971098  1
  N  N46  1  0.55679761  0.20562595  0.83991520  1
  N  N47  1  0.44286086  0.09354360  0.60835723  1
  N  N48  1  0.22182347  0.53597730  0.33585976  1
  N  N49  1  0.10698457  0.45354197  0.07615951  1
  N  N50  1  0.89395557  0.54394342  0.83794522  1
  N  N51  1  0.80244594  0.41486679  0.63805492  1
  N  N52  1  0.51715139  0.55504419  0.39966144  1
  N  N53  1  0.42703898  0.45295162  0.07246258  1
  N  N54  1  0.21764179  0.54423711  0.83516308  1
  N  N55  1  0.10473958  0.43297950  0.59205822  1
  N  N56  1  0.90605533  0.55573391  0.33007640  1
  N  N57  1  0.78126035  0.42816193  0.11187335  1
  N  N58  1  0.56163029  0.53617557  0.86700633  1
  N  N59  1  0.41735591  0.40815645  0.59658956  1
  N  N60  1  0.22177584  0.87560161  0.33555248  1
  N  N61  1  0.11258559  0.76167653  0.08948436  1
  N  N62  1  0.89546779  0.86603598  0.83396037  1
  N  N63  1  0.78025452  0.75979282  0.59339926  1
  N  N64  1  0.55677848  0.87214959  0.36989900  1
  N  N65  1  0.42525242  0.75712480  0.07222411  1
  N  N66  1  0.22045817  0.86737933  0.83400463  1
  N  N67  1  0.11232054  0.76025586  0.58515254  1
  N  N68  1  0.88742513  0.87284305  0.33923006  1
  N  N69  1  0.80600497  0.75594257  0.07630908  1
  N  N70  1  0.56004038  0.86919076  0.84068723  1
  N  N71  1  0.42020588  0.80378860  0.59439504  1
