# generated using pymatgen
data_Gd5Al31N36
_symmetry_space_group_name_H-M   'P 1'
_cell_length_a   9.67685221
_cell_length_b   9.69751339
_cell_length_c   10.58142066
_cell_angle_alpha   90.20298831
_cell_angle_beta   89.61286478
_cell_angle_gamma   59.93381743
_symmetry_Int_Tables_number   1
_chemical_formula_structural   Gd5Al31N36
_chemical_formula_sum   'Gd5 Al31 N36'
_cell_volume   859.32067566
_cell_formula_units_Z   1
loop_
 _symmetry_equiv_pos_site_id
 _symmetry_equiv_pos_as_xyz
  1  'x, y, z'
loop_
 _atom_site_type_symbol
 _atom_site_label
 _atom_site_symmetry_multiplicity
 _atom_site_fract_x
 _atom_site_fract_y
 _atom_site_fract_z
 _atom_site_occupancy
  Al  Al0  1  0.12134278  0.08218723  0.39735639  1
  Al  Al1  1  0.77882224  0.08845517  0.79839502  1
  Al  Al2  1  0.88831886  0.20167502  0.56458114  1
  Al  Al3  1  0.44790431  0.09511065  0.32832921  1
  Al  Al4  1  0.11667458  0.08712703  0.86392535  1
  Al  Al5  1  0.21395544  0.20987450  0.61771145  1
  Al  Al6  1  0.79189870  0.08387496  0.31288656  1
  Al  Al7  1  0.88851669  0.19390861  0.04021226  1
  Al  Al8  1  0.44662767  0.08914354  0.78938862  1
  Al  Al9  1  0.55880428  0.19731013  0.56035461  1
  Al  Al10  1  0.12056652  0.42922435  0.39780771  1
  Al  Al11  1  0.21929579  0.54668174  0.12513330  1
  Al  Al12  1  0.79410866  0.41889483  0.80699061  1
  Al  Al13  1  0.89019864  0.54371888  0.56529624  1
  Al  Al14  1  0.43532521  0.42937377  0.35930524  1
  Al  Al15  1  0.55560581  0.53133187  0.03247210  1
  Al  Al16  1  0.11895841  0.42763963  0.86551784  1
  Al  Al17  1  0.20884064  0.54692302  0.62835946  1
  Al  Al18  1  0.89133881  0.54769779  0.03981676  1
  Al  Al19  1  0.44183048  0.41974907  0.80341315  1
  Al  Al20  1  0.12045640  0.75754571  0.37614852  1
  Al  Al21  1  0.21786589  0.86550379  0.11956565  1
  Al  Al22  1  0.77507602  0.76558316  0.80075392  1
  Al  Al23  1  0.88702356  0.87361825  0.55446958  1
  Al  Al24  1  0.42921646  0.77671434  0.37926630  1
  Al  Al25  1  0.11560401  0.75735362  0.87833561  1
  Al  Al26  1  0.21302779  0.87989514  0.62788000  1
  Al  Al27  1  0.79633108  0.75599180  0.31248001  1
  Al  Al28  1  0.89797201  0.86752762  0.06338867  1
  Al  Al29  1  0.43173185  0.76742261  0.86491210  1
  Al  Al30  1  0.55825311  0.88328852  0.55182496  1
  Gd  Gd31  1  0.17282109  0.22878373  0.14838285  1
  Gd  Gd32  1  0.55534321  0.20435532  0.05695555  1
  Gd  Gd33  1  0.77122481  0.43067818  0.30027679  1
  Gd  Gd34  1  0.55187129  0.55162158  0.59511424  1
  Gd  Gd35  1  0.56044681  0.86928056  0.07209072  1
  N  N36  1  0.22036748  0.20620331  0.36536144  1
  N  N37  1  0.11227432  0.06889070  0.04338695  1
  N  N38  1  0.88174654  0.20130384  0.85765326  1
  N  N39  1  0.78022590  0.08944243  0.61701896  1
  N  N40  1  0.56389278  0.20247465  0.37375184  1
  N  N41  1  0.42757804  0.10474304  0.15281205  1
  N  N42  1  0.21480023  0.20848061  0.80727937  1
  N  N43  1  0.11058667  0.09134365  0.57803333  1
  N  N44  1  0.89637689  0.18577862  0.38159109  1
  N  N45  1  0.81026106  0.07808017  0.13175754  1
  N  N46  1  0.55275799  0.20149924  0.83898971  1
  N  N47  1  0.44756371  0.09362307  0.60826227  1
  N  N48  1  0.21617290  0.53783394  0.31649997  1
  N  N49  1  0.11571320  0.44784712  0.04509036  1
  N  N50  1  0.88291159  0.54847243  0.85787859  1
  N  N51  1  0.81534947  0.41026187  0.62600571  1
  N  N52  1  0.52521260  0.55540563  0.37437066  1
  N  N53  1  0.43714967  0.45053471  0.09721941  1
  N  N54  1  0.21511501  0.54725284  0.80871015  1
  N  N55  1  0.11392482  0.43155446  0.57727457  1
  N  N56  1  0.89609658  0.55102447  0.38257697  1
  N  N57  1  0.78483040  0.42466008  0.08022878  1
  N  N58  1  0.55783685  0.53294537  0.83839643  1
  N  N59  1  0.42932016  0.41281313  0.60163712  1
  N  N60  1  0.21956642  0.87759699  0.30832306  1
  N  N61  1  0.11909960  0.75477221  0.06175160  1
  N  N62  1  0.87925031  0.87652563  0.87171414  1
  N  N63  1  0.77688224  0.76535159  0.61736915  1
  N  N64  1  0.56875698  0.86885890  0.36241055  1
  N  N65  1  0.42411542  0.75000000  0.04614752  1
  N  N66  1  0.21790490  0.86806658  0.80699726  1
  N  N67  1  0.11966948  0.75832915  0.56208119  1
  N  N68  1  0.89054509  0.87243209  0.37243301  1
  N  N69  1  0.81749534  0.73963631  0.13220001  1
  N  N70  1  0.55155003  0.87586191  0.84892492  1
  N  N71  1  0.41552036  0.80920725  0.55907545  1
