# generated using pymatgen
data_Gd5Al31N36
_symmetry_space_group_name_H-M   'P 1'
_cell_length_a   9.70493819
_cell_length_b   9.68552940
_cell_length_c   10.28535547
_cell_angle_alpha   89.99982627
_cell_angle_beta   90.14027973
_cell_angle_gamma   60.06470271
_symmetry_Int_Tables_number   1
_chemical_formula_structural   Gd5Al31N36
_chemical_formula_sum   'Gd5 Al31 N36'
_cell_volume   837.81305836
_cell_formula_units_Z   1
loop_
 _symmetry_equiv_pos_site_id
 _symmetry_equiv_pos_as_xyz
  1  'x, y, z'
loop_
 _atom_site_type_symbol
 _atom_site_label
 _atom_site_symmetry_multiplicity
 _atom_site_fract_x
 _atom_site_fract_y
 _atom_site_fract_z
 _atom_site_occupancy
  Al  Al0  1  0.11261768  0.08563109  0.40967749  1
  Al  Al1  1  0.78441644  0.08969947  0.89159902  1
  Al  Al2  1  0.89447046  0.20239695  0.65504121  1
  Al  Al3  1  0.44412386  0.09460518  0.42505183  1
  Al  Al4  1  0.11021588  0.09038507  0.89253786  1
  Al  Al5  1  0.21642847  0.20845316  0.64759189  1
  Al  Al6  1  0.78290804  0.08563007  0.40778224  1
  Al  Al7  1  0.89958364  0.18549627  0.14248537  1
  Al  Al8  1  0.44280280  0.09526488  0.88158133  1
  Al  Al9  1  0.55446808  0.20477896  0.65008963  1
  Al  Al10  1  0.11261958  0.43508812  0.40967689  1
  Al  Al11  1  0.21405009  0.55021909  0.14762954  1
  Al  Al12  1  0.78173752  0.42580090  0.90883953  1
  Al  Al13  1  0.89447062  0.53647110  0.65504165  1
  Al  Al14  1  0.43099765  0.42996976  0.40367267  1
  Al  Al15  1  0.53660777  0.54836196  0.14403532  1
  Al  Al16  1  0.11021800  0.43273377  0.89253806  1
  Al  Al17  1  0.21570693  0.54145465  0.65025459  1
  Al  Al18  1  0.89958876  0.54825793  0.14248451  1
  Al  Al19  1  0.43815864  0.43259025  0.90134349  1
  Al  Al20  1  0.11015519  0.76159139  0.39703187  1
  Al  Al21  1  0.21404770  0.86906631  0.14762914  1
  Al  Al22  1  0.78441757  0.75922274  0.89159884  1
  Al  Al23  1  0.89220109  0.87056895  0.64937706  1
  Al  Al24  1  0.43099732  0.77236760  0.40367264  1
  Al  Al25  1  0.11069496  0.76132057  0.89983400  1
  Al  Al26  1  0.21570760  0.87617300  0.65025428  1
  Al  Al27  1  0.78290990  0.76480165  0.40778150  1
  Al  Al28  1  0.90027943  0.86652988  0.14566096  1
  Al  Al29  1  0.43815740  0.76258589  0.90134296  1
  Al  Al30  1  0.55446985  0.87408521  0.65008973  1
  Gd  Gd31  1  0.21180694  0.21076116  0.15344474  1
  Gd  Gd32  1  0.56376820  0.20726804  0.14959920  1
  Gd  Gd33  1  0.78271978  0.42531311  0.37703571  1
  Gd  Gd34  1  0.55554779  0.53889063  0.65151450  1
  Gd  Gd35  1  0.56377144  0.86228629  0.14959792  1
  N  N36  1  0.22105109  0.20614143  0.37683923  1
  N  N37  1  0.10421999  0.07600843  0.07542734  1
  N  N38  1  0.88811987  0.20764908  0.84168939  1
  N  N39  1  0.78043744  0.09408002  0.59598031  1
  N  N40  1  0.55625117  0.20217315  0.36984557  1
  N  N41  1  0.44219083  0.09556847  0.06261636  1
  N  N42  1  0.21597193  0.20868022  0.83791719  1
  N  N43  1  0.10777435  0.09217001  0.59625040  1
  N  N44  1  0.90726110  0.16731893  0.32913795  1
  N  N45  1  0.80663317  0.07363265  0.07437497  1
  N  N46  1  0.55808949  0.20962276  0.84065812  1
  N  N47  1  0.44356005  0.09488794  0.61028920  1
  N  N48  1  0.21893486  0.53940298  0.33820030  1
  N  N49  1  0.10422557  0.45310562  0.07542776  1
  N  N50  1  0.88812168  0.53756643  0.84169046  1
  N  N51  1  0.80871370  0.41231477  0.59472614  1
  N  N52  1  0.51958164  0.55687494  0.33770206  1
  N  N53  1  0.42255824  0.45369030  0.08360955  1
  N  N54  1  0.22135454  0.54290513  0.83631891  1
  N  N55  1  0.10777456  0.43339392  0.59625050  1
  N  N56  1  0.90726485  0.55875774  0.32913587  1
  N  N57  1  0.78127148  0.42603660  0.10536607  1
  N  N58  1  0.55931719  0.53700738  0.86757636  1
  N  N59  1  0.42517112  0.41721564  0.58704862  1
  N  N60  1  0.21893410  0.87499804  0.33820053  1
  N  N61  1  0.11090439  0.76121644  0.08929733  1
  N  N62  1  0.89325801  0.87003934  0.83398379  1
  N  N63  1  0.78043881  0.75882426  0.59597985  1
  N  N64  1  0.55625236  0.87490660  0.36984433  1
  N  N65  1  0.42255453  0.75708711  0.08360853  1
  N  N66  1  0.22135383  0.86907405  0.83631819  1
  N  N67  1  0.11065915  0.76133990  0.58643639  1
  N  N68  1  0.88711884  0.87311007  0.33978490  1
  N  N69  1  0.80663548  0.75307666  0.07437423  1
  N  N70  1  0.55809062  0.86561837  0.84065786  1
  N  N71  1  0.42517335  0.79094792  0.58704903  1
