# generated using pymatgen
data_Gd5Al31N36
_symmetry_space_group_name_H-M   'P 1'
_cell_length_a   9.70166592
_cell_length_b   9.70368275
_cell_length_c   10.47412647
_cell_angle_alpha   90.25700251
_cell_angle_beta   89.85784793
_cell_angle_gamma   59.96728135
_symmetry_Int_Tables_number   1
_chemical_formula_structural   Gd5Al31N36
_chemical_formula_sum   'Gd5 Al31 N36'
_cell_volume   853.64486188
_cell_formula_units_Z   1
loop_
 _symmetry_equiv_pos_site_id
 _symmetry_equiv_pos_as_xyz
  1  'x, y, z'
loop_
 _atom_site_type_symbol
 _atom_site_label
 _atom_site_symmetry_multiplicity
 _atom_site_fract_x
 _atom_site_fract_y
 _atom_site_fract_z
 _atom_site_occupancy
  Al  Al0  1  0.12287981  0.08282662  0.41699362  1
  Al  Al1  1  0.77989662  0.08574594  0.88861512  1
  Al  Al2  1  0.89346942  0.19974735  0.59165607  1
  Al  Al3  1  0.44553837  0.09361657  0.42655179  1
  Al  Al4  1  0.11923229  0.08699371  0.88890305  1
  Al  Al5  1  0.22013699  0.20710731  0.65136699  1
  Al  Al6  1  0.77785577  0.08151130  0.41553231  1
  Al  Al7  1  0.89162754  0.20172814  0.05953291  1
  Al  Al8  1  0.44286344  0.09548979  0.89127976  1
  Al  Al9  1  0.55212806  0.20073332  0.65468834  1
  Al  Al10  1  0.11083970  0.43286058  0.41429128  1
  Al  Al11  1  0.21751274  0.55001392  0.14595315  1
  Al  Al12  1  0.79060414  0.41647970  0.83019147  1
  Al  Al13  1  0.89646799  0.54147992  0.65312494  1
  Al  Al14  1  0.42964626  0.42598372  0.41436682  1
  Al  Al15  1  0.55552087  0.54007918  0.05563507  1
  Al  Al16  1  0.11740731  0.43031869  0.88900558  1
  Al  Al17  1  0.21253333  0.54206583  0.65125016  1
  Al  Al18  1  0.89275081  0.54388429  0.08692833  1
  Al  Al19  1  0.43454196  0.42734763  0.88959477  1
  Al  Al20  1  0.11242427  0.76025423  0.39589040  1
  Al  Al21  1  0.21787034  0.86797449  0.14597116  1
  Al  Al22  1  0.78029726  0.76742507  0.88908354  1
  Al  Al23  1  0.89272147  0.87015069  0.65210777  1
  Al  Al24  1  0.43138443  0.77519807  0.41498436  1
  Al  Al25  1  0.11088593  0.76186539  0.90215325  1
  Al  Al26  1  0.21294983  0.87937900  0.65337181  1
  Al  Al27  1  0.78364849  0.76043971  0.41339318  1
  Al  Al28  1  0.89891996  0.86805760  0.14793883  1
  Al  Al29  1  0.43582660  0.77239675  0.88978270  1
  Al  Al30  1  0.55312686  0.87934103  0.65236448  1
  Gd  Gd31  1  0.20610639  0.21591501  0.15886148  1
  Gd  Gd32  1  0.56093603  0.21412119  0.15390125  1
  Gd  Gd33  1  0.77181665  0.42634115  0.33119007  1
  Gd  Gd34  1  0.54542987  0.54345123  0.62777713  1
  Gd  Gd35  1  0.56216449  0.85973459  0.15630610  1
  N  N36  1  0.22471433  0.20428064  0.37772888  1
  N  N37  1  0.11032319  0.07459156  0.07383067  1
  N  N38  1  0.89113707  0.20279143  0.87529447  1
  N  N39  1  0.77397217  0.08853276  0.60289413  1
  N  N40  1  0.55662852  0.20168538  0.37097317  1
  N  N41  1  0.44147785  0.09575156  0.07034992  1
  N  N42  1  0.22066132  0.20767592  0.83830495  1
  N  N43  1  0.11567604  0.09142170  0.60284008  1
  N  N44  1  0.90166383  0.17897002  0.40403766  1
  N  N45  1  0.80126092  0.07346718  0.07389162  1
  N  N46  1  0.55639795  0.20553760  0.84074460  1
  N  N47  1  0.44322219  0.09500983  0.60797388  1
  N  N48  1  0.22243760  0.53460087  0.33586272  1
  N  N49  1  0.10866486  0.45223447  0.06923139  1
  N  N50  1  0.89259502  0.54242955  0.84812293  1
  N  N51  1  0.80823976  0.40916621  0.64647002  1
  N  N52  1  0.52269815  0.55446111  0.39963099  1
  N  N53  1  0.42429449  0.45340296  0.07038711  1
  N  N54  1  0.21911869  0.54599896  0.83349126  1
  N  N55  1  0.10878825  0.43097373  0.59943442  1
  N  N56  1  0.90306680  0.55172455  0.35571286  1
  N  N57  1  0.77844527  0.42886687  0.10369643  1
  N  N58  1  0.56058373  0.53658633  0.86531162  1
  N  N59  1  0.42000413  0.40879752  0.59527468  1
  N  N60  1  0.22295370  0.87498932  0.33586513  1
  N  N61  1  0.11114291  0.76194580  0.08982105  1
  N  N62  1  0.89571899  0.86892473  0.83394626  1
  N  N63  1  0.77954843  0.76131886  0.60105669  1
  N  N64  1  0.55771777  0.87297118  0.37387891  1
  N  N65  1  0.42548232  0.75802605  0.07089951  1
  N  N66  1  0.21966579  0.86896474  0.83522782  1
  N  N67  1  0.11179240  0.76133270  0.58517006  1
  N  N68  1  0.88724739  0.87219762  0.33935140  1
  N  N69  1  0.80099522  0.75962944  0.07007863  1
  N  N70  1  0.55726209  0.87184629  0.83903396  1
  N  N71  1  0.42066110  0.80270881  0.59598275  1
