# generated using pymatgen
data_Gd5Al31N36
_symmetry_space_group_name_H-M   'P 1'
_cell_length_a   9.71785940
_cell_length_b   9.68689633
_cell_length_c   10.39448828
_cell_angle_alpha   89.97945832
_cell_angle_beta   89.29973713
_cell_angle_gamma   60.02535102
_symmetry_Int_Tables_number   1
_chemical_formula_structural   Gd5Al31N36
_chemical_formula_sum   'Gd5 Al31 N36'
_cell_volume   847.53549529
_cell_formula_units_Z   1
loop_
 _symmetry_equiv_pos_site_id
 _symmetry_equiv_pos_as_xyz
  1  'x, y, z'
loop_
 _atom_site_type_symbol
 _atom_site_label
 _atom_site_symmetry_multiplicity
 _atom_site_fract_x
 _atom_site_fract_y
 _atom_site_fract_z
 _atom_site_occupancy
  Al  Al0  1  0.11837965  0.08480845  0.37644333  1
  Al  Al1  1  0.77422291  0.09109211  0.80142633  1
  Al  Al2  1  0.89041876  0.20055739  0.57096563  1
  Al  Al3  1  0.44512208  0.09480171  0.32839495  1
  Al  Al4  1  0.10525596  0.09787321  0.80086154  1
  Al  Al5  1  0.22250402  0.21296813  0.56860344  1
  Al  Al6  1  0.78986062  0.08442025  0.31793946  1
  Al  Al7  1  0.89539428  0.19358159  0.04334823  1
  Al  Al8  1  0.44419086  0.09407022  0.78466336  1
  Al  Al9  1  0.55476181  0.20400893  0.55705065  1
  Al  Al10  1  0.11307765  0.43440211  0.31786417  1
  Al  Al11  1  0.21216285  0.55213377  0.06466705  1
  Al  Al12  1  0.78243844  0.42686081  0.82103858  1
  Al  Al13  1  0.89682830  0.53897383  0.56498178  1
  Al  Al14  1  0.43661689  0.43593804  0.30772179  1
  Al  Al15  1  0.54124934  0.54650417  0.04754688  1
  Al  Al16  1  0.10804759  0.43440017  0.79901871  1
  Al  Al17  1  0.21672393  0.53907605  0.55814370  1
  Al  Al18  1  0.89428050  0.54645073  0.05168803  1
  Al  Al19  1  0.43215690  0.42644923  0.80566567  1
  Al  Al20  1  0.10734896  0.75628119  0.31613406  1
  Al  Al21  1  0.21101761  0.87771232  0.13786735  1
  Al  Al22  1  0.77705094  0.76462630  0.80118843  1
  Al  Al23  1  0.88882613  0.87060445  0.55924682  1
  Al  Al24  1  0.44573598  0.75752697  0.31103727  1
  Al  Al25  1  0.10358303  0.75952172  0.81159461  1
  Al  Al26  1  0.21782993  0.87058559  0.62123022  1
  Al  Al27  1  0.78815805  0.75919310  0.31662446  1
  Al  Al28  1  0.90146609  0.86806964  0.06658079  1
  Al  Al29  1  0.44034773  0.76873449  0.80154342  1
  Al  Al30  1  0.55838652  0.87280379  0.55574509  1
  Gd  Gd31  1  0.21855679  0.21201188  0.05187564  1
  Gd  Gd32  1  0.56516136  0.20684580  0.06405343  1
  Gd  Gd33  1  0.79572086  0.41504991  0.29262266  1
  Gd  Gd34  1  0.56112291  0.53190513  0.56925638  1
  Gd  Gd35  1  0.56327004  0.86386916  0.06041778  1
  N  N36  1  0.21954837  0.21135914  0.37932158  1
  N  N37  1  0.09792065  0.08800760  0.10079881  1
  N  N38  1  0.88550701  0.19918814  0.85796850  1
  N  N39  1  0.77580693  0.09184207  0.61812719  1
  N  N40  1  0.56045893  0.20958660  0.36794016  1
  N  N41  1  0.44360211  0.09506183  0.15109588  1
  N  N42  1  0.21978438  0.20730278  0.82813163  1
  N  N43  1  0.11268666  0.09298768  0.60039969  1
  N  N44  1  0.89858123  0.18066269  0.39015139  1
  N  N45  1  0.81082243  0.07968550  0.13365222  1
  N  N46  1  0.55070876  0.20254765  0.84584387  1
  N  N47  1  0.44747181  0.09271125  0.60097565  1
  N  N48  1  0.22364787  0.53966648  0.37368069  1
  N  N49  1  0.09488604  0.45570419  0.13337118  1
  N  N50  1  0.89075165  0.54642486  0.86593475  1
  N  N51  1  0.81373443  0.41132247  0.63396170  1
  N  N52  1  0.54343324  0.54333587  0.35615661  1
  N  N53  1  0.42384414  0.45687407  0.12296759  1
  N  N54  1  0.21537154  0.54028687  0.87418477  1
  N  N55  1  0.11007707  0.43400614  0.61738132  1
  N  N56  1  0.90154197  0.54977599  0.38342649  1
  N  N57  1  0.77386009  0.42968421  0.07244174  1
  N  N58  1  0.54588941  0.54302888  0.85460884  1
  N  N59  1  0.42314845  0.41446164  0.62448584  1
  N  N60  1  0.22158181  0.87042846  0.33497702  1
  N  N61  1  0.10813056  0.76004570  0.12712758  1
  N  N62  1  0.88317898  0.87473203  0.87311119  1
  N  N63  1  0.77791822  0.76232066  0.61717936  1
  N  N64  1  0.56156760  0.86497258  0.36818911  1
  N  N65  1  0.43242951  0.74903269  0.12446455  1
  N  N66  1  0.21497797  0.87381529  0.81583795  1
  N  N67  1  0.10439246  0.75631548  0.61987396  1
  N  N68  1  0.89089291  0.87014275  0.37606388  1
  N  N69  1  0.80760684  0.74905550  0.13233434  1
  N  N70  1  0.55256069  0.87743213  0.84223821  1
  N  N71  1  0.43639340  0.78546781  0.61715428  1
