# generated using pymatgen
data_Gd5Al31N36
_symmetry_space_group_name_H-M   'P 1'
_cell_length_a   9.68457045
_cell_length_b   9.70650354
_cell_length_c   10.55873407
_cell_angle_alpha   90.00000991
_cell_angle_beta   89.20107667
_cell_angle_gamma   59.92503912
_symmetry_Int_Tables_number   1
_chemical_formula_structural   Gd5Al31N36
_chemical_formula_sum   'Gd5 Al31 N36'
_cell_volume   858.81720837
_cell_formula_units_Z   1
loop_
 _symmetry_equiv_pos_site_id
 _symmetry_equiv_pos_as_xyz
  1  'x, y, z'
loop_
 _atom_site_type_symbol
 _atom_site_label
 _atom_site_symmetry_multiplicity
 _atom_site_fract_x
 _atom_site_fract_y
 _atom_site_fract_z
 _atom_site_occupancy
  Al  Al0  1  0.12364097  0.08031789  0.41943966  1
  Al  Al1  1  0.77396226  0.09258327  0.82070991  1
  Al  Al2  1  0.88781915  0.20107743  0.58559458  1
  Al  Al3  1  0.44886567  0.09223345  0.34847834  1
  Al  Al4  1  0.11689750  0.08850244  0.88325138  1
  Al  Al5  1  0.21533115  0.20900071  0.63718419  1
  Al  Al6  1  0.79756839  0.08003515  0.33329272  1
  Al  Al7  1  0.88969641  0.19443241  0.06012876  1
  Al  Al8  1  0.44634416  0.09349421  0.81235700  1
  Al  Al9  1  0.55901511  0.19387281  0.57412622  1
  Al  Al10  1  0.12364099  0.42937372  0.41943969  1
  Al  Al11  1  0.21621289  0.54848449  0.14081084  1
  Al  Al12  1  0.79238384  0.42047441  0.82580488  1
  Al  Al13  1  0.88781914  0.54443605  0.58559459  1
  Al  Al14  1  0.43243544  0.42819037  0.39985379  1
  Al  Al15  1  0.55998662  0.53667298  0.05585328  1
  Al  Al16  1  0.11689753  0.42793267  0.88325135  1
  Al  Al17  1  0.21394602  0.54088594  0.64838167  1
  Al  Al18  1  0.88969651  0.54920382  0.06012874  1
  Al  Al19  1  0.43175654  0.43154559  0.88636098  1
  Al  Al20  1  0.12375312  0.75478972  0.39558976  1
  Al  Al21  1  0.21621283  0.86863528  0.14081085  1
  Al  Al22  1  0.77396226  0.76678714  0.82070993  1
  Al  Al23  1  0.88836738  0.87248264  0.57562359  1
  Al  Al24  1  0.43243543  0.77270671  0.39985377  1
  Al  Al25  1  0.11410970  0.75961148  0.89639808  1
  Al  Al26  1  0.21394605  0.87850065  0.64838165  1
  Al  Al27  1  0.79756846  0.75572905  0.33329272  1
  Al  Al28  1  0.89896605  0.86718331  0.08276738  1
  Al  Al29  1  0.43175655  0.77003052  0.88636101  1
  Al  Al30  1  0.55901511  0.88044464  0.57412618  1
  Gd  Gd31  1  0.16831654  0.23250806  0.17154628  1
  Gd  Gd32  1  0.55989502  0.20173126  0.09192644  1
  Gd  Gd33  1  0.77388519  0.42972372  0.32612348  1
  Gd  Gd34  1  0.54111532  0.54610863  0.62498049  1
  Gd  Gd35  1  0.55989503  0.87170620  0.09192659  1
  N  N36  1  0.22266025  0.20533615  0.38941939  1
  N  N37  1  0.11298414  0.07158203  0.06353622  1
  N  N38  1  0.88128466  0.20294183  0.87761388  1
  N  N39  1  0.77710158  0.09086022  0.63788380  1
  N  N40  1  0.56999372  0.19600071  0.38370249  1
  N  N41  1  0.42240155  0.10546554  0.17292602  1
  N  N42  1  0.21445743  0.20943757  0.82688290  1
  N  N43  1  0.11070593  0.09052237  0.60046191  1
  N  N44  1  0.89982301  0.18259212  0.40280792  1
  N  N45  1  0.81674717  0.07541909  0.15215844  1
  N  N46  1  0.55063258  0.20452170  0.86953962  1
  N  N47  1  0.44929885  0.09201687  0.63005214  1
  N  N48  1  0.22135710  0.53472303  0.32950974  1
  N  N49  1  0.11298423  0.44876643  0.06353618  1
  N  N50  1  0.88128469  0.54910615  0.87761388  1
  N  N51  1  0.80791341  0.41270964  0.64341932  1
  N  N52  1  0.52558361  0.55387443  0.38865250  1
  N  N53  1  0.42425563  0.45637126  0.07030916  1
  N  N54  1  0.21874678  0.54602195  0.82800813  1
  N  N55  1  0.11070593  0.43210432  0.60046193  1
  N  N56  1  0.89982305  0.55091744  0.40280791  1
  N  N57  1  0.78352637  0.42490319  0.10436057  1
  N  N58  1  0.55902646  0.53715308  0.86097798  1
  N  N59  1  0.41889338  0.41176169  0.58075233  1
  N  N60  1  0.22135708  0.87725243  0.32950974  1
  N  N61  1  0.11897834  0.75717715  0.08058372  1
  N  N62  1  0.87849915  0.87741677  0.89126752  1
  N  N63  1  0.77710156  0.76537089  0.63788380  1
  N  N64  1  0.56999373  0.86733807  0.38370244  1
  N  N65  1  0.42425555  0.75270575  0.07030916  1
  N  N66  1  0.21874679  0.86856389  0.82800812  1
  N  N67  1  0.12153470  0.75589896  0.58319277  1
  N  N68  1  0.89421844  0.86955709  0.39307530  1
  N  N69  1  0.81674725  0.74116642  0.15215844  1
  N  N70  1  0.55063260  0.87817834  0.86953973  1
  N  N71  1  0.41889340  0.80267754  0.58075232  1
