# generated using pymatgen
data_Gd5Al31N36
_symmetry_space_group_name_H-M   'P 1'
_cell_length_a   9.70026870
_cell_length_b   9.68129692
_cell_length_c   10.29548595
_cell_angle_alpha   89.99999094
_cell_angle_beta   89.66812338
_cell_angle_gamma   60.06469223
_symmetry_Int_Tables_number   1
_chemical_formula_structural   Gd5Al31N36
_chemical_formula_sum   'Gd5 Al31 N36'
_cell_volume   837.85299189
_cell_formula_units_Z   1
loop_
 _symmetry_equiv_pos_site_id
 _symmetry_equiv_pos_as_xyz
  1  'x, y, z'
loop_
 _atom_site_type_symbol
 _atom_site_label
 _atom_site_symmetry_multiplicity
 _atom_site_fract_x
 _atom_site_fract_y
 _atom_site_fract_z
 _atom_site_occupancy
  Al  Al0  1  0.11196931  0.08503458  0.30687841  1
  Al  Al1  1  0.77883171  0.09059989  0.79126310  1
  Al  Al2  1  0.89803145  0.19663570  0.55515494  1
  Al  Al3  1  0.44282483  0.09525419  0.31840898  1
  Al  Al4  1  0.11176476  0.09067675  0.78915306  1
  Al  Al5  1  0.21694807  0.20819258  0.55065112  1
  Al  Al6  1  0.78801043  0.08469149  0.30763984  1
  Al  Al7  1  0.89509045  0.19262481  0.04197336  1
  Al  Al8  1  0.44414981  0.09459171  0.77439602  1
  Al  Al9  1  0.55513781  0.20419644  0.54711643  1
  Al  Al10  1  0.11196932  0.43632929  0.30687842  1
  Al  Al11  1  0.21369784  0.55068829  0.05245093  1
  Al  Al12  1  0.78747320  0.42293001  0.80987792  1
  Al  Al13  1  0.89803146  0.53866612  0.55515495  1
  Al  Al14  1  0.43483513  0.43649757  0.29888301  1
  Al  Al15  1  0.54286384  0.54523472  0.03782346  1
  Al  Al16  1  0.11176476  0.43089171  0.78915306  1
  Al  Al17  1  0.21695501  0.54025244  0.54809087  1
  Al  Al18  1  0.89509042  0.54561796  0.04197336  1
  Al  Al19  1  0.43434255  0.42525257  0.79464671  1
  Al  Al20  1  0.11106674  0.76113322  0.30048156  1
  Al  Al21  1  0.21369782  0.86894714  0.05245091  1
  Al  Al22  1  0.77883170  0.76390162  0.79126309  1
  Al  Al23  1  0.89137437  0.87097945  0.54978372  1
  Al  Al24  1  0.43483512  0.76200051  0.29888299  1
  Al  Al25  1  0.10969774  0.76181772  0.80073590  1
  Al  Al26  1  0.21695498  0.87612580  0.54809087  1
  Al  Al27  1  0.78801042  0.76063127  0.30763985  1
  Al  Al28  1  0.90056153  0.86638583  0.05421543  1
  Al  Al29  1  0.43434251  0.77373813  0.79464672  1
  Al  Al30  1  0.55513778  0.87399906  0.54711643  1
  Gd  Gd31  1  0.21286063  0.21023634  0.04728922  1
  Gd  Gd32  1  0.56294273  0.20729780  0.05211242  1
  Gd  Gd33  1  0.78639871  0.42346725  0.28989771  1
  Gd  Gd34  1  0.55769252  0.53782043  0.56522351  1
  Gd  Gd35  1  0.56294271  0.86309283  0.05211241  1
  N  N36  1  0.21405796  0.20963763  0.35995731  1
  N  N37  1  0.09752581  0.08036272  0.12069419  1
  N  N38  1  0.89302255  0.19604411  0.85519723  1
  N  N39  1  0.77827875  0.09259659  0.60604985  1
  N  N40  1  0.55924047  0.20969648  0.35649829  1
  N  N41  1  0.44139394  0.09596967  0.13874462  1
  N  N42  1  0.22323808  0.20504758  0.82542539  1
  N  N43  1  0.11266284  0.08998199  0.60552771  1
  N  N44  1  0.90206601  0.17957277  0.37285727  1
  N  N45  1  0.80860453  0.07685592  0.12173876  1
  N  N46  1  0.55469209  0.20147483  0.83263779  1
  N  N47  1  0.44411918  0.09460704  0.58799052  1
  N  N48  1  0.22148745  0.54274694  0.36173874  1
  N  N49  1  0.09752577  0.45544470  0.12069420  1
  N  N50  1  0.89302256  0.54426660  0.85519722  1
  N  N51  1  0.81510781  0.40911270  0.62041271  1
  N  N52  1  0.53533554  0.54899885  0.34999726  1
  N  N53  1  0.42517061  0.45656949  0.11241172  1
  N  N54  1  0.21817318  0.54000991  0.86153905  1
  N  N55  1  0.11266287  0.43068835  0.60552770  1
  N  N56  1  0.90206602  0.55169444  0.37285730  1
  N  N57  1  0.77592394  0.42870459  0.06790319  1
  N  N58  1  0.54882110  0.54225609  0.84342985  1
  N  N59  1  0.42454294  0.41440799  0.61257960  1
  N  N60  1  0.22148745  0.86909884  0.36173873  1
  N  N61  1  0.11047932  0.76142694  0.11148457  1
  N  N62  1  0.88713097  0.87310113  0.86050432  1
  N  N63  1  0.77827874  0.76245787  0.60604985  1
  N  N64  1  0.55924045  0.86439633  0.35649831  1
  N  N65  1  0.42517062  0.75159315  0.11241169  1
  N  N66  1  0.21817316  0.87515016  0.86153905  1
  N  N67  1  0.11108437  0.76112440  0.61152653  1
  N  N68  1  0.89336972  0.86998175  0.36459523  1
  N  N69  1  0.80860452  0.74787268  0.12173877  1
  N  N70  1  0.55469209  0.87716633  0.83263778  1
  N  N71  1  0.42454287  0.79438237  0.61257961  1
