# generated using pymatgen
data_Gd5Al31N36
_symmetry_space_group_name_H-M   'P 1'
_cell_length_a   9.71392035
_cell_length_b   9.67545580
_cell_length_c   10.44615727
_cell_angle_alpha   89.64679790
_cell_angle_beta   89.23939017
_cell_angle_gamma   60.03322599
_symmetry_Int_Tables_number   1
_chemical_formula_structural   Gd5Al31N36
_chemical_formula_sum   'Gd5 Al31 N36'
_cell_volume   850.47223207
_cell_formula_units_Z   1
loop_
 _symmetry_equiv_pos_site_id
 _symmetry_equiv_pos_as_xyz
  1  'x, y, z'
loop_
 _atom_site_type_symbol
 _atom_site_label
 _atom_site_symmetry_multiplicity
 _atom_site_fract_x
 _atom_site_fract_y
 _atom_site_fract_z
 _atom_site_occupancy
  Al  Al0  1  0.11925593  0.08340078  0.39093103  1
  Al  Al1  1  0.77329398  0.09096157  0.80030709  1
  Al  Al2  1  0.89303031  0.19996103  0.57083485  1
  Al  Al3  1  0.44554829  0.09626715  0.32833247  1
  Al  Al4  1  0.11082326  0.08245037  0.86148659  1
  Al  Al5  1  0.22251615  0.21201622  0.56632928  1
  Al  Al6  1  0.78919486  0.08679986  0.31894621  1
  Al  Al7  1  0.88834609  0.19811206  0.04411917  1
  Al  Al8  1  0.44181890  0.09340919  0.78568729  1
  Al  Al9  1  0.55449608  0.20449726  0.55747353  1
  Al  Al10  1  0.11198920  0.43798472  0.31892451  1
  Al  Al11  1  0.21240644  0.55249538  0.06374522  1
  Al  Al12  1  0.78389403  0.42421339  0.81666469  1
  Al  Al13  1  0.89754544  0.53930279  0.56542033  1
  Al  Al14  1  0.43503580  0.43743888  0.30780099  1
  Al  Al15  1  0.54276214  0.54522711  0.04699587  1
  Al  Al16  1  0.10894208  0.42898059  0.80023627  1
  Al  Al17  1  0.21622505  0.54049929  0.55877173  1
  Al  Al18  1  0.89362314  0.54685106  0.05192584  1
  Al  Al19  1  0.43264209  0.42462801  0.80539492  1
  Al  Al20  1  0.10659207  0.75984743  0.31305177  1
  Al  Al21  1  0.21181618  0.87656336  0.13026139  1
  Al  Al22  1  0.77743234  0.76340722  0.80044093  1
  Al  Al23  1  0.88958697  0.87090731  0.55892737  1
  Al  Al24  1  0.44223166  0.76207957  0.30757536  1
  Al  Al25  1  0.10309856  0.75577294  0.81068097  1
  Al  Al26  1  0.21452412  0.87868580  0.63030824  1
  Al  Al27  1  0.78721530  0.76150299  0.31696930  1
  Al  Al28  1  0.90167495  0.86785917  0.06589537  1
  Al  Al29  1  0.44367409  0.76479626  0.80136946  1
  Al  Al30  1  0.55721848  0.87341402  0.55655292  1
  Gd  Gd31  1  0.22070378  0.21592065  0.06035689  1
  Gd  Gd32  1  0.56861678  0.20630339  0.06320603  1
  Gd  Gd33  1  0.79038806  0.42225279  0.29672919  1
  Gd  Gd34  1  0.55893069  0.53392302  0.56824612  1
  Gd  Gd35  1  0.56395931  0.86468459  0.05755927  1
  N  N36  1  0.21978134  0.21426529  0.37411020  1
  N  N37  1  0.10686201  0.07196265  0.04977504  1
  N  N38  1  0.87874138  0.20093702  0.85943798  1
  N  N39  1  0.77636920  0.09212251  0.61760516  1
  N  N40  1  0.55977570  0.21109014  0.36877461  1
  N  N41  1  0.44868555  0.09352581  0.15143582  1
  N  N42  1  0.22031372  0.20340744  0.83678638  1
  N  N43  1  0.11771915  0.08875519  0.57769724  1
  N  N44  1  0.89594444  0.18513232  0.38711848  1
  N  N45  1  0.81446115  0.07904364  0.13590687  1
  N  N46  1  0.55009465  0.20059114  0.84611879  1
  N  N47  1  0.44637082  0.09355531  0.60203574  1
  N  N48  1  0.22242203  0.54341000  0.37428594  1
  N  N49  1  0.09279294  0.45943648  0.13493006  1
  N  N50  1  0.89049773  0.54436909  0.86635450  1
  N  N51  1  0.81339542  0.41144529  0.63211087  1
  N  N52  1  0.53718094  0.54896046  0.35651985  1
  N  N53  1  0.42424628  0.45573017  0.12291888  1
  N  N54  1  0.21586508  0.53703949  0.87444405  1
  N  N55  1  0.11133988  0.43204049  0.61867863  1
  N  N56  1  0.90167507  0.55238853  0.38501827  1
  N  N57  1  0.77599616  0.42807976  0.07772372  1
  N  N58  1  0.54822167  0.53984478  0.85532160  1
  N  N59  1  0.42313159  0.41475192  0.62501120  1
  N  N60  1  0.21638549  0.88054562  0.31999289  1
  N  N61  1  0.10820647  0.75935536  0.12500815  1
  N  N62  1  0.88311532  0.87374123  0.87324104  1
  N  N63  1  0.77819013  0.76250288  0.61727912  1
  N  N64  1  0.56019628  0.86634343  0.36902414  1
  N  N65  1  0.43447833  0.74815053  0.12119604  1
  N  N66  1  0.21742145  0.86773329  0.81657927  1
  N  N67  1  0.10460925  0.75767327  0.62091266  1
  N  N68  1  0.89102470  0.87162142  0.37598426  1
  N  N69  1  0.80651527  0.74980887  0.13270982  1
  N  N70  1  0.55370410  0.87516135  0.84112461  1
  N  N71  1  0.43520908  0.78604863  0.61898087  1
