# generated using pymatgen
data_Gd5Al31N36
_symmetry_space_group_name_H-M   'P 1'
_cell_length_a   9.62287729
_cell_length_b   9.65050286
_cell_length_c   10.69589547
_cell_angle_alpha   89.69233666
_cell_angle_beta   89.45151510
_cell_angle_gamma   60.00288944
_symmetry_Int_Tables_number   1
_chemical_formula_structural   Gd5Al31N36
_chemical_formula_sum   'Gd5 Al31 N36'
_cell_volume   860.19184096
_cell_formula_units_Z   1
loop_
 _symmetry_equiv_pos_site_id
 _symmetry_equiv_pos_as_xyz
  1  'x, y, z'
loop_
 _atom_site_type_symbol
 _atom_site_label
 _atom_site_symmetry_multiplicity
 _atom_site_fract_x
 _atom_site_fract_y
 _atom_site_fract_z
 _atom_site_occupancy
  Al  Al0  1  0.11915067  0.08612630  0.39661605  1
  Al  Al1  1  0.77676047  0.08856383  0.79979943  1
  Al  Al2  1  0.89169964  0.19934454  0.56691412  1
  Al  Al3  1  0.44797647  0.09689101  0.32980107  1
  Al  Al4  1  0.11677497  0.08524216  0.86649447  1
  Al  Al5  1  0.21355725  0.21001534  0.62051982  1
  Al  Al6  1  0.78867716  0.08789807  0.31385969  1
  Al  Al7  1  0.88881482  0.19394245  0.04017565  1
  Al  Al8  1  0.44691468  0.09144800  0.78672900  1
  Al  Al9  1  0.55373183  0.20336410  0.55541256  1
  Al  Al10  1  0.12094149  0.43160924  0.39739057  1
  Al  Al11  1  0.20935385  0.55253283  0.12709624  1
  Al  Al12  1  0.78970444  0.41913403  0.80899025  1
  Al  Al13  1  0.89213264  0.54250920  0.56737043  1
  Al  Al14  1  0.43855479  0.43558486  0.30480936  1
  Al  Al15  1  0.55063249  0.53793281  0.03639809  1
  Al  Al16  1  0.11766269  0.42772094  0.86664163  1
  Al  Al17  1  0.20974517  0.54638727  0.63175558  1
  Al  Al18  1  0.89009520  0.54666210  0.04033403  1
  Al  Al19  1  0.44360393  0.41795837  0.79754151  1
  Al  Al20  1  0.11777937  0.75897649  0.37797859  1
  Al  Al21  1  0.21795314  0.86678323  0.12004490  1
  Al  Al22  1  0.77865137  0.76341713  0.79882894  1
  Al  Al23  1  0.88531538  0.87530192  0.55469184  1
  Al  Al24  1  0.43322152  0.77625814  0.35292197  1
  Al  Al25  1  0.11397847  0.75791165  0.88058769  1
  Al  Al26  1  0.21206718  0.87633883  0.63104394  1
  Al  Al27  1  0.79105669  0.75926805  0.31505701  1
  Al  Al28  1  0.89539028  0.86773365  0.06525699  1
  Al  Al29  1  0.44066832  0.76195637  0.81750106  1
  Al  Al30  1  0.55792226  0.87777208  0.56208570  1
  Gd  Gd31  1  0.18144870  0.22359029  0.14574750  1
  Gd  Gd32  1  0.55606196  0.20780233  0.05810558  1
  Gd  Gd33  1  0.77851402  0.43139474  0.29543388  1
  Gd  Gd34  1  0.56094888  0.53235476  0.57083209  1
  Gd  Gd35  1  0.56134420  0.87063929  0.05334739  1
  N  N36  1  0.21736893  0.21010543  0.35947033  1
  N  N37  1  0.11278250  0.06956201  0.04396735  1
  N  N38  1  0.88081995  0.19985943  0.85985679  1
  N  N39  1  0.77812789  0.09100510  0.61841910  1
  N  N40  1  0.55835747  0.21323920  0.37021260  1
  N  N41  1  0.43887931  0.09677309  0.15438512  1
  N  N42  1  0.21401797  0.20829693  0.80724494  1
  N  N43  1  0.11714791  0.08648010  0.57448378  1
  N  N44  1  0.89275824  0.18992497  0.38477931  1
  N  N45  1  0.80961807  0.07827054  0.13358337  1
  N  N46  1  0.55144477  0.20023304  0.84553916  1
  N  N47  1  0.44682081  0.09436503  0.60662272  1
  N  N48  1  0.20869656  0.54475882  0.31269500  1
  N  N49  1  0.11632509  0.44738187  0.04461702  1
  N  N50  1  0.88092086  0.54808179  0.86047141  1
  N  N51  1  0.81925585  0.40691893  0.63132729  1
  N  N52  1  0.52476688  0.55900519  0.36236066  1
  N  N53  1  0.43902209  0.45227164  0.12505965  1
  N  N54  1  0.21241977  0.54877629  0.81149105  1
  N  N55  1  0.11764147  0.42982874  0.57533417  1
  N  N56  1  0.89323607  0.55411069  0.38716311  1
  N  N57  1  0.78583753  0.42177205  0.08026938  1
  N  N58  1  0.55541490  0.53030948  0.84791854  1
  N  N59  1  0.43233401  0.40856524  0.62173304  1
  N  N60  1  0.21477589  0.88232059  0.31084544  1
  N  N61  1  0.11803360  0.75689721  0.06140131  1
  N  N62  1  0.87624826  0.87641755  0.87516213  1
  N  N63  1  0.78167426  0.76333728  0.61908911  1
  N  N64  1  0.56209089  0.87183326  0.37536296  1
  N  N65  1  0.42966587  0.75050320  0.06933849  1
  N  N66  1  0.21179529  0.87002870  0.80924461  1
  N  N67  1  0.11979714  0.75739273  0.56124947  1
  N  N68  1  0.88579871  0.87623138  0.37432679  1
  N  N69  1  0.81375643  0.73830904  0.13558068  1
  N  N70  1  0.55273613  0.87475673  0.83847885  1
  N  N71  1  0.43242732  0.78788401  0.60718722  1
