# generated using pymatgen
data_Gd5Al31N36
_symmetry_space_group_name_H-M   'P 1'
_cell_length_a   9.60652880
_cell_length_b   9.63964698
_cell_length_c   10.76148962
_cell_angle_alpha   90.00069115
_cell_angle_beta   89.58198381
_cell_angle_gamma   59.88323237
_symmetry_Int_Tables_number   1
_chemical_formula_structural   Gd5Al31N36
_chemical_formula_sum   'Gd5 Al31 N36'
_cell_volume   861.99145691
_cell_formula_units_Z   1
loop_
 _symmetry_equiv_pos_site_id
 _symmetry_equiv_pos_as_xyz
  1  'x, y, z'
loop_
 _atom_site_type_symbol
 _atom_site_label
 _atom_site_symmetry_multiplicity
 _atom_site_fract_x
 _atom_site_fract_y
 _atom_site_fract_z
 _atom_site_occupancy
  Al  Al0  1  0.12198012  0.08131945  0.39976661  1
  Al  Al1  1  0.77836390  0.09046542  0.79663207  1
  Al  Al2  1  0.88966163  0.20013852  0.56688026  1
  Al  Al3  1  0.44771943  0.09280713  0.33000003  1
  Al  Al4  1  0.11849629  0.08818428  0.86694484  1
  Al  Al5  1  0.21415482  0.20958791  0.62063717  1
  Al  Al6  1  0.78659402  0.08844532  0.31347232  1
  Al  Al7  1  0.88798198  0.19648928  0.03838922  1
  Al  Al8  1  0.44922595  0.09205460  0.78442436  1
  Al  Al9  1  0.55499467  0.20275280  0.55603639  1
  Al  Al10  1  0.12198094  0.43003498  0.39976662  1
  Al  Al11  1  0.21245107  0.54564739  0.12455484  1
  Al  Al12  1  0.78561542  0.42385961  0.80804465  1
  Al  Al13  1  0.88966146  0.54353085  0.56687975  1
  Al  Al14  1  0.44157739  0.42837534  0.30126421  1
  Al  Al15  1  0.55002489  0.54165297  0.04416220  1
  Al  Al16  1  0.11849672  0.42665400  0.86694460  1
  Al  Al17  1  0.21069772  0.54484395  0.63391778  1
  Al  Al18  1  0.88798297  0.54886007  0.03838917  1
  Al  Al19  1  0.44772331  0.42182385  0.79850720  1
  Al  Al20  1  0.10803101  0.76265206  0.33227819  1
  Al  Al21  1  0.21244945  0.87523217  0.12455552  1
  Al  Al22  1  0.77836398  0.76450489  0.79663248  1
  Al  Al23  1  0.89153949  0.87089599  0.55276789  1
  Al  Al24  1  0.44157629  0.76338132  0.30126398  1
  Al  Al25  1  0.10883107  0.76225262  0.85507364  1
  Al  Al26  1  0.21069826  0.87778905  0.63391725  1
  Al  Al27  1  0.78659542  0.75829480  0.31347171  1
  Al  Al28  1  0.89590556  0.86871276  0.06518179  1
  Al  Al29  1  0.44772416  0.76378739  0.79850706  1
  Al  Al30  1  0.55499541  0.87558267  0.55603618  1
  Gd  Gd31  1  0.17881781  0.22725734  0.14950857  1
  Gd  Gd32  1  0.55641597  0.20481405  0.05320446  1
  Gd  Gd33  1  0.78590710  0.42371423  0.29482782  1
  Gd  Gd34  1  0.55426126  0.53953237  0.55750353  1
  Gd  Gd35  1  0.55641515  0.87209686  0.05320507  1
  N  N36  1  0.21734207  0.20799332  0.36151069  1
  N  N37  1  0.11447909  0.07188880  0.04316476  1
  N  N38  1  0.88119367  0.20265855  0.85900091  1
  N  N39  1  0.77881800  0.08958433  0.61693557  1
  N  N40  1  0.55838571  0.20952000  0.37076891  1
  N  N41  1  0.43776554  0.09778522  0.15442251  1
  N  N42  1  0.21619757  0.20856599  0.80630665  1
  N  N43  1  0.11673602  0.08704165  0.57654145  1
  N  N44  1  0.89376978  0.18615556  0.38681190  1
  N  N45  1  0.80777351  0.08272071  0.13253906  1
  N  N46  1  0.55408544  0.20185731  0.84216872  1
  N  N47  1  0.44749055  0.09292288  0.60495361  1
  N  N48  1  0.21193964  0.53568113  0.31005861  1
  N  N49  1  0.11448008  0.44696555  0.04316445  1
  N  N50  1  0.88119362  0.54947861  0.85900201  1
  N  N51  1  0.81044576  0.41144593  0.63009413  1
  N  N52  1  0.52915499  0.55208746  0.35288787  1
  N  N53  1  0.44006065  0.44789794  0.12088765  1
  N  N54  1  0.21679906  0.54431243  0.81479595  1
  N  N55  1  0.11673587  0.42955764  0.57654231  1
  N  N56  1  0.89377215  0.55340467  0.38681065  1
  N  N57  1  0.78716314  0.42308726  0.08082235  1
  N  N58  1  0.55226101  0.54053544  0.85794489  1
  N  N59  1  0.43585255  0.41047905  0.62301590  1
  N  N60  1  0.21193810  0.88570953  0.31005881  1
  N  N61  1  0.11248458  0.76042523  0.09295944  1
  N  N62  1  0.87952551  0.87690339  0.87487701  1
  N  N63  1  0.77881855  0.76493440  0.61693586  1
  N  N64  1  0.55838672  0.86542360  0.37076825  1
  N  N65  1  0.44005924  0.74537752  0.12088834  1
  N  N66  1  0.21680012  0.87221748  0.81479468  1
  N  N67  1  0.11286572  0.76023492  0.58643562  1
  N  N68  1  0.88559092  0.87387006  0.37075459  1
  N  N69  1  0.80777397  0.74284378  0.13253880  1
  N  N70  1  0.55408532  0.87738905  0.84216928  1
  N  N71  1  0.43585374  0.78700405  0.62301561  1
