# generated using pymatgen
data_Gd5Al31N36
_symmetry_space_group_name_H-M   'P 1'
_cell_length_a   9.70490573
_cell_length_b   9.68538879
_cell_length_c   10.28542172
_cell_angle_alpha   89.99997763
_cell_angle_beta   90.13288118
_cell_angle_gamma   60.06649598
_symmetry_Int_Tables_number   1
_chemical_formula_structural   Gd5Al31N36
_chemical_formula_sum   'Gd5 Al31 N36'
_cell_volume   837.81893638
_cell_formula_units_Z   1
loop_
 _symmetry_equiv_pos_site_id
 _symmetry_equiv_pos_as_xyz
  1  'x, y, z'
loop_
 _atom_site_type_symbol
 _atom_site_label
 _atom_site_symmetry_multiplicity
 _atom_site_fract_x
 _atom_site_fract_y
 _atom_site_fract_z
 _atom_site_occupancy
  Al  Al0  1  0.11263927  0.08561816  0.41161418  1
  Al  Al1  1  0.78439017  0.08970791  0.89353270  1
  Al  Al2  1  0.89447084  0.20239280  0.65697586  1
  Al  Al3  1  0.44417096  0.09458135  0.42696372  1
  Al  Al4  1  0.11019150  0.09040031  0.89445144  1
  Al  Al5  1  0.21643833  0.20844767  0.64949294  1
  Al  Al6  1  0.78292846  0.08562465  0.40968400  1
  Al  Al7  1  0.89953201  0.18551995  0.14440409  1
  Al  Al8  1  0.44274385  0.09529485  0.88348882  1
  Al  Al9  1  0.55447913  0.20477563  0.65202222  1
  Al  Al10  1  0.11263929  0.43507622  0.41161416  1
  Al  Al11  1  0.21399740  0.55024158  0.14954262  1
  Al  Al12  1  0.78168009  0.42582682  0.91077010  1
  Al  Al13  1  0.89447082  0.53647013  0.65697587  1
  Al  Al14  1  0.43100336  0.42994743  0.40558459  1
  Al  Al15  1  0.53653926  0.54839716  0.14606228  1
  Al  Al16  1  0.11019155  0.43274183  0.89445146  1
  Al  Al17  1  0.21571861  0.54144867  0.65218032  1
  Al  Al18  1  0.89953209  0.54828173  0.14440408  1
  Al  Al19  1  0.43813581  0.43262640  0.90327331  1
  Al  Al20  1  0.11017534  0.76157917  0.39895943  1
  Al  Al21  1  0.21399737  0.86909465  0.14954258  1
  Al  Al22  1  0.78439019  0.75923564  0.89353269  1
  Al  Al23  1  0.89219870  0.87056754  0.65129186  1
  Al  Al24  1  0.43100335  0.77238288  0.40558461  1
  Al  Al25  1  0.11066705  0.76133330  0.90175137  1
  Al  Al26  1  0.21571864  0.87616634  0.65218034  1
  Al  Al27  1  0.78292846  0.76478063  0.40968400  1
  Al  Al28  1  0.90024243  0.86654564  0.14760053  1
  Al  Al29  1  0.43813582  0.76257140  0.90327328  1
  Al  Al30  1  0.55447916  0.87407888  0.65202224  1
  Gd  Gd31  1  0.21169459  0.21081945  0.15539739  1
  Gd  Gd32  1  0.56367977  0.20729875  0.15147879  1
  Gd  Gd33  1  0.78273108  0.42530133  0.37897102  1
  Gd  Gd34  1  0.55554406  0.53889474  0.65339840  1
  Gd  Gd35  1  0.56367985  0.86235485  0.15147878  1
  N  N36  1  0.22110006  0.20611682  0.37879210  1
  N  N37  1  0.10417212  0.07602732  0.07733511  1
  N  N38  1  0.88809375  0.20765998  0.84362484  1
  N  N39  1  0.78044230  0.09407843  0.59789191  1
  N  N40  1  0.55628999  0.20215842  0.37172647  1
  N  N41  1  0.44204802  0.09564271  0.06451950  1
  N  N42  1  0.21594062  0.20869652  0.83980850  1
  N  N43  1  0.10778114  0.09215726  0.59818119  1
  N  N44  1  0.90730506  0.16731383  0.33105679  1
  N  N45  1  0.80658025  0.07364711  0.07631463  1
  N  N46  1  0.55806693  0.20963833  0.84259435  1
  N  N47  1  0.44358955  0.09487206  0.61220481  1
  N  N48  1  0.21894941  0.53938935  0.34011555  1
  N  N49  1  0.10417222  0.45313416  0.07733515  1
  N  N50  1  0.88809379  0.53757999  0.84362486  1
  N  N51  1  0.80873517  0.41229932  0.59665388  1
  N  N52  1  0.51958327  0.55687522  0.33965699  1
  N  N53  1  0.42251918  0.45373554  0.08554298  1
  N  N54  1  0.22134614  0.54291216  0.83824223  1
  N  N55  1  0.10778112  0.43339530  0.59818118  1
  N  N56  1  0.90730505  0.55871487  0.33105678  1
  N  N57  1  0.78120074  0.42606650  0.10730759  1
  N  N58  1  0.55929353  0.53702005  0.86944833  1
  N  N59  1  0.42518183  0.41719328  0.58895560  1
  N  N60  1  0.21894942  0.87499495  0.34011553  1
  N  N61  1  0.11085903  0.76123731  0.09121392  1
  N  N62  1  0.89323693  0.87004841  0.83590386  1
  N  N63  1  0.78044232  0.75881306  0.59789192  1
  N  N64  1  0.55628999  0.87488529  0.37172645  1
  N  N65  1  0.42251914  0.75707889  0.08554292  1
  N  N66  1  0.22134614  0.86907538  0.83824223  1
  N  N67  1  0.11067511  0.76132930  0.58836198  1
  N  N68  1  0.88715586  0.87308895  0.34171669  1
  N  N69  1  0.80658031  0.75310637  0.07631460  1
  N  N70  1  0.55806697  0.86562835  0.84259435  1
  N  N71  1  0.42518188  0.79095853  0.58895563  1
