# generated using pymatgen
data_Gd5Al31N36
_symmetry_space_group_name_H-M   'P 1'
_cell_length_a   9.70163161
_cell_length_b   9.70518634
_cell_length_c   10.46161503
_cell_angle_alpha   90.29005086
_cell_angle_beta   89.90209546
_cell_angle_gamma   59.95339300
_symmetry_Int_Tables_number   1
_chemical_formula_structural   Gd5Al31N36
_chemical_formula_sum   'Gd5 Al31 N36'
_cell_volume   852.63486120
_cell_formula_units_Z   1
loop_
 _symmetry_equiv_pos_site_id
 _symmetry_equiv_pos_as_xyz
  1  'x, y, z'
loop_
 _atom_site_type_symbol
 _atom_site_label
 _atom_site_symmetry_multiplicity
 _atom_site_fract_x
 _atom_site_fract_y
 _atom_site_fract_z
 _atom_site_occupancy
  Al  Al0  1  0.12306486  0.08253145  0.41680965  1
  Al  Al1  1  0.77999706  0.08557064  0.88841024  1
  Al  Al2  1  0.89349628  0.19901592  0.59215042  1
  Al  Al3  1  0.44547384  0.09355174  0.42639715  1
  Al  Al4  1  0.11900651  0.08728976  0.88859366  1
  Al  Al5  1  0.21949529  0.20793724  0.65102994  1
  Al  Al6  1  0.77786844  0.08075877  0.41587140  1
  Al  Al7  1  0.89138083  0.20303798  0.05977084  1
  Al  Al8  1  0.44292704  0.09559904  0.89036121  1
  Al  Al9  1  0.55208526  0.20062885  0.65480796  1
  Al  Al10  1  0.11059212  0.43321680  0.41105613  1
  Al  Al11  1  0.21841787  0.55008218  0.14568535  1
  Al  Al12  1  0.79144079  0.41757419  0.82994389  1
  Al  Al13  1  0.89657951  0.54167256  0.65438082  1
  Al  Al14  1  0.42905256  0.42592606  0.41479235  1
  Al  Al15  1  0.55686492  0.53979522  0.05601952  1
  Al  Al16  1  0.11306852  0.43271344  0.89131124  1
  Al  Al17  1  0.21163549  0.54182539  0.65101661  1
  Al  Al18  1  0.89595691  0.54703107  0.11757682  1
  Al  Al19  1  0.43416313  0.42735223  0.88962215  1
  Al  Al20  1  0.11283468  0.76055536  0.39593229  1
  Al  Al21  1  0.21788699  0.86795282  0.14560539  1
  Al  Al22  1  0.78260769  0.76324929  0.89134393  1
  Al  Al23  1  0.89268014  0.86921864  0.65192501  1
  Al  Al24  1  0.43123168  0.77524190  0.41481488  1
  Al  Al25  1  0.11074045  0.76172340  0.90181700  1
  Al  Al26  1  0.21303330  0.87939621  0.65329573  1
  Al  Al27  1  0.78394990  0.76028386  0.41035231  1
  Al  Al28  1  0.89905155  0.86892058  0.14758805  1
  Al  Al29  1  0.43603276  0.77234455  0.88973639  1
  Al  Al30  1  0.55387844  0.87867752  0.65201158  1
  Gd  Gd31  1  0.20727703  0.21460289  0.15770638  1
  Gd  Gd32  1  0.56122984  0.21425094  0.15357672  1
  Gd  Gd33  1  0.76977186  0.42421319  0.33385793  1
  Gd  Gd34  1  0.54432684  0.54378396  0.62892194  1
  Gd  Gd35  1  0.56114764  0.86073180  0.15522169  1
  N  N36  1  0.22449209  0.20421058  0.37687223  1
  N  N37  1  0.11021741  0.07434506  0.07347997  1
  N  N38  1  0.89074467  0.20362946  0.87493635  1
  N  N39  1  0.77398845  0.08789102  0.60313110  1
  N  N40  1  0.55666284  0.20167277  0.37102829  1
  N  N41  1  0.44199233  0.09611410  0.06945373  1
  N  N42  1  0.21982114  0.20888828  0.83838160  1
  N  N43  1  0.11574782  0.09147631  0.60278590  1
  N  N44  1  0.90208427  0.17746699  0.40413723  1
  N  N45  1  0.80152080  0.07395846  0.07372178  1
  N  N46  1  0.55645368  0.20564629  0.84066582  1
  N  N47  1  0.44313512  0.09482346  0.60797946  1
  N  N48  1  0.22241237  0.53507804  0.33581917  1
  N  N49  1  0.10748328  0.45306780  0.07146662  1
  N  N50  1  0.89321108  0.54323523  0.84148590  1
  N  N51  1  0.80743405  0.40944733  0.64387222  1
  N  N52  1  0.52148305  0.55470448  0.40003121  1
  N  N53  1  0.42483821  0.45356606  0.07040926  1
  N  N54  1  0.21833774  0.54553303  0.83369317  1
  N  N55  1  0.10707847  0.43197312  0.59555885  1
  N  N56  1  0.90414088  0.55280198  0.33846562  1
  N  N57  1  0.77878069  0.42906963  0.10719927  1
  N  N58  1  0.56113557  0.53639375  0.86542003  1
  N  N59  1  0.41945762  0.40860254  0.59556853  1
  N  N60  1  0.22301379  0.87496953  0.33573610  1
  N  N61  1  0.11128877  0.76201025  0.08966763  1
  N  N62  1  0.89518973  0.86827927  0.83414451  1
  N  N63  1  0.78047050  0.75971633  0.59736347  1
  N  N64  1  0.55763706  0.87278837  0.37304507  1
  N  N65  1  0.42536542  0.75784050  0.07080061  1
  N  N66  1  0.21966438  0.86892734  0.83509819  1
  N  N67  1  0.11191639  0.76129622  0.58517164  1
  N  N68  1  0.88771812  0.87206510  0.33924473  1
  N  N69  1  0.80198861  0.75821383  0.07233287  1
  N  N70  1  0.55832164  0.87110311  0.83911774  1
  N  N71  1  0.42074645  0.80280994  0.59574123  1
