# generated using pymatgen
data_Gd5Al31N36
_symmetry_space_group_name_H-M   'P 1'
_cell_length_a   9.68651212
_cell_length_b   9.68399054
_cell_length_c   10.59884047
_cell_angle_alpha   90.00167594
_cell_angle_beta   88.69249284
_cell_angle_gamma   59.99656533
_symmetry_Int_Tables_number   1
_chemical_formula_structural   Gd5Al31N36
_chemical_formula_sum   'Gd5 Al31 N36'
_cell_volume   860.68598272
_cell_formula_units_Z   1
loop_
 _symmetry_equiv_pos_site_id
 _symmetry_equiv_pos_as_xyz
  1  'x, y, z'
loop_
 _atom_site_type_symbol
 _atom_site_label
 _atom_site_symmetry_multiplicity
 _atom_site_fract_x
 _atom_site_fract_y
 _atom_site_fract_z
 _atom_site_occupancy
  Al  Al0  1  0.12707199  0.08264456  0.41848614  1
  Al  Al1  1  0.78116924  0.08874241  0.82533418  1
  Al  Al2  1  0.89184810  0.20089033  0.59008046  1
  Al  Al3  1  0.45357118  0.08987711  0.42274156  1
  Al  Al4  1  0.11288996  0.08782202  0.89108350  1
  Al  Al5  1  0.21815216  0.20758684  0.65376024  1
  Al  Al6  1  0.79488395  0.08491325  0.34844862  1
  Al  Al7  1  0.88511084  0.19811695  0.06687598  1
  Al  Al8  1  0.43736231  0.09798387  0.88921886  1
  Al  Al9  1  0.54656273  0.20452945  0.65239116  1
  Al  Al10  1  0.12707843  0.42362419  0.41848721  1
  Al  Al11  1  0.21586573  0.54893807  0.14518599  1
  Al  Al12  1  0.79178815  0.42078001  0.83201094  1
  Al  Al13  1  0.89184851  0.54059421  0.59007747  1
  Al  Al14  1  0.43657028  0.42295631  0.41382804  1
  Al  Al15  1  0.55568061  0.53881904  0.05326805  1
  Al  Al16  1  0.11289402  0.43262929  0.89108016  1
  Al  Al17  1  0.21203776  0.54185910  0.65407170  1
  Al  Al18  1  0.88511806  0.55010887  0.06687346  1
  Al  Al19  1  0.43027617  0.43002749  0.88944214  1
  Al  Al20  1  0.12781426  0.75276496  0.40092431  1
  Al  Al21  1  0.21586000  0.86852677  0.14518870  1
  Al  Al22  1  0.78117193  0.76343198  0.82533457  1
  Al  Al23  1  0.88773600  0.87279930  0.58556580  1
  Al  Al24  1  0.43656964  0.77380123  0.41382634  1
  Al  Al25  1  0.10482660  0.76425841  0.90283099  1
  Al  Al26  1  0.21204100  0.87943210  0.65406952  1
  Al  Al27  1  0.79489134  0.75354404  0.34844276  1
  Al  Al28  1  0.90234200  0.86549667  0.12556020  1
  Al  Al29  1  0.43027475  0.77303326  0.88944135  1
  Al  Al30  1  0.54656888  0.88222111  0.65239059  1
  Gd  Gd31  1  0.19904485  0.21714169  0.15565154  1
  Gd  Gd32  1  0.55110534  0.21783401  0.14909303  1
  Gd  Gd33  1  0.77568750  0.42883323  0.32893187  1
  Gd  Gd34  1  0.54745613  0.54292204  0.63023122  1
  Gd  Gd35  1  0.55110815  0.86435849  0.14909204  1
  N  N36  1  0.23180680  0.20075401  0.37243428  1
  N  N37  1  0.10674386  0.07347746  0.07143998  1
  N  N38  1  0.87998784  0.20411732  0.88546829  1
  N  N39  1  0.78030597  0.09215455  0.64200780  1
  N  N40  1  0.56230674  0.20082425  0.36601096  1
  N  N41  1  0.43561855  0.09885369  0.06524891  1
  N  N42  1  0.21361362  0.20985170  0.83791442  1
  N  N43  1  0.11603995  0.09129680  0.60138159  1
  N  N44  1  0.90222099  0.18436381  0.40938428  1
  N  N45  1  0.81511103  0.08019949  0.16324453  1
  N  N46  1  0.54640381  0.21073035  0.83764723  1
  N  N47  1  0.44343107  0.09495366  0.60288386  1
  N  N48  1  0.22736327  0.53154371  0.33466581  1
  N  N49  1  0.10675287  0.45312675  0.07143596  1
  N  N50  1  0.87999111  0.54921850  0.88547193  1
  N  N51  1  0.81316375  0.41010069  0.65188774  1
  N  N52  1  0.52851745  0.55238994  0.39986966  1
  N  N53  1  0.42207661  0.45482992  0.06752162  1
  N  N54  1  0.21491421  0.54793243  0.83389082  1
  N  N55  1  0.11604185  0.42601379  0.60138597  1
  N  N56  1  0.90223151  0.54673138  0.40937851  1
  N  N57  1  0.77421269  0.42957972  0.10823268  1
  N  N58  1  0.55811738  0.53759732  0.86343450  1
  N  N59  1  0.42116664  0.41026404  0.59237410  1
  N  N60  1  0.22736030  0.87441548  0.33466820  1
  N  N61  1  0.11576684  0.75879165  0.08975491  1
  N  N62  1  0.88251545  0.87540431  0.87850362  1
  N  N63  1  0.78031174  0.76090047  0.64200841  1
  N  N64  1  0.56230957  0.87016375  0.36600988  1
  N  N65  1  0.42205924  0.75644646  0.06752032  1
  N  N66  1  0.21491576  0.87047141  0.83388667  1
  N  N67  1  0.12099402  0.75617895  0.58635712  1
  N  N68  1  0.89690426  0.86820882  0.39286768  1
  N  N69  1  0.81511241  0.73805756  0.16324202  1
  N  N70  1  0.54640655  0.87617036  0.83764551  1
  N  N71  1  0.42117523  0.80190355  0.59237717  1
