# generated using pymatgen
data_Gd5Al31N36
_symmetry_space_group_name_H-M   'P 1'
_cell_length_a   9.68865773
_cell_length_b   9.68726171
_cell_length_c   10.59758299
_cell_angle_alpha   90.00106585
_cell_angle_beta   88.68440312
_cell_angle_gamma   59.99594202
_symmetry_Int_Tables_number   1
_chemical_formula_structural   Gd5Al31N36
_chemical_formula_sum   'Gd5 Al31 N36'
_cell_volume   861.05626786
_cell_formula_units_Z   1
loop_
 _symmetry_equiv_pos_site_id
 _symmetry_equiv_pos_as_xyz
  1  'x, y, z'
loop_
 _atom_site_type_symbol
 _atom_site_label
 _atom_site_symmetry_multiplicity
 _atom_site_fract_x
 _atom_site_fract_y
 _atom_site_fract_z
 _atom_site_occupancy
  Al  Al0  1  0.12721282  0.08257131  0.41842216  1
  Al  Al1  1  0.78106510  0.08914096  0.82475454  1
  Al  Al2  1  0.89188700  0.20120004  0.58990223  1
  Al  Al3  1  0.45345777  0.08993578  0.42275678  1
  Al  Al4  1  0.11295310  0.08772227  0.89103036  1
  Al  Al5  1  0.21806151  0.20763320  0.65379645  1
  Al  Al6  1  0.79411176  0.08631621  0.34911623  1
  Al  Al7  1  0.88513008  0.19799111  0.06667791  1
  Al  Al8  1  0.43740597  0.09796295  0.88914116  1
  Al  Al9  1  0.54618544  0.20483829  0.65220903  1
  Al  Al10  1  0.12721686  0.42355461  0.41842282  1
  Al  Al11  1  0.21605852  0.54874252  0.14495107  1
  Al  Al12  1  0.79183217  0.42075555  0.83206812  1
  Al  Al13  1  0.89188735  0.54024470  0.58990034  1
  Al  Al14  1  0.43652402  0.42306476  0.41377585  1
  Al  Al15  1  0.55576431  0.53877928  0.05320787  1
  Al  Al16  1  0.11295568  0.43266339  0.89102818  1
  Al  Al17  1  0.21201286  0.54176833  0.65424365  1
  Al  Al18  1  0.88513448  0.55021338  0.06667611  1
  Al  Al19  1  0.43017834  0.43015750  0.88938173  1
  Al  Al20  1  0.12787335  0.75273363  0.40078995  1
  Al  Al21  1  0.21605470  0.86852931  0.14495303  1
  Al  Al22  1  0.78106695  0.76313461  0.82475473  1
  Al  Al23  1  0.88860377  0.87236448  0.59111283  1
  Al  Al24  1  0.43652362  0.77374191  0.41377459  1
  Al  Al25  1  0.10312724  0.76510624  0.90287612  1
  Al  Al26  1  0.21201488  0.87954855  0.65424215  1
  Al  Al27  1  0.79411691  0.75291138  0.34911203  1
  Al  Al28  1  0.90525300  0.86404004  0.13931906  1
  Al  Al29  1  0.43017754  0.77300044  0.88938132  1
  Al  Al30  1  0.54618936  0.88229601  0.65220870  1
  Gd  Gd31  1  0.19899680  0.21716586  0.15556114  1
  Gd  Gd32  1  0.55116557  0.21775442  0.14890320  1
  Gd  Gd33  1  0.77576110  0.42879330  0.32859690  1
  Gd  Gd34  1  0.54759502  0.54285778  0.63020816  1
  Gd  Gd35  1  0.55116721  0.86438938  0.14890271  1
  N  N36  1  0.23185914  0.20073085  0.37242048  1
  N  N37  1  0.10676934  0.07346595  0.07140145  1
  N  N38  1  0.88005390  0.20410867  0.88529793  1
  N  N39  1  0.77948844  0.09337551  0.64094496  1
  N  N40  1  0.56214518  0.20090284  0.36615411  1
  N  N41  1  0.43551703  0.09890634  0.06518767  1
  N  N42  1  0.21361966  0.20985121  0.83789472  1
  N  N43  1  0.11602493  0.09127205  0.60137715  1
  N  N44  1  0.90242454  0.18461446  0.40938484  1
  N  N45  1  0.81468509  0.08130704  0.16348195  1
  N  N46  1  0.54635612  0.21084584  0.83751723  1
  N  N47  1  0.44327037  0.09503367  0.60288606  1
  N  N48  1  0.22753428  0.53142114  0.33463889  1
  N  N49  1  0.10677516  0.45310772  0.07139897  1
  N  N50  1  0.88005593  0.54916350  0.88530049  1
  N  N51  1  0.81319396  0.41008021  0.65192248  1
  N  N52  1  0.52866220  0.55232347  0.39981308  1
  N  N53  1  0.42209024  0.45488677  0.06751060  1
  N  N54  1  0.21495331  0.54799504  0.83403016  1
  N  N55  1  0.11602628  0.42604813  0.60138018  1
  N  N56  1  0.90243142  0.54628211  0.40938112  1
  N  N57  1  0.77425805  0.42955008  0.10797377  1
  N  N58  1  0.55814608  0.53758654  0.86338721  1
  N  N59  1  0.42094827  0.41057492  0.59233635  1
  N  N60  1  0.22753223  0.87437050  0.33464045  1
  N  N61  1  0.11473671  0.75930390  0.09019028  1
  N  N62  1  0.88427530  0.87452503  0.87008116  1
  N  N63  1  0.77949222  0.76048784  0.64094550  1
  N  N64  1  0.56214679  0.87026021  0.36615335  1
  N  N65  1  0.42207890  0.75637012  0.06751016  1
  N  N66  1  0.21495440  0.87037406  0.83402722  1
  N  N67  1  0.12050278  0.75642136  0.58596460  1
  N  N68  1  0.89852129  0.86740184  0.38674906  1
  N  N69  1  0.81468609  0.73736422  0.16348028  1
  N  N70  1  0.54635772  0.87611240  0.83751615  1
  N  N71  1  0.42095398  0.80181174  0.59233844  1
