# generated using pymatgen
data_Gd5Al31N36
_symmetry_space_group_name_H-M   'P 1'
_cell_length_a   9.67999883
_cell_length_b   9.69222553
_cell_length_c   10.62452925
_cell_angle_alpha   89.74903810
_cell_angle_beta   88.69839791
_cell_angle_gamma   60.04964535
_symmetry_Int_Tables_number   1
_chemical_formula_structural   Gd5Al31N36
_chemical_formula_sum   'Gd5 Al31 N36'
_cell_volume   863.43588084
_cell_formula_units_Z   1
loop_
 _symmetry_equiv_pos_site_id
 _symmetry_equiv_pos_as_xyz
  1  'x, y, z'
loop_
 _atom_site_type_symbol
 _atom_site_label
 _atom_site_symmetry_multiplicity
 _atom_site_fract_x
 _atom_site_fract_y
 _atom_site_fract_z
 _atom_site_occupancy
  Al  Al0  1  0.12737665  0.08305845  0.41732317  1
  Al  Al1  1  0.77734157  0.09685916  0.82539572  1
  Al  Al2  1  0.89178128  0.20055813  0.58721458  1
  Al  Al3  1  0.45123984  0.09497657  0.42482624  1
  Al  Al4  1  0.11383559  0.08639173  0.89240905  1
  Al  Al5  1  0.21799924  0.20681245  0.65465683  1
  Al  Al6  1  0.79453912  0.08833244  0.34491775  1
  Al  Al7  1  0.88444729  0.19796952  0.06702155  1
  Al  Al8  1  0.43829272  0.09517271  0.89047714  1
  Al  Al9  1  0.54617977  0.20533596  0.65224882  1
  Al  Al10  1  0.12822847  0.42477651  0.41835960  1
  Al  Al11  1  0.21413549  0.54997557  0.14324051  1
  Al  Al12  1  0.79304074  0.41789994  0.83102973  1
  Al  Al13  1  0.89529389  0.53594002  0.59245468  1
  Al  Al14  1  0.43793678  0.42426487  0.41205316  1
  Al  Al15  1  0.55626110  0.53851837  0.05301766  1
  Al  Al16  1  0.11528860  0.43009529  0.88998910  1
  Al  Al17  1  0.21455192  0.54000986  0.65350313  1
  Al  Al18  1  0.88247473  0.55195229  0.06079052  1
  Al  Al19  1  0.43056997  0.43015464  0.89007633  1
  Al  Al20  1  0.12286608  0.75569637  0.40108029  1
  Al  Al21  1  0.21531363  0.86739866  0.14285496  1
  Al  Al22  1  0.77670163  0.75869426  0.82560701  1
  Al  Al23  1  0.89872512  0.86909446  0.64716296  1
  Al  Al24  1  0.43480067  0.77412786  0.41689041  1
  Al  Al25  1  0.10422257  0.76341416  0.90279438  1
  Al  Al26  1  0.21252560  0.87990389  0.65472981  1
  Al  Al27  1  0.78708943  0.76313463  0.38508020  1
  Al  Al28  1  0.90530482  0.85909617  0.16369144  1
  Al  Al29  1  0.43124808  0.77234413  0.88955647  1
  Al  Al30  1  0.54493450  0.88340308  0.64952243  1
  Gd  Gd31  1  0.19869752  0.21676886  0.15464253  1
  Gd  Gd32  1  0.54960853  0.21632875  0.14770777  1
  Gd  Gd33  1  0.77763252  0.43247563  0.32588958  1
  Gd  Gd34  1  0.54963080  0.54126736  0.63006518  1
  Gd  Gd35  1  0.54811474  0.86347374  0.15943932  1
  N  N36  1  0.23129910  0.20253011  0.37187854  1
  N  N37  1  0.10657622  0.07317235  0.07148940  1
  N  N38  1  0.88132505  0.20279300  0.88596955  1
  N  N39  1  0.77773024  0.09759823  0.64199569  1
  N  N40  1  0.56271089  0.20157591  0.36552079  1
  N  N41  1  0.43547816  0.09450316  0.06542221  1
  N  N42  1  0.21480673  0.20767414  0.83793654  1
  N  N43  1  0.11625057  0.09086246  0.59996578  1
  N  N44  1  0.90220742  0.18608774  0.40714897  1
  N  N45  1  0.81124800  0.08329756  0.15874834  1
  N  N46  1  0.54608613  0.21040765  0.83891143  1
  N  N47  1  0.44182336  0.09716331  0.60395136  1
  N  N48  1  0.22791352  0.53302751  0.33487646  1
  N  N49  1  0.10584833  0.45282151  0.06968031  1
  N  N50  1  0.88384718  0.54445320  0.87893858  1
  N  N51  1  0.81476178  0.40723034  0.65165385  1
  N  N52  1  0.53148272  0.55308648  0.39954931  1
  N  N53  1  0.42120511  0.45536335  0.06723971  1
  N  N54  1  0.21648037  0.54682954  0.83299900  1
  N  N55  1  0.11851608  0.42446885  0.60175673  1
  N  N56  1  0.90341135  0.54756795  0.41223145  1
  N  N57  1  0.77503629  0.42882771  0.10562122  1
  N  N58  1  0.55930312  0.53652346  0.86278992  1
  N  N59  1  0.42223932  0.41063184  0.59080023  1
  N  N60  1  0.22836779  0.87460544  0.33482770  1
  N  N61  1  0.10827954  0.76206797  0.08801306  1
  N  N62  1  0.89338010  0.86890349  0.83594744  1
  N  N63  1  0.77816842  0.76022473  0.63376975  1
  N  N64  1  0.56224474  0.87280710  0.37762115  1
  N  N65  1  0.42248757  0.75578694  0.06669899  1
  N  N66  1  0.21518087  0.87012681  0.83425796  1
  N  N67  1  0.11734368  0.75819292  0.58649912  1
  N  N68  1  0.90525012  0.86343422  0.35327369  1
  N  N69  1  0.80237306  0.74590431  0.13749528  1
  N  N70  1  0.54696237  0.87525184  0.83415427  1
  N  N71  1  0.42037295  0.80039039  0.59414049  1
