# generated using pymatgen
data_Gd5Al31N36
_symmetry_space_group_name_H-M   'P 1'
_cell_length_a   9.69056100
_cell_length_b   9.69474732
_cell_length_c   10.60292453
_cell_angle_alpha   89.99918897
_cell_angle_beta   88.69292312
_cell_angle_gamma   59.99353104
_symmetry_Int_Tables_number   1
_chemical_formula_structural   Gd5Al31N36
_chemical_formula_sum   'Gd5 Al31 N36'
_cell_volume   862.30870864
_cell_formula_units_Z   1
loop_
 _symmetry_equiv_pos_site_id
 _symmetry_equiv_pos_as_xyz
  1  'x, y, z'
loop_
 _atom_site_type_symbol
 _atom_site_label
 _atom_site_symmetry_multiplicity
 _atom_site_fract_x
 _atom_site_fract_y
 _atom_site_fract_z
 _atom_site_occupancy
  Al  Al0  1  0.12750102  0.08226524  0.41813747  1
  Al  Al1  1  0.77880691  0.09379947  0.82465687  1
  Al  Al2  1  0.89198033  0.20154795  0.58925580  1
  Al  Al3  1  0.45355105  0.08989318  0.42286350  1
  Al  Al4  1  0.11322074  0.08766165  0.89120056  1
  Al  Al5  1  0.21781087  0.20776329  0.65373997  1
  Al  Al6  1  0.79369247  0.08754478  0.34915537  1
  Al  Al7  1  0.88482220  0.19812907  0.06669981  1
  Al  Al8  1  0.43704070  0.09814727  0.88934717  1
  Al  Al9  1  0.54562983  0.20525854  0.65157016  1
  Al  Al10  1  0.12749705  0.42356138  0.41813684  1
  Al  Al11  1  0.21556486  0.54935438  0.14422438  1
  Al  Al12  1  0.79193909  0.42069169  0.83200983  1
  Al  Al13  1  0.89198012  0.53980445  0.58925786  1
  Al  Al14  1  0.43648622  0.42327551  0.41356655  1
  Al  Al15  1  0.55591071  0.53871607  0.05328500  1
  Al  Al16  1  0.11321791  0.43244592  0.89120252  1
  Al  Al17  1  0.21250326  0.54093075  0.65420071  1
  Al  Al18  1  0.88481776  0.55037870  0.06670166  1
  Al  Al19  1  0.42996477  0.43053265  0.88955102  1
  Al  Al20  1  0.12513701  0.75409449  0.40080379  1
  Al  Al21  1  0.21556911  0.86841603  0.14422253  1
  Al  Al22  1  0.77880424  0.76071822  0.82465770  1
  Al  Al23  1  0.89348359  0.86992487  0.62702565  1
  Al  Al24  1  0.43648659  0.77357421  0.41356755  1
  Al  Al25  1  0.10246114  0.76543301  0.90288329  1
  Al  Al26  1  0.21250203  0.87990198  0.65420211  1
  Al  Al27  1  0.79368687  0.75208848  0.34916089  1
  Al  Al28  1  0.90985758  0.86173682  0.16341281  1
  Al  Al29  1  0.42996575  0.77283343  0.88955176  1
  Al  Al30  1  0.54562687  0.88245723  0.65157027  1
  Gd  Gd31  1  0.19921493  0.21706120  0.15547980  1
  Gd  Gd32  1  0.55074418  0.21806600  0.14933952  1
  Gd  Gd33  1  0.77599860  0.42865973  0.32786105  1
  Gd  Gd34  1  0.54810085  0.54262695  0.62993477  1
  Gd  Gd35  1  0.55074338  0.86454568  0.14934014  1
  N  N36  1  0.23197387  0.20068497  0.37251046  1
  N  N37  1  0.10689690  0.07362778  0.07118747  1
  N  N38  1  0.88041974  0.20421484  0.88521078  1
  N  N39  1  0.77781023  0.09646496  0.64032212  1
  N  N40  1  0.56236679  0.20069389  0.36689334  1
  N  N41  1  0.43551770  0.09890999  0.06489781  1
  N  N42  1  0.21357849  0.20988235  0.83770141  1
  N  N43  1  0.11603788  0.09122279  0.60126392  1
  N  N44  1  0.90267421  0.18470172  0.40931542  1
  N  N45  1  0.81277484  0.08373148  0.16132663  1
  N  N46  1  0.54604038  0.21108684  0.83752736  1
  N  N47  1  0.44294643  0.09519136  0.60304941  1
  N  N48  1  0.22786979  0.53136576  0.33474771  1
  N  N49  1  0.10689104  0.45279940  0.07118968  1
  N  N50  1  0.88041713  0.54870443  0.88520867  1
  N  N51  1  0.81352777  0.40989239  0.65196379  1
  N  N52  1  0.52919355  0.55208084  0.39989345  1
  N  N53  1  0.42179868  0.45532151  0.06733186  1
  N  N54  1  0.21498002  0.54796598  0.83392432  1
  N  N55  1  0.11603683  0.42606082  0.60126100  1
  N  N56  1  0.90266753  0.54596649  0.40931912  1
  N  N57  1  0.77431391  0.42949708  0.10747693  1
  N  N58  1  0.55828541  0.53753052  0.86318205  1
  N  N59  1  0.42080597  0.41101743  0.59225525  1
  N  N60  1  0.22787233  0.87410361  0.33474640  1
  N  N61  1  0.11106781  0.76112745  0.08910521  1
  N  N62  1  0.88957778  0.87188098  0.84706284  1
  N  N63  1  0.77780659  0.75903937  0.64032147  1
  N  N64  1  0.56236540  0.87029551  0.36689449  1
  N  N65  1  0.42180971  0.75620093  0.06733285  1
  N  N66  1  0.21497970  0.87039647  0.83392731  1
  N  N67  1  0.11830489  0.75750859  0.58587447  1
  N  N68  1  0.90470579  0.86431649  0.36166482  1
  N  N69  1  0.81277388  0.73680330  0.16132909  1
  N  N70  1  0.54603933  0.87622325  0.83752881  1
  N  N71  1  0.42080060  0.80150890  0.59225331  1
