# generated using pymatgen
data_Gd5Al31N36
_symmetry_space_group_name_H-M   'P 1'
_cell_length_a   9.71967323
_cell_length_b   9.68402441
_cell_length_c   10.40924462
_cell_angle_alpha   89.84764724
_cell_angle_beta   89.25895937
_cell_angle_gamma   60.03202230
_symmetry_Int_Tables_number   1
_chemical_formula_structural   Gd5Al31N36
_chemical_formula_sum   'Gd5 Al31 N36'
_cell_volume   848.70532316
_cell_formula_units_Z   1
loop_
 _symmetry_equiv_pos_site_id
 _symmetry_equiv_pos_as_xyz
  1  'x, y, z'
loop_
 _atom_site_type_symbol
 _atom_site_label
 _atom_site_symmetry_multiplicity
 _atom_site_fract_x
 _atom_site_fract_y
 _atom_site_fract_z
 _atom_site_occupancy
  Al  Al0  1  0.11983972  0.08272779  0.39281050  1
  Al  Al1  1  0.77296209  0.09121555  0.80067945  1
  Al  Al2  1  0.89137168  0.20044893  0.57243919  1
  Al  Al3  1  0.44469952  0.09549282  0.32886300  1
  Al  Al4  1  0.10835651  0.08946051  0.84072174  1
  Al  Al5  1  0.22251559  0.21271468  0.56973475  1
  Al  Al6  1  0.79004883  0.08538582  0.31892161  1
  Al  Al7  1  0.89120649  0.19627678  0.04239901  1
  Al  Al8  1  0.44372183  0.09366849  0.78482696  1
  Al  Al9  1  0.55464343  0.20424725  0.55689243  1
  Al  Al10  1  0.11281048  0.43530613  0.31885844  1
  Al  Al11  1  0.21195844  0.55258106  0.06470791  1
  Al  Al12  1  0.78241775  0.42654755  0.81868237  1
  Al  Al13  1  0.89687626  0.53936431  0.56501255  1
  Al  Al14  1  0.43591715  0.43645258  0.30782307  1
  Al  Al15  1  0.54174628  0.54583439  0.04746833  1
  Al  Al16  1  0.10780610  0.43304776  0.79911495  1
  Al  Al17  1  0.21648704  0.53989236  0.55830396  1
  Al  Al18  1  0.89386392  0.54676523  0.05201758  1
  Al  Al19  1  0.43218839  0.42575255  0.80580218  1
  Al  Al20  1  0.10713259  0.75808290  0.31469091  1
  Al  Al21  1  0.21107973  0.87815886  0.13343876  1
  Al  Al22  1  0.77703176  0.76437885  0.80101567  1
  Al  Al23  1  0.88911152  0.87068293  0.55910255  1
  Al  Al24  1  0.44379342  0.75961832  0.30944106  1
  Al  Al25  1  0.10303420  0.75762845  0.81113371  1
  Al  Al26  1  0.21595742  0.87500646  0.62696181  1
  Al  Al27  1  0.78783167  0.76001336  0.31671184  1
  Al  Al28  1  0.90189405  0.86812529  0.06646674  1
  Al  Al29  1  0.44228577  0.76676795  0.80139502  1
  Al  Al30  1  0.55796306  0.87292806  0.55595699  1
  Gd  Gd31  1  0.22118401  0.21516696  0.05422535  1
  Gd  Gd32  1  0.56746865  0.20595207  0.06467481  1
  Gd  Gd33  1  0.79350019  0.41766440  0.29491522  1
  Gd  Gd34  1  0.55993942  0.53278814  0.56880986  1
  Gd  Gd35  1  0.56329581  0.86399430  0.05962170  1
  N  N36  1  0.21971384  0.21265624  0.37776980  1
  N  N37  1  0.10629679  0.07581175  0.05852629  1
  N  N38  1  0.87989461  0.20137221  0.85716157  1
  N  N39  1  0.77558109  0.09189939  0.61782360  1
  N  N40  1  0.56024924  0.21012877  0.36800091  1
  N  N41  1  0.44579869  0.09415473  0.15154899  1
  N  N42  1  0.22003002  0.20624769  0.82997044  1
  N  N43  1  0.11571436  0.09021883  0.58625818  1
  N  N44  1  0.89755412  0.18249690  0.38916050  1
  N  N45  1  0.81375900  0.07978946  0.13510351  1
  N  N46  1  0.54998828  0.20194411  0.84666420  1
  N  N47  1  0.44754102  0.09287595  0.60138786  1
  N  N48  1  0.22314200  0.54137188  0.37383565  1
  N  N49  1  0.09342932  0.45745780  0.13443537  1
  N  N50  1  0.89040479  0.54583465  0.86622157  1
  N  N51  1  0.81317930  0.41205884  0.63306823  1
  N  N52  1  0.54062006  0.54574222  0.35623580  1
  N  N53  1  0.42391883  0.45597017  0.12276220  1
  N  N54  1  0.21529618  0.53898756  0.87451104  1
  N  N55  1  0.11015743  0.43400854  0.61782470  1
  N  N56  1  0.90145448  0.55082574  0.38396490  1
  N  N57  1  0.77500751  0.42860188  0.07473003  1
  N  N58  1  0.54668957  0.54191504  0.85496966  1
  N  N59  1  0.42301216  0.41446000  0.62483634  1
  N  N60  1  0.21824695  0.87686586  0.32667445  1
  N  N61  1  0.10824470  0.75984886  0.12639836  1
  N  N62  1  0.88299808  0.87468630  0.87323753  1
  N  N63  1  0.77791469  0.76250904  0.61730715  1
  N  N64  1  0.56099815  0.86535099  0.36842817  1
  N  N65  1  0.43333633  0.74819274  0.12315193  1
  N  N66  1  0.21666878  0.86972169  0.81556688  1
  N  N67  1  0.10440411  0.75705412  0.62026723  1
  N  N68  1  0.89100185  0.87059125  0.37598308  1
  N  N69  1  0.80707801  0.74978276  0.13230840  1
  N  N70  1  0.55284824  0.87670581  0.84201245  1
  N  N71  1  0.43587898  0.78570843  0.61786231  1
