# generated using pymatgen
data_Gd5Al31N36
_symmetry_space_group_name_H-M   'P 1'
_cell_length_a   9.70419201
_cell_length_b   9.68688843
_cell_length_c   10.62491588
_cell_angle_alpha   89.53627604
_cell_angle_beta   88.99977070
_cell_angle_gamma   60.09626215
_symmetry_Int_Tables_number   1
_chemical_formula_structural   Gd5Al31N36
_chemical_formula_sum   'Gd5 Al31 N36'
_cell_volume   865.67319961
_cell_formula_units_Z   1
loop_
 _symmetry_equiv_pos_site_id
 _symmetry_equiv_pos_as_xyz
  1  'x, y, z'
loop_
 _atom_site_type_symbol
 _atom_site_label
 _atom_site_symmetry_multiplicity
 _atom_site_fract_x
 _atom_site_fract_y
 _atom_site_fract_z
 _atom_site_occupancy
  Al  Al0  1  0.12004126  0.08189254  0.39160411  1
  Al  Al1  1  0.77318793  0.09103739  0.79793134  1
  Al  Al2  1  0.89145756  0.20057966  0.56730872  1
  Al  Al3  1  0.45131062  0.09373418  0.32674730  1
  Al  Al4  1  0.11097948  0.08289464  0.86787908  1
  Al  Al5  1  0.22822390  0.20157029  0.56875158  1
  Al  Al6  1  0.78791830  0.08889195  0.31580510  1
  Al  Al7  1  0.88362087  0.19798190  0.04188741  1
  Al  Al8  1  0.43866463  0.09488567  0.78859887  1
  Al  Al9  1  0.55741474  0.20241257  0.55661396  1
  Al  Al10  1  0.12030008  0.43526603  0.39468218  1
  Al  Al11  1  0.21004457  0.54676494  0.13431450  1
  Al  Al12  1  0.78080310  0.42347036  0.81169722  1
  Al  Al13  1  0.89120788  0.54189294  0.56968348  1
  Al  Al14  1  0.44516825  0.43103048  0.30612706  1
  Al  Al15  1  0.54259088  0.54616214  0.04557421  1
  Al  Al16  1  0.11025439  0.42979475  0.85660924  1
  Al  Al17  1  0.21487970  0.53831547  0.62924306  1
  Al  Al18  1  0.88560632  0.55039846  0.04002878  1
  Al  Al19  1  0.44260419  0.42139258  0.79931156  1
  Al  Al20  1  0.10296690  0.76781181  0.31517870  1
  Al  Al21  1  0.21148491  0.87482654  0.12970767  1
  Al  Al22  1  0.77340362  0.76559490  0.79738044  1
  Al  Al23  1  0.88908187  0.87248792  0.55617991  1
  Al  Al24  1  0.44432930  0.76311468  0.30361339  1
  Al  Al25  1  0.09685109  0.76493619  0.80895351  1
  Al  Al26  1  0.21344360  0.88130961  0.63173695  1
  Al  Al27  1  0.78812545  0.76069975  0.31652709  1
  Al  Al28  1  0.90179863  0.86531692  0.06613969  1
  Al  Al29  1  0.44305302  0.76448825  0.80027618  1
  Al  Al30  1  0.55668954  0.87431843  0.55669912  1
  Gd  Gd31  1  0.21117264  0.21022475  0.09048287  1
  Gd  Gd32  1  0.56529096  0.20835780  0.05560954  1
  Gd  Gd33  1  0.79588695  0.42374781  0.29223185  1
  Gd  Gd34  1  0.55915642  0.53821206  0.55945849  1
  Gd  Gd35  1  0.56591234  0.86603539  0.05460822  1
  N  N36  1  0.22533738  0.20676954  0.37154436  1
  N  N37  1  0.10168257  0.06702833  0.04807486  1
  N  N38  1  0.87629311  0.20172852  0.85976492  1
  N  N39  1  0.77792900  0.09112380  0.61696993  1
  N  N40  1  0.56153197  0.20937275  0.37105802  1
  N  N41  1  0.45490777  0.09190185  0.15226850  1
  N  N42  1  0.21999080  0.20249799  0.84646516  1
  N  N43  1  0.11672665  0.08815622  0.57417792  1
  N  N44  1  0.89565736  0.18721427  0.38486792  1
  N  N45  1  0.80876250  0.07995567  0.13467747  1
  N  N46  1  0.55027825  0.20079725  0.84199706  1
  N  N47  1  0.44758130  0.09264778  0.60578078  1
  N  N48  1  0.21966975  0.53917054  0.32500003  1
  N  N49  1  0.10195069  0.46173200  0.05343145  1
  N  N50  1  0.87841302  0.54921409  0.85747698  1
  N  N51  1  0.81077911  0.41033510  0.63115285  1
  N  N52  1  0.54107021  0.54925840  0.35135452  1
  N  N53  1  0.43337657  0.45204379  0.12348293  1
  N  N54  1  0.21537836  0.54035792  0.81296361  1
  N  N55  1  0.11643922  0.42638376  0.58011256  1
  N  N56  1  0.89703513  0.55574779  0.38878472  1
  N  N57  1  0.77759042  0.42741812  0.07640609  1
  N  N58  1  0.54728262  0.54028938  0.85641273  1
  N  N59  1  0.43621534  0.41082541  0.61956684  1
  N  N60  1  0.21838436  0.88202495  0.31779467  1
  N  N61  1  0.10385263  0.76451344  0.12885205  1
  N  N62  1  0.87997210  0.87425935  0.87395833  1
  N  N63  1  0.77733985  0.76460033  0.61718891  1
  N  N64  1  0.56090570  0.86664800  0.37068117  1
  N  N65  1  0.43523631  0.75062341  0.11968210  1
  N  N66  1  0.21534692  0.87125474  0.81477481  1
  N  N67  1  0.10093613  0.76608880  0.61662722  1
  N  N68  1  0.88856104  0.87445811  0.37562091  1
  N  N69  1  0.80846957  0.74266079  0.13460669  1
  N  N70  1  0.55135727  0.87610615  0.84123598  1
  N  N71  1  0.43482539  0.78692801  0.62061939  1
