# generated using pymatgen
data_Gd5Al31N36
_symmetry_space_group_name_H-M   'P 1'
_cell_length_a   9.71220185
_cell_length_b   9.74036727
_cell_length_c   10.47990057
_cell_angle_alpha   89.99722560
_cell_angle_beta   88.98216460
_cell_angle_gamma   59.91667983
_symmetry_Int_Tables_number   1
_chemical_formula_structural   Gd5Al31N36
_chemical_formula_sum   'Gd5 Al31 N36'
_cell_volume   857.67806024
_cell_formula_units_Z   1
loop_
 _symmetry_equiv_pos_site_id
 _symmetry_equiv_pos_as_xyz
  1  'x, y, z'
loop_
 _atom_site_type_symbol
 _atom_site_label
 _atom_site_symmetry_multiplicity
 _atom_site_fract_x
 _atom_site_fract_y
 _atom_site_fract_z
 _atom_site_occupancy
  Al  Al0  1  0.12523313  0.08207751  0.41947193  1
  Al  Al1  1  0.77455673  0.09197015  0.82996347  1
  Al  Al2  1  0.89254212  0.19950355  0.59235297  1
  Al  Al3  1  0.44816822  0.09259911  0.41369208  1
  Al  Al4  1  0.11472014  0.08695449  0.88954094  1
  Al  Al5  1  0.22270183  0.20532139  0.65423328  1
  Al  Al6  1  0.80129894  0.07778718  0.33987454  1
  Al  Al7  1  0.88413827  0.19693006  0.06524793  1
  Al  Al8  1  0.43926169  0.09705028  0.89590878  1
  Al  Al9  1  0.55794222  0.19856030  0.61754832  1
  Al  Al10  1  0.12521248  0.42602258  0.41946900  1
  Al  Al11  1  0.21080156  0.55356699  0.14512683  1
  Al  Al12  1  0.79204803  0.42062812  0.83251759  1
  Al  Al13  1  0.89253126  0.54128018  0.59235955  1
  Al  Al14  1  0.43423706  0.42777871  0.40842096  1
  Al  Al15  1  0.55537451  0.53898787  0.06023130  1
  Al  Al16  1  0.11471024  0.43165033  0.88954833  1
  Al  Al17  1  0.21515468  0.53924523  0.65374913  1
  Al  Al18  1  0.88412455  0.55222866  0.06525373  1
  Al  Al19  1  0.43400082  0.42684434  0.89436954  1
  Al  Al20  1  0.12527747  0.75402271  0.40136364  1
  Al  Al21  1  0.21081374  0.86895165  0.14512362  1
  Al  Al22  1  0.77455273  0.76679478  0.82996702  1
  Al  Al23  1  0.89007510  0.87162219  0.58304382  1
  Al  Al24  1  0.43424304  0.77134503  0.40841880  1
  Al  Al25  1  0.11552654  0.75889470  0.90063324  1
  Al  Al26  1  0.21515389  0.87893094  0.65375303  1
  Al  Al27  1  0.80128309  0.75423577  0.33988037  1
  Al  Al28  1  0.89227021  0.87051593  0.08285636  1
  Al  Al29  1  0.43400508  0.77249565  0.89437334  1
  Al  Al30  1  0.55792934  0.87687338  0.61755208  1
  Gd  Gd31  1  0.18500419  0.22415653  0.15747866  1
  Gd  Gd32  1  0.54809098  0.21852111  0.14512429  1
  Gd  Gd33  1  0.77711816  0.42808733  0.33311892  1
  Gd  Gd34  1  0.54344089  0.54496974  0.63427103  1
  Gd  Gd35  1  0.54809026  0.86677946  0.14511302  1
  N  N36  1  0.22625241  0.20355726  0.37405080  1
  N  N37  1  0.10488298  0.07194306  0.07068668  1
  N  N38  1  0.88207444  0.20334337  0.88145181  1
  N  N39  1  0.78254170  0.08852651  0.64449575  1
  N  N40  1  0.56574857  0.19979887  0.37196161  1
  N  N41  1  0.42119395  0.10608717  0.07603738  1
  N  N42  1  0.21722991  0.20806395  0.83882912  1
  N  N43  1  0.11685260  0.09133286  0.60378962  1
  N  N44  1  0.90198757  0.18071344  0.40857606  1
  N  N45  1  0.81328202  0.07541500  0.15477738  1
  N  N46  1  0.55151745  0.20740095  0.85982479  1
  N  N47  1  0.44520022  0.09406944  0.59677104  1
  N  N48  1  0.22323342  0.53446618  0.33563028  1
  N  N49  1  0.10486838  0.45647358  0.07069657  1
  N  N50  1  0.88206157  0.54792497  0.88145000  1
  N  N51  1  0.80950984  0.41188286  0.64793504  1
  N  N52  1  0.52736382  0.55301702  0.39467219  1
  N  N53  1  0.41963331  0.45917037  0.07423331  1
  N  N54  1  0.21987498  0.54482093  0.83383864  1
  N  N55  1  0.11684201  0.42512828  0.60378359  1
  N  N56  1  0.90195946  0.55064882  0.40858802  1
  N  N57  1  0.77782666  0.42771075  0.10992444  1
  N  N58  1  0.55959583  0.53688875  0.86702643  1
  N  N59  1  0.42223097  0.41057768  0.58848599  1
  N  N60  1  0.22324221  0.87565004  0.33562489  1
  N  N61  1  0.11317957  0.76006059  0.08615654  1
  N  N62  1  0.88113492  0.87610162  0.89387091  1
  N  N63  1  0.78252663  0.76222618  0.64449814  1
  N  N64  1  0.56573728  0.86786418  0.37195367  1
  N  N65  1  0.41966418  0.75450786  0.07424306  1
  N  N66  1  0.21987689  0.86865149  0.83384414  1
  N  N67  1  0.12347682  0.75491424  0.58940882  1
  N  N68  1  0.89536682  0.86898466  0.39931332  1
  N  N69  1  0.81328641  0.74455749  0.15478193  1
  N  N70  1  0.55151121  0.87447433  0.85983807  1
  N  N71  1  0.42221917  0.80053453  0.58848021  1
