# generated using pymatgen
data_Gd5Al31N36
_symmetry_space_group_name_H-M   'P 1'
_cell_length_a   9.68733987
_cell_length_b   9.66589029
_cell_length_c   10.52445945
_cell_angle_alpha   89.22778633
_cell_angle_beta   89.11098391
_cell_angle_gamma   60.11747233
_symmetry_Int_Tables_number   1
_chemical_formula_structural   Gd5Al31N36
_chemical_formula_sum   'Gd5 Al31 N36'
_cell_volume   854.33436480
_cell_formula_units_Z   1
loop_
 _symmetry_equiv_pos_site_id
 _symmetry_equiv_pos_as_xyz
  1  'x, y, z'
loop_
 _atom_site_type_symbol
 _atom_site_label
 _atom_site_symmetry_multiplicity
 _atom_site_fract_x
 _atom_site_fract_y
 _atom_site_fract_z
 _atom_site_occupancy
  Al  Al0  1  0.11934503  0.08468291  0.39012830  1
  Al  Al1  1  0.77434868  0.08916252  0.79947908  1
  Al  Al2  1  0.89304974  0.20016479  0.56868524  1
  Al  Al3  1  0.44581541  0.09741735  0.32568399  1
  Al  Al4  1  0.11120985  0.08004699  0.86420528  1
  Al  Al5  1  0.22436388  0.20999103  0.56431946  1
  Al  Al6  1  0.78823800  0.08822893  0.31723173  1
  Al  Al7  1  0.88787194  0.19844664  0.04428668  1
  Al  Al8  1  0.44188233  0.09160182  0.78452859  1
  Al  Al9  1  0.55674812  0.20298305  0.55664744  1
  Al  Al10  1  0.11028942  0.43739151  0.32483360  1
  Al  Al11  1  0.21082703  0.55194867  0.08767579  1
  Al  Al12  1  0.78387133  0.42194421  0.81631722  1
  Al  Al13  1  0.89694138  0.53909650  0.56610139  1
  Al  Al14  1  0.43870201  0.43561722  0.31172965  1
  Al  Al15  1  0.54160446  0.54640967  0.04627174  1
  Al  Al16  1  0.10990227  0.42605324  0.79702831  1
  Al  Al17  1  0.21740347  0.54040126  0.56028909  1
  Al  Al18  1  0.89174784  0.54731682  0.05067199  1
  Al  Al19  1  0.43243963  0.42323100  0.80155925  1
  Al  Al20  1  0.10536972  0.76450881  0.31754394  1
  Al  Al21  1  0.21183992  0.87818288  0.13170965  1
  Al  Al22  1  0.77816793  0.76138916  0.80018662  1
  Al  Al23  1  0.88930911  0.87128273  0.55864298  1
  Al  Al24  1  0.44322975  0.76335637  0.30641456  1
  Al  Al25  1  0.10455665  0.75179012  0.80962505  1
  Al  Al26  1  0.21378164  0.88043782  0.63130160  1
  Al  Al27  1  0.78648386  0.76270130  0.31653090  1
  Al  Al28  1  0.90096616  0.86775730  0.06506009  1
  Al  Al29  1  0.44386788  0.76320930  0.80084057  1
  Al  Al30  1  0.55716163  0.87428087  0.55616551  1
  Gd  Gd31  1  0.21903355  0.22079219  0.05713032  1
  Gd  Gd32  1  0.56771654  0.20972279  0.05925508  1
  Gd  Gd33  1  0.79097452  0.42446676  0.29429284  1
  Gd  Gd34  1  0.56059053  0.53642870  0.56657463  1
  Gd  Gd35  1  0.56201500  0.86811611  0.05542301  1
  N  N36  1  0.22158596  0.21382899  0.37472628  1
  N  N37  1  0.10768787  0.07309446  0.05030361  1
  N  N38  1  0.87841118  0.19920075  0.86130410  1
  N  N39  1  0.77811496  0.09111094  0.61758157  1
  N  N40  1  0.56083003  0.21000109  0.36936773  1
  N  N41  1  0.44714881  0.09717462  0.14942842  1
  N  N42  1  0.22043362  0.20052606  0.83579543  1
  N  N43  1  0.11769049  0.08855536  0.57442861  1
  N  N44  1  0.89494736  0.18716742  0.38530305  1
  N  N45  1  0.81259397  0.07909610  0.13496276  1
  N  N46  1  0.55048167  0.19875957  0.84369133  1
  N  N47  1  0.44737161  0.09303724  0.60237024  1
  N  N48  1  0.22243765  0.54441883  0.37305944  1
  N  N49  1  0.08736413  0.45856184  0.14215189  1
  N  N50  1  0.89150324  0.54140030  0.86598537  1
  N  N51  1  0.81412347  0.40955927  0.63333653  1
  N  N52  1  0.53872831  0.55040941  0.35671176  1
  N  N53  1  0.42651083  0.45509872  0.12850229  1
  N  N54  1  0.21659745  0.53304280  0.86615361  1
  N  N55  1  0.11227771  0.42950107  0.61601073  1
  N  N56  1  0.89890486  0.55440801  0.38753526  1
  N  N57  1  0.77480631  0.42790881  0.07704754  1
  N  N58  1  0.54792890  0.53814429  0.85571302  1
  N  N59  1  0.42730441  0.41377609  0.62119466  1
  N  N60  1  0.21717651  0.88314470  0.31894264  1
  N  N61  1  0.10534116  0.76294959  0.13026985  1
  N  N62  1  0.88403944  0.87157653  0.87319439  1
  N  N63  1  0.77853398  0.76182605  0.61793957  1
  N  N64  1  0.55970365  0.86825127  0.36885302  1
  N  N65  1  0.43485285  0.74876540  0.12094564  1
  N  N66  1  0.21660695  0.86713089  0.81611127  1
  N  N67  1  0.10513300  0.75849704  0.61882381  1
  N  N68  1  0.88915616  0.87371698  0.37667569  1
  N  N69  1  0.80472440  0.74967789  0.13220001  1
  N  N70  1  0.55443650  0.87291195  0.84078377  1
  N  N71  1  0.43484140  0.78718810  0.61997257  1
