# generated using pymatgen
data_Gd5Al31N36
_symmetry_space_group_name_H-M   'P 1'
_cell_length_a   9.70158581
_cell_length_b   9.70439395
_cell_length_c   10.46844761
_cell_angle_alpha   90.27246950
_cell_angle_beta   89.87867352
_cell_angle_gamma   59.96162336
_symmetry_Int_Tables_number   1
_chemical_formula_structural   Gd5Al31N36
_chemical_formula_sum   'Gd5 Al31 N36'
_cell_volume   853.18893599
_cell_formula_units_Z   1
loop_
 _symmetry_equiv_pos_site_id
 _symmetry_equiv_pos_as_xyz
  1  'x, y, z'
loop_
 _atom_site_type_symbol
 _atom_site_label
 _atom_site_symmetry_multiplicity
 _atom_site_fract_x
 _atom_site_fract_y
 _atom_site_fract_z
 _atom_site_occupancy
  Al  Al0  1  0.12297466  0.08268314  0.41692527  1
  Al  Al1  1  0.77993623  0.08565012  0.88849194  1
  Al  Al2  1  0.89347493  0.19941108  0.59188167  1
  Al  Al3  1  0.44551037  0.09358655  0.42650189  1
  Al  Al4  1  0.11913673  0.08714814  0.88873196  1
  Al  Al5  1  0.21981571  0.20753191  0.65119210  1
  Al  Al6  1  0.77786437  0.08115793  0.41570060  1
  Al  Al7  1  0.89156417  0.20225506  0.05959393  1
  Al  Al8  1  0.44288995  0.09554122  0.89082578  1
  Al  Al9  1  0.55211354  0.20068377  0.65474559  1
  Al  Al10  1  0.11064174  0.43306984  0.41274826  1
  Al  Al11  1  0.21799228  0.55007114  0.14588158  1
  Al  Al12  1  0.79105893  0.41705245  0.83007963  1
  Al  Al13  1  0.89655456  0.54158152  0.65409319  1
  Al  Al14  1  0.42937349  0.42595805  0.41457868  1
  Al  Al15  1  0.55607039  0.53999633  0.05574448  1
  Al  Al16  1  0.11510641  0.43157588  0.89004823  1
  Al  Al17  1  0.21210019  0.54193842  0.65112977  1
  Al  Al18  1  0.89420161  0.54531817  0.10243215  1
  Al  Al19  1  0.43434175  0.42734123  0.88958443  1
  Al  Al20  1  0.11261823  0.76039568  0.39591446  1
  Al  Al21  1  0.21787387  0.86795828  0.14581320  1
  Al  Al22  1  0.78150832  0.76520986  0.89010469  1
  Al  Al23  1  0.89268967  0.86969406  0.65201169  1
  Al  Al24  1  0.43131509  0.77522448  0.41492548  1
  Al  Al25  1  0.11080981  0.76179407  0.90196900  1
  Al  Al26  1  0.21299313  0.87938486  0.65333581  1
  Al  Al27  1  0.78383155  0.76028695  0.41194437  1
  Al  Al28  1  0.89900658  0.86851572  0.14783268  1
  Al  Al29  1  0.43593115  0.77239165  0.88973851  1
  Al  Al30  1  0.55351508  0.87901308  0.65218457  1
  Gd  Gd31  1  0.20673340  0.21521600  0.15837488  1
  Gd  Gd32  1  0.56107063  0.21418272  0.15376634  1
  Gd  Gd33  1  0.77081859  0.42528974  0.33243511  1
  Gd  Gd34  1  0.54493125  0.54359792  0.62832378  1
  Gd  Gd35  1  0.56159810  0.86028426  0.15584551  1
  N  N36  1  0.22462925  0.20422646  0.37733284  1
  N  N37  1  0.11029827  0.07447222  0.07367774  1
  N  N38  1  0.89094726  0.20320061  0.87514438  1
  N  N39  1  0.77398312  0.08822245  0.60300574  1
  N  N40  1  0.55664575  0.20168114  0.37099598  1
  N  N41  1  0.44171640  0.09592707  0.06993399  1
  N  N42  1  0.22024918  0.20828118  0.83834422  1
  N  N43  1  0.11571097  0.09144270  0.60282271  1
  N  N44  1  0.90188425  0.17824441  0.40408004  1
  N  N45  1  0.80137239  0.07370115  0.07381758  1
  N  N46  1  0.55642291  0.20558814  0.84071552  1
  N  N47  1  0.44318245  0.09492440  0.60799023  1
  N  N48  1  0.22246251  0.53481289  0.33582654  1
  N  N49  1  0.10822234  0.45256314  0.07023587  1
  N  N50  1  0.89294921  0.54289473  0.84435242  1
  N  N51  1  0.80784209  0.40927361  0.64519685  1
  N  N52  1  0.52212011  0.55459414  0.39982728  1
  N  N53  1  0.42455376  0.45346910  0.07039897  1
  N  N54  1  0.21873748  0.54576749  0.83359106  1
  N  N55  1  0.10793117  0.43148000  0.59751780  1
  N  N56  1  0.90359805  0.55224148  0.34723320  1
  N  N57  1  0.77859118  0.42895562  0.10522849  1
  N  N58  1  0.56083824  0.53650118  0.86537917  1
  N  N59  1  0.41975294  0.40870118  0.59541838  1
  N  N60  1  0.22298769  0.87498001  0.33579832  1
  N  N61  1  0.11120428  0.76196909  0.08974688  1
  N  N62  1  0.89545481  0.86861455  0.83404524  1
  N  N63  1  0.78001574  0.76051918  0.59922909  1
  N  N64  1  0.55766084  0.87290671  0.37348981  1
  N  N65  1  0.42542251  0.75796253  0.07086016  1
  N  N66  1  0.21966322  0.86895385  0.83517509  1
  N  N67  1  0.11185412  0.76131511  0.58516518  1
  N  N68  1  0.88746148  0.87216555  0.33928394  1
  N  N69  1  0.80139884  0.75907681  0.07109258  1
  N  N70  1  0.55778781  0.87148871  0.83907835  1
  N  N71  1  0.42070345  0.80276317  0.59587880  1
