# generated using pymatgen
data_Gd5Al31N36
_symmetry_space_group_name_H-M   'P 1'
_cell_length_a   9.60166145
_cell_length_b   9.63365304
_cell_length_c   10.75806264
_cell_angle_alpha   90.00195364
_cell_angle_beta   89.59001948
_cell_angle_gamma   59.88186261
_symmetry_Int_Tables_number   1
_chemical_formula_structural   Gd5Al31N36
_chemical_formula_sum   'Gd5 Al31 N36'
_cell_volume   860.73394298
_cell_formula_units_Z   1
loop_
 _symmetry_equiv_pos_site_id
 _symmetry_equiv_pos_as_xyz
  1  'x, y, z'
loop_
 _atom_site_type_symbol
 _atom_site_label
 _atom_site_symmetry_multiplicity
 _atom_site_fract_x
 _atom_site_fract_y
 _atom_site_fract_z
 _atom_site_occupancy
  Al  Al0  1  0.12185351  0.08142048  0.39942933  1
  Al  Al1  1  0.77859486  0.08986347  0.79701510  1
  Al  Al2  1  0.88977289  0.20015445  0.56692018  1
  Al  Al3  1  0.44790410  0.09271538  0.32992066  1
  Al  Al4  1  0.11848214  0.08771731  0.86660050  1
  Al  Al5  1  0.21415720  0.20958443  0.62069223  1
  Al  Al6  1  0.78692419  0.08809231  0.31338322  1
  Al  Al7  1  0.88822824  0.19642737  0.03829649  1
  Al  Al8  1  0.44915951  0.09209006  0.78451225  1
  Al  Al9  1  0.55480656  0.20295140  0.55602848  1
  Al  Al10  1  0.12185650  0.43006356  0.39942950  1
  Al  Al11  1  0.21121953  0.54802492  0.12448407  1
  Al  Al12  1  0.78551087  0.42391383  0.80815516  1
  Al  Al13  1  0.88977249  0.54340019  0.56691841  1
  Al  Al14  1  0.44136826  0.42855580  0.30095806  1
  Al  Al15  1  0.54981750  0.54175456  0.04418451  1
  Al  Al16  1  0.11848345  0.42713817  0.86659981  1
  Al  Al17  1  0.21029481  0.54589682  0.63378740  1
  Al  Al18  1  0.88823154  0.54867279  0.03829631  1
  Al  Al19  1  0.44700434  0.42231076  0.79841694  1
  Al  Al20  1  0.11212236  0.76060833  0.35384887  1
  Al  Al21  1  0.21121494  0.87408216  0.12448594  1
  Al  Al22  1  0.77859527  0.76487847  0.79701630  1
  Al  Al23  1  0.88932650  0.87200111  0.55281007  1
  Al  Al24  1  0.44136451  0.76341222  0.30095774  1
  Al  Al25  1  0.11222413  0.76055876  0.87151710  1
  Al  Al26  1  0.21029735  0.87713496  0.63378569  1
  Al  Al27  1  0.78692872  0.75832006  0.31338127  1
  Al  Al28  1  0.89496876  0.86917956  0.06488408  1
  Al  Al29  1  0.44700722  0.76402278  0.79841652  1
  Al  Al30  1  0.55480938  0.87556643  0.55602769  1
  Gd  Gd31  1  0.17906333  0.22713422  0.14909473  1
  Gd  Gd32  1  0.55656937  0.20490121  0.05312077  1
  Gd  Gd33  1  0.78570698  0.42381756  0.29484614  1
  Gd  Gd34  1  0.55443040  0.53944051  0.55755861  1
  Gd  Gd35  1  0.55656718  0.87184370  0.05312278  1
  N  N36  1  0.21739101  0.20796418  0.36127442  1
  N  N37  1  0.11474108  0.07161787  0.04316853  1
  N  N38  1  0.88106084  0.20277252  0.85902156  1
  N  N39  1  0.77903816  0.08950030  0.61714881  1
  N  N40  1  0.55818669  0.20978863  0.37073831  1
  N  N41  1  0.43813979  0.09760116  0.15431898  1
  N  N42  1  0.21604968  0.20863619  0.80620673  1
  N  N43  1  0.11692805  0.08668439  0.57631438  1
  N  N44  1  0.89374047  0.18618316  0.38683208  1
  N  N45  1  0.80854013  0.08210118  0.13276342  1
  N  N46  1  0.55367406  0.20227065  0.84213608  1
  N  N47  1  0.44753600  0.09290367  0.60489467  1
  N  N48  1  0.21067168  0.53805355  0.30947099  1
  N  N49  1  0.11474419  0.44697598  0.04316762  1
  N  N50  1  0.88106087  0.54949275  0.85902487  1
  N  N51  1  0.81058403  0.41138194  0.63013262  1
  N  N52  1  0.52880355  0.55225997  0.35299295  1
  N  N53  1  0.43969026  0.44809044  0.12105267  1
  N  N54  1  0.21534292  0.54650357  0.81368858  1
  N  N55  1  0.11692766  0.42972807  0.57631703  1
  N  N56  1  0.89374828  0.55340014  0.38682799  1
  N  N57  1  0.78709320  0.42312758  0.08092496  1
  N  N58  1  0.55200022  0.54066463  0.85803180  1
  N  N59  1  0.43563972  0.41072226  0.62290412  1
  N  N60  1  0.21066671  0.88459985  0.30947206  1
  N  N61  1  0.11618437  0.75857768  0.07413444  1
  N  N62  1  0.87830426  0.87751300  0.87458683  1
  N  N63  1  0.77903985  0.76480679  0.61714949  1
  N  N64  1  0.55819020  0.86534566  0.37073611  1
  N  N65  1  0.43968556  0.74556247  0.12105495  1
  N  N66  1  0.21534667  0.87147397  0.81368527  1
  N  N67  1  0.11623363  0.75855354  0.57299630  1
  N  N68  1  0.88450805  0.87440951  0.37102110  1
  N  N69  1  0.80854131  0.74270770  0.13276242  1
  N  N70  1  0.55367409  0.87738427  0.84213790  1
  N  N71  1  0.43564388  0.78697936  0.62290321  1
