# generated using pymatgen
data_Gd5Al31N36
_symmetry_space_group_name_H-M   'P 1'
_cell_length_a   9.68724245
_cell_length_b   9.66293158
_cell_length_c   10.50777753
_cell_angle_alpha   89.24783283
_cell_angle_beta   89.11455090
_cell_angle_gamma   60.11143685
_symmetry_Int_Tables_number   1
_chemical_formula_structural   Gd5Al31N36
_chemical_formula_sum   'Gd5 Al31 N36'
_cell_volume   852.66175252
_cell_formula_units_Z   1
loop_
 _symmetry_equiv_pos_site_id
 _symmetry_equiv_pos_as_xyz
  1  'x, y, z'
loop_
 _atom_site_type_symbol
 _atom_site_label
 _atom_site_symmetry_multiplicity
 _atom_site_fract_x
 _atom_site_fract_y
 _atom_site_fract_z
 _atom_site_occupancy
  Al  Al0  1  0.11939404  0.08448696  0.38994309  1
  Al  Al1  1  0.77427131  0.08919345  0.79969749  1
  Al  Al2  1  0.89315755  0.20007215  0.56885773  1
  Al  Al3  1  0.44573181  0.09766723  0.32619488  1
  Al  Al4  1  0.11124186  0.08007962  0.86430030  1
  Al  Al5  1  0.22391825  0.21062469  0.56459423  1
  Al  Al6  1  0.78834002  0.08812171  0.31767586  1
  Al  Al7  1  0.88792771  0.19833048  0.04458686  1
  Al  Al8  1  0.44188488  0.09160408  0.78474040  1
  Al  Al9  1  0.55605838  0.20360765  0.55706211  1
  Al  Al10  1  0.11092912  0.43844233  0.32253739  1
  Al  Al11  1  0.21116469  0.55243247  0.07397583  1
  Al  Al12  1  0.78403888  0.42198385  0.81639011  1
  Al  Al13  1  0.89745624  0.53903805  0.56614740  1
  Al  Al14  1  0.43685745  0.43695451  0.31020724  1
  Al  Al15  1  0.54187358  0.54624991  0.04678498  1
  Al  Al16  1  0.10986714  0.42620329  0.79843201  1
  Al  Al17  1  0.21720287  0.54043716  0.55889819  1
  Al  Al18  1  0.89201103  0.54723492  0.05115484  1
  Al  Al19  1  0.43269641  0.42327425  0.80304329  1
  Al  Al20  1  0.10599534  0.76256629  0.31560806  1
  Al  Al21  1  0.21183957  0.87746180  0.13128846  1
  Al  Al22  1  0.77804747  0.76147188  0.80019555  1
  Al  Al23  1  0.88964158  0.87091997  0.55878958  1
  Al  Al24  1  0.44294358  0.76345752  0.30654060  1
  Al  Al25  1  0.10411502  0.75243758  0.81030240  1
  Al  Al26  1  0.21388505  0.87989762  0.63134476  1
  Al  Al27  1  0.78654391  0.76268431  0.31675484  1
  Al  Al28  1  0.90100731  0.86776725  0.06558909  1
  Al  Al29  1  0.44402226  0.76311878  0.80103351  1
  Al  Al30  1  0.55714541  0.87414203  0.55624423  1
  Gd  Gd31  1  0.21915451  0.21994885  0.05828881  1
  Gd  Gd32  1  0.56783625  0.20966094  0.06006533  1
  Gd  Gd33  1  0.79068952  0.42458870  0.29495025  1
  Gd  Gd34  1  0.56008557  0.53583356  0.56690561  1
  Gd  Gd35  1  0.56217187  0.86818187  0.05564402  1
  N  N36  1  0.22104037  0.21455172  0.37440731  1
  N  N37  1  0.10746033  0.07276319  0.05041639  1
  N  N38  1  0.87848099  0.19921183  0.86122259  1
  N  N39  1  0.77789647  0.09119965  0.61761120  1
  N  N40  1  0.56034217  0.21087128  0.36943348  1
  N  N41  1  0.44751191  0.09694311  0.14990816  1
  N  N42  1  0.22058133  0.20074661  0.83633184  1
  N  N43  1  0.11788263  0.08833925  0.57476778  1
  N  N44  1  0.89508636  0.18706093  0.38547495  1
  N  N45  1  0.81285759  0.07893185  0.13534720  1
  N  N46  1  0.55041183  0.19874405  0.84421351  1
  N  N47  1  0.44709087  0.09316454  0.60236123  1
  N  N48  1  0.22246428  0.54446148  0.37473267  1
  N  N49  1  0.08892704  0.45961641  0.13972322  1
  N  N50  1  0.89152143  0.54166825  0.86614370  1
  N  N51  1  0.81411302  0.40976731  0.63310904  1
  N  N52  1  0.53806459  0.55040029  0.35666072  1
  N  N53  1  0.42485020  0.45607444  0.12677099  1
  N  N54  1  0.21667223  0.53348818  0.87350803  1
  N  N55  1  0.11253401  0.43021637  0.61748620  1
  N  N56  1  0.89994674  0.55407974  0.38716852  1
  N  N57  1  0.77504737  0.42779081  0.07736967  1
  N  N58  1  0.54802119  0.53812711  0.85581569  1
  N  N59  1  0.42566339  0.41440661  0.62300122  1
  N  N60  1  0.21681111  0.88260508  0.31882071  1
  N  N61  1  0.10649416  0.76110749  0.12835591  1
  N  N62  1  0.88393022  0.87154856  0.87331250  1
  N  N63  1  0.77848398  0.76185177  0.61784023  1
  N  N64  1  0.55966950  0.86820822  0.36899620  1
  N  N65  1  0.43498914  0.74891329  0.12089476  1
  N  N66  1  0.21687002  0.86681750  0.81652870  1
  N  N67  1  0.10527618  0.75741053  0.62032701  1
  N  N68  1  0.88992959  0.87319120  0.37655850  1
  N  N69  1  0.80460450  0.74978479  0.13249127  1
  N  N70  1  0.55444333  0.87291806  0.84066490  1
  N  N71  1  0.43490931  0.78679203  0.61989396  1
