# generated using pymatgen
data_Gd5Al31N36
_symmetry_space_group_name_H-M   'P 1'
_cell_length_a   9.70484986
_cell_length_b   9.68557954
_cell_length_c   10.28538472
_cell_angle_alpha   90.00000033
_cell_angle_beta   90.12929600
_cell_angle_gamma   60.06566415
_symmetry_Int_Tables_number   1
_chemical_formula_structural   Gd5Al31N36
_chemical_formula_sum   'Gd5 Al31 N36'
_cell_volume   837.82075492
_cell_formula_units_Z   1
loop_
 _symmetry_equiv_pos_site_id
 _symmetry_equiv_pos_as_xyz
  1  'x, y, z'
loop_
 _atom_site_type_symbol
 _atom_site_label
 _atom_site_symmetry_multiplicity
 _atom_site_fract_x
 _atom_site_fract_y
 _atom_site_fract_z
 _atom_site_occupancy
  Al  Al0  1  0.11257616  0.08563545  0.42302901  1
  Al  Al1  1  0.78428253  0.08975008  0.90493428  1
  Al  Al2  1  0.89441788  0.20240570  0.66837534  1
  Al  Al3  1  0.44410606  0.09461363  0.43835880  1
  Al  Al4  1  0.11010086  0.09043398  0.90583486  1
  Al  Al5  1  0.21636470  0.20848432  0.66087354  1
  Al  Al6  1  0.78285362  0.08566439  0.42107120  1
  Al  Al7  1  0.89941483  0.18554643  0.15578803  1
  Al  Al8  1  0.44259617  0.09536858  0.89489856  1
  Al  Al9  1  0.55441071  0.20480444  0.66343263  1
  Al  Al10  1  0.11257617  0.43512169  0.42302901  1
  Al  Al11  1  0.21389695  0.55030066  0.16093793  1
  Al  Al12  1  0.78160325  0.42586506  0.92216898  1
  Al  Al13  1  0.89441785  0.53650982  0.66837534  1
  Al  Al14  1  0.43095151  0.42997853  0.41699044  1
  Al  Al15  1  0.53646380  0.54843478  0.15746349  1
  Al  Al16  1  0.11010086  0.43279853  0.90583486  1
  Al  Al17  1  0.21567145  0.54148808  0.66357927  1
  Al  Al18  1  0.89941483  0.54837211  0.15578804  1
  Al  Al19  1  0.43804469  0.43268355  0.91466239  1
  Al  Al20  1  0.11011643  0.76160843  0.41036354  1
  Al  Al21  1  0.21389695  0.86913574  0.16093792  1
  Al  Al22  1  0.78428253  0.75930077  0.90493428  1
  Al  Al23  1  0.89213142  0.87060099  0.66268128  1
  Al  Al24  1  0.43095150  0.77240330  0.41699044  1
  Al  Al25  1  0.11056865  0.76138235  0.91315125  1
  Al  Al26  1  0.21567148  0.87617378  0.66357928  1
  Al  Al27  1  0.78285362  0.76481534  0.42107121  1
  Al  Al28  1  0.90012278  0.86660529  0.15902256  1
  Al  Al29  1  0.43804473  0.76260511  0.91466240  1
  Al  Al30  1  0.55441072  0.87411822  0.66343262  1
  Gd  Gd31  1  0.21145825  0.21093756  0.16682205  1
  Gd  Gd32  1  0.56349894  0.20736748  0.16285595  1
  Gd  Gd33  1  0.78268773  0.42532281  0.39035634  1
  Gd  Gd34  1  0.55553319  0.53890008  0.66478656  1
  Gd  Gd35  1  0.56349895  0.86246696  0.16285597  1
  N  N36  1  0.22102638  0.20615348  0.39022028  1
  N  N37  1  0.10405534  0.07605315  0.08871817  1
  N  N38  1  0.88799479  0.20769553  0.85502552  1
  N  N39  1  0.78037381  0.09411321  0.60928381  1
  N  N40  1  0.55622163  0.20219369  0.38311061  1
  N  N41  1  0.44179515  0.09576911  0.07593642  1
  N  N42  1  0.21581853  0.20875742  0.85118432  1
  N  N43  1  0.10773316  0.09216113  0.60958630  1
  N  N44  1  0.90725244  0.16733479  0.34244474  1
  N  N45  1  0.80642809  0.07370401  0.08773004  1
  N  N46  1  0.55795830  0.20967972  0.85401036  1
  N  N47  1  0.44352751  0.09490293  0.62359698  1
  N  N48  1  0.21889488  0.53941794  0.35151714  1
  N  N49  1  0.10405533  0.45322487  0.08871818  1
  N  N50  1  0.88799478  0.53764308  0.85502552  1
  N  N51  1  0.80873639  0.41229849  0.60803637  1
  N  N52  1  0.51953483  0.55689926  0.35105879  1
  N  N53  1  0.42242342  0.45380522  0.09693567  1
  N  N54  1  0.22126273  0.54296474  0.84963795  1
  N  N55  1  0.10773314  0.43343905  0.60958631  1
  N  N56  1  0.90725243  0.55874612  0.34244475  1
  N  N57  1  0.78112145  0.42610594  0.11870226  1
  N  N58  1  0.55922142  0.53705597  0.88083407  1
  N  N59  1  0.42514710  0.41722183  0.60036130  1
  N  N60  1  0.21889488  0.87502050  0.35151714  1
  N  N61  1  0.11073938  0.76129699  0.10262236  1
  N  N62  1  0.89314180  0.87009579  0.84729977  1
  N  N63  1  0.78037381  0.75884635  0.60928382  1
  N  N64  1  0.55622163  0.87491803  0.38311063  1
  N  N65  1  0.42242346  0.75710473  0.09693568  1
  N  N66  1  0.22126276  0.86910588  0.84963796  1
  N  N67  1  0.11061988  0.76135672  0.59975841  1
  N  N68  1  0.88709481  0.87311927  0.35313024  1
  N  N69  1  0.80642809  0.75320126  0.08773004  1
  N  N70  1  0.55795831  0.86569536  0.85401035  1
  N  N71  1  0.42514712  0.79096440  0.60036130  1
