# generated using pymatgen
data_Gd5Al31N36
_symmetry_space_group_name_H-M   'P 1'
_cell_length_a   9.68507512
_cell_length_b   9.70675086
_cell_length_c   10.55785975
_cell_angle_alpha   89.99996813
_cell_angle_beta   89.20081507
_cell_angle_gamma   59.92555889
_symmetry_Int_Tables_number   1
_chemical_formula_structural   Gd5Al31N36
_chemical_formula_sum   'Gd5 Al31 N36'
_cell_volume   858.81717185
_cell_formula_units_Z   1
loop_
 _symmetry_equiv_pos_site_id
 _symmetry_equiv_pos_as_xyz
  1  'x, y, z'
loop_
 _atom_site_type_symbol
 _atom_site_label
 _atom_site_symmetry_multiplicity
 _atom_site_fract_x
 _atom_site_fract_y
 _atom_site_fract_z
 _atom_site_occupancy
  Al  Al0  1  0.12368401  0.08028322  0.41238200  1
  Al  Al1  1  0.77401983  0.09256466  0.81366546  1
  Al  Al2  1  0.88789630  0.20103273  0.57856242  1
  Al  Al3  1  0.44890618  0.09222484  0.34145487  1
  Al  Al4  1  0.11695593  0.08847384  0.87621099  1
  Al  Al5  1  0.21539963  0.20896021  0.63011902  1
  Al  Al6  1  0.79759802  0.08001633  0.32625971  1
  Al  Al7  1  0.88975516  0.19440093  0.05310645  1
  Al  Al8  1  0.44639207  0.09346964  0.80533263  1
  Al  Al9  1  0.55906589  0.19385356  0.56710937  1
  Al  Al10  1  0.12368451  0.42936006  0.41239207  1
  Al  Al11  1  0.21626924  0.54846219  0.13376263  1
  Al  Al12  1  0.79245138  0.42044393  0.81878785  1
  Al  Al13  1  0.88789289  0.54440104  0.57858092  1
  Al  Al14  1  0.43248801  0.42816779  0.39281505  1
  Al  Al15  1  0.56002827  0.53663974  0.04883577  1
  Al  Al16  1  0.11695625  0.42791633  0.87619465  1
  Al  Al17  1  0.21400801  0.54086604  0.64133265  1
  Al  Al18  1  0.88976133  0.54917954  0.05309156  1
  Al  Al19  1  0.43181195  0.43153321  0.87930355  1
  Al  Al20  1  0.12377646  0.75477258  0.38854716  1
  Al  Al21  1  0.21624734  0.86860376  0.13377220  1
  Al  Al22  1  0.77400128  0.76677636  0.81369255  1
  Al  Al23  1  0.88840932  0.87245872  0.56859861  1
  Al  Al24  1  0.43248028  0.77265975  0.39281171  1
  Al  Al25  1  0.11416419  0.75959303  0.88933956  1
  Al  Al26  1  0.21401106  0.87845792  0.64133623  1
  Al  Al27  1  0.79762174  0.75570271  0.32626215  1
  Al  Al28  1  0.89901515  0.86715826  0.07571610  1
  Al  Al29  1  0.43181571  0.77001296  0.87933902  1
  Al  Al30  1  0.55906714  0.88040339  0.56708402  1
  Gd  Gd31  1  0.16840132  0.23247943  0.16448090  1
  Gd  Gd32  1  0.55996008  0.20169017  0.08486019  1
  Gd  Gd33  1  0.77395847  0.42968965  0.31910127  1
  Gd  Gd34  1  0.54120883  0.54605844  0.61794571  1
  Gd  Gd35  1  0.55993326  0.87164183  0.08499422  1
  N  N36  1  0.22269796  0.20531583  0.38238206  1
  N  N37  1  0.11303019  0.07155387  0.05651281  1
  N  N38  1  0.88135024  0.20290907  0.87057693  1
  N  N39  1  0.77715681  0.09083765  0.63083740  1
  N  N40  1  0.57003416  0.19598253  0.37667210  1
  N  N41  1  0.42246785  0.10545244  0.16588306  1
  N  N42  1  0.21451808  0.20940921  0.81984872  1
  N  N43  1  0.11077327  0.09047923  0.59341701  1
  N  N44  1  0.89988095  0.18255136  0.39576107  1
  N  N45  1  0.81679167  0.07538967  0.14511381  1
  N  N46  1  0.55068691  0.20451458  0.86246116  1
  N  N47  1  0.44935744  0.09197450  0.62300342  1
  N  N48  1  0.22140825  0.53470492  0.32247626  1
  N  N49  1  0.11303221  0.44875711  0.05649332  1
  N  N50  1  0.88135072  0.54908293  0.87056447  1
  N  N51  1  0.80799692  0.41266265  0.63638368  1
  N  N52  1  0.52565314  0.55383260  0.38159474  1
  N  N53  1  0.42430917  0.45633381  0.06326866  1
  N  N54  1  0.21880638  0.54600507  0.82096606  1
  N  N55  1  0.11077200  0.43207451  0.59342833  1
  N  N56  1  0.89988103  0.55089909  0.39577834  1
  N  N57  1  0.78357674  0.42488529  0.09732284  1
  N  N58  1  0.55909391  0.53713349  0.85394414  1
  N  N59  1  0.41895767  0.41174324  0.57373301  1
  N  N60  1  0.22140362  0.87721003  0.32247758  1
  N  N61  1  0.11901675  0.75715568  0.07353762  1
  N  N62  1  0.87856133  0.87739691  0.88420673  1
  N  N63  1  0.77713794  0.76534621  0.63085069  1
  N  N64  1  0.57002798  0.86730551  0.37663428  1
  N  N65  1  0.42428192  0.75266499  0.06328999  1
  N  N66  1  0.21881681  0.86853721  0.82097483  1
  N  N67  1  0.12156721  0.75588201  0.57615823  1
  N  N68  1  0.89425080  0.86953934  0.38603934  1
  N  N69  1  0.81681100  0.74113967  0.14511521  1
  N  N70  1  0.55069190  0.87816844  0.86256119  1
  N  N71  1  0.41896171  0.80262463  0.57372415  1
