# generated using pymatgen
data_Gd5Al31N36
_symmetry_space_group_name_H-M   'P 1'
_cell_length_a   9.70271077
_cell_length_b   9.67876516
_cell_length_c   10.61405010
_cell_angle_alpha   89.35112320
_cell_angle_beta   88.83525775
_cell_angle_gamma   60.11716778
_symmetry_Int_Tables_number   1
_chemical_formula_structural   Gd5Al31N36
_chemical_formula_sum   'Gd5 Al31 N36'
_cell_volume   864.06455650
_cell_formula_units_Z   1
loop_
 _symmetry_equiv_pos_site_id
 _symmetry_equiv_pos_as_xyz
  1  'x, y, z'
loop_
 _atom_site_type_symbol
 _atom_site_label
 _atom_site_symmetry_multiplicity
 _atom_site_fract_x
 _atom_site_fract_y
 _atom_site_fract_z
 _atom_site_occupancy
  Al  Al0  1  0.12026194  0.08343660  0.39180861  1
  Al  Al1  1  0.77256434  0.09061952  0.79846167  1
  Al  Al2  1  0.89134176  0.20110302  0.56780543  1
  Al  Al3  1  0.45000388  0.09504623  0.32642068  1
  Al  Al4  1  0.10870616  0.08135531  0.86536308  1
  Al  Al5  1  0.22748649  0.20334662  0.56758304  1
  Al  Al6  1  0.78864956  0.08956855  0.31635496  1
  Al  Al7  1  0.88479564  0.19940952  0.04266714  1
  Al  Al8  1  0.44080564  0.09277002  0.78579428  1
  Al  Al9  1  0.55795505  0.20216899  0.55573610  1
  Al  Al10  1  0.11711591  0.43342619  0.36180773  1
  Al  Al11  1  0.20948936  0.54715603  0.14142290  1
  Al  Al12  1  0.77918765  0.42360815  0.81449424  1
  Al  Al13  1  0.89190395  0.54173451  0.56865518  1
  Al  Al14  1  0.44772924  0.43125130  0.30798201  1
  Al  Al15  1  0.54122817  0.54631860  0.04590539  1
  Al  Al16  1  0.10316324  0.42345670  0.79768724  1
  Al  Al17  1  0.21701798  0.54134971  0.62284004  1
  Al  Al18  1  0.89198574  0.54622818  0.04310758  1
  Al  Al19  1  0.43974099  0.42163165  0.80025546  1
  Al  Al20  1  0.10361856  0.77013096  0.31776241  1
  Al  Al21  1  0.21111773  0.87762088  0.13006308  1
  Al  Al22  1  0.77433261  0.76472783  0.79858787  1
  Al  Al23  1  0.88843394  0.87285253  0.55668689  1
  Al  Al24  1  0.44489280  0.76289879  0.30333511  1
  Al  Al25  1  0.09746637  0.76199938  0.80994184  1
  Al  Al26  1  0.21334552  0.88156080  0.63173769  1
  Al  Al27  1  0.78824030  0.76196567  0.31597395  1
  Al  Al28  1  0.90169824  0.86598817  0.06685388  1
  Al  Al29  1  0.44271641  0.76373092  0.80034620  1
  Al  Al30  1  0.55686628  0.87428568  0.55634221  1
  Gd  Gd31  1  0.22244793  0.21244073  0.06068376  1
  Gd  Gd32  1  0.56816737  0.20750900  0.05818885  1
  Gd  Gd33  1  0.80023401  0.42342483  0.28903868  1
  Gd  Gd34  1  0.56068032  0.53788360  0.55935641  1
  Gd  Gd35  1  0.56485667  0.86639324  0.05531956  1
  N  N36  1  0.22663426  0.20889552  0.37946038  1
  N  N37  1  0.10346132  0.07138701  0.04845344  1
  N  N38  1  0.87595369  0.20068514  0.86021239  1
  N  N39  1  0.77743721  0.09146716  0.61737311  1
  N  N40  1  0.56253787  0.20923731  0.37059912  1
  N  N41  1  0.45221567  0.09355219  0.15257297  1
  N  N42  1  0.21806383  0.20182343  0.83698851  1
  N  N43  1  0.11612725  0.08836047  0.57466252  1
  N  N44  1  0.89561580  0.18878187  0.38500154  1
  N  N45  1  0.81127798  0.07986030  0.13552605  1
  N  N46  1  0.54891503  0.20012478  0.84370434  1
  N  N47  1  0.44833673  0.09253856  0.60479433  1
  N  N48  1  0.22419261  0.54353145  0.33533100  1
  N  N49  1  0.08722989  0.45441106  0.11849407  1
  N  N50  1  0.88486925  0.54522073  0.85966612  1
  N  N51  1  0.81051300  0.41071704  0.63295329  1
  N  N52  1  0.54530749  0.54839061  0.35068189  1
  N  N53  1  0.43134745  0.45177861  0.12475115  1
  N  N54  1  0.21349416  0.53792261  0.81550148  1
  N  N55  1  0.11067057  0.42557752  0.60821676  1
  N  N56  1  0.89934099  0.55599033  0.39121726  1
  N  N57  1  0.77357464  0.42884297  0.07379171  1
  N  N58  1  0.54583577  0.54011804  0.85626599  1
  N  N59  1  0.43659925  0.41048600  0.61934537  1
  N  N60  1  0.21860776  0.88373399  0.31807054  1
  N  N61  1  0.10449974  0.76460907  0.12926725  1
  N  N62  1  0.87996821  0.87409280  0.87419363  1
  N  N63  1  0.77729167  0.76420575  0.61798580  1
  N  N64  1  0.56134719  0.86668716  0.37042202  1
  N  N65  1  0.43438263  0.75026413  0.11991053  1
  N  N66  1  0.21511072  0.86959995  0.81512823  1
  N  N67  1  0.10054738  0.76693991  0.61637979  1
  N  N68  1  0.88854683  0.87516083  0.37618060  1
  N  N69  1  0.80570305  0.74666903  0.13321201  1
  N  N70  1  0.55148040  0.87508721  0.84135959  1
  N  N71  1  0.43470727  0.78683909  0.62057087  1
