# generated using pymatgen
data_Gd5Al31N36
_symmetry_space_group_name_H-M   'P 1'
_cell_length_a   9.68456974
_cell_length_b   9.70648890
_cell_length_c   10.55899591
_cell_angle_alpha   90.00117138
_cell_angle_beta   89.20308814
_cell_angle_gamma   59.92406439
_symmetry_Int_Tables_number   1
_chemical_formula_structural   Gd5Al31N36
_chemical_formula_sum   'Gd5 Al31 N36'
_cell_volume   858.82908262
_cell_formula_units_Z   1
loop_
 _symmetry_equiv_pos_site_id
 _symmetry_equiv_pos_as_xyz
  1  'x, y, z'
loop_
 _atom_site_type_symbol
 _atom_site_label
 _atom_site_symmetry_multiplicity
 _atom_site_fract_x
 _atom_site_fract_y
 _atom_site_fract_z
 _atom_site_occupancy
  Al  Al0  1  0.12377729  0.08025815  0.40010791  1
  Al  Al1  1  0.77412814  0.09250904  0.80137342  1
  Al  Al2  1  0.88796881  0.20101350  0.56626411  1
  Al  Al3  1  0.44901731  0.09217864  0.32916340  1
  Al  Al4  1  0.11704028  0.08842715  0.86395472  1
  Al  Al5  1  0.21546417  0.20893682  0.61787993  1
  Al  Al6  1  0.79767842  0.07998573  0.31398757  1
  Al  Al7  1  0.88984091  0.19435387  0.04082666  1
  Al  Al8  1  0.44648634  0.09341046  0.79303202  1
  Al  Al9  1  0.55915685  0.19381062  0.55485181  1
  Al  Al10  1  0.12378493  0.42930129  0.40011208  1
  Al  Al11  1  0.21639677  0.54837866  0.12150021  1
  Al  Al12  1  0.79254459  0.42040011  0.80649286  1
  Al  Al13  1  0.88797563  0.54436717  0.56627968  1
  Al  Al14  1  0.43258887  0.42811279  0.38056996  1
  Al  Al15  1  0.56014251  0.53656711  0.03651503  1
  Al  Al16  1  0.11704541  0.42786456  0.86394930  1
  Al  Al17  1  0.21409011  0.54082550  0.62907198  1
  Al  Al18  1  0.88985518  0.54912256  0.04081916  1
  Al  Al19  1  0.43190268  0.43147944  0.86700035  1
  Al  Al20  1  0.12389547  0.75471898  0.37627538  1
  Al  Al21  1  0.21635955  0.86854120  0.12150695  1
  Al  Al22  1  0.77410344  0.76672535  0.80141129  1
  Al  Al23  1  0.88851511  0.87241390  0.55630559  1
  Al  Al24  1  0.43257191  0.77263909  0.38055241  1
  Al  Al25  1  0.11424925  0.75954563  0.87709574  1
  Al  Al26  1  0.21408801  0.87843884  0.62906821  1
  Al  Al27  1  0.79771585  0.75565939  0.31398601  1
  Al  Al28  1  0.89911766  0.86710199  0.06347572  1
  Al  Al29  1  0.43189927  0.76996152  0.86705560  1
  Al  Al30  1  0.55915956  0.88038216  0.55480312  1
  Gd  Gd31  1  0.16849902  0.23240905  0.15221154  1
  Gd  Gd32  1  0.56007116  0.20158678  0.07249216  1
  Gd  Gd33  1  0.77402391  0.42966483  0.30679743  1
  Gd  Gd34  1  0.54128652  0.54604896  0.60566349  1
  Gd  Gd35  1  0.56003980  0.87158228  0.07266783  1
  N  N36  1  0.22279634  0.20526987  0.37007049  1
  N  N37  1  0.11313059  0.07148672  0.04423054  1
  N  N38  1  0.88142877  0.20287174  0.85831257  1
  N  N39  1  0.77726948  0.09078526  0.61856386  1
  N  N40  1  0.57013098  0.19593127  0.36444048  1
  N  N41  1  0.42258854  0.10538205  0.15360991  1
  N  N42  1  0.21459524  0.20936543  0.80757609  1
  N  N43  1  0.11085626  0.09045593  0.58112782  1
  N  N44  1  0.89995277  0.18253714  0.38348644  1
  N  N45  1  0.81687631  0.07535387  0.13285647  1
  N  N46  1  0.55077757  0.20446344  0.85014115  1
  N  N47  1  0.44943194  0.09194760  0.61073880  1
  N  N48  1  0.22151598  0.53464525  0.31020098  1
  N  N49  1  0.11314398  0.44868354  0.04422688  1
  N  N50  1  0.88143384  0.54903967  0.85830998  1
  N  N51  1  0.80808712  0.41263327  0.62411659  1
  N  N52  1  0.52573250  0.55380210  0.36935744  1
  N  N53  1  0.42443151  0.45624107  0.05096533  1
  N  N54  1  0.21887235  0.54596370  0.80869508  1
  N  N55  1  0.11086780  0.43202997  0.58113327  1
  N  N56  1  0.89996137  0.55085303  0.38350129  1
  N  N57  1  0.78367863  0.42483044  0.08504097  1
  N  N58  1  0.55917698  0.53708385  0.84165285  1
  N  N59  1  0.41905205  0.41170737  0.56147454  1
  N  N60  1  0.22149857  0.87717878  0.31019636  1
  N  N61  1  0.11913196  0.75708120  0.06127916  1
  N  N62  1  0.87863694  0.87736058  0.87197041  1
  N  N63  1  0.77724404  0.76530867  0.61858035  1
  N  N64  1  0.57013226  0.86726929  0.36438308  1
  N  N65  1  0.42439094  0.75259802  0.05099241  1
  N  N66  1  0.21888669  0.86849609  0.80869445  1
  N  N67  1  0.12168051  0.75583330  0.56387553  1
  N  N68  1  0.89435679  0.86949456  0.37376298  1
  N  N69  1  0.81690774  0.74107959  0.13285697  1
  N  N70  1  0.55077778  0.87811598  0.85026907  1
  N  N71  1  0.41903616  0.80262113  0.56144261  1
