# generated using pymatgen
data_Gd5Al31N36
_symmetry_space_group_name_H-M   'P 1'
_cell_length_a   9.70957342
_cell_length_b   9.70293899
_cell_length_c   10.27748914
_cell_angle_alpha   89.99966033
_cell_angle_beta   90.33767511
_cell_angle_gamma   60.02076083
_symmetry_Int_Tables_number   1
_chemical_formula_structural   Gd5Al31N36
_chemical_formula_sum   'Gd5 Al31 N36'
_cell_volume   838.69076806
_cell_formula_units_Z   1
loop_
 _symmetry_equiv_pos_site_id
 _symmetry_equiv_pos_as_xyz
  1  'x, y, z'
loop_
 _atom_site_type_symbol
 _atom_site_label
 _atom_site_symmetry_multiplicity
 _atom_site_fract_x
 _atom_site_fract_y
 _atom_site_fract_z
 _atom_site_occupancy
  Al  Al0  1  0.11124663  0.08660007  0.40800500  1
  Al  Al1  1  0.78455858  0.08930095  0.89077520  1
  Al  Al2  1  0.89390397  0.20268609  0.65302427  1
  Al  Al3  1  0.44255920  0.09538919  0.42471896  1
  Al  Al4  1  0.11040062  0.09001086  0.89210154  1
  Al  Al5  1  0.21579858  0.20876858  0.64702690  1
  Al  Al6  1  0.78216549  0.08569515  0.40773500  1
  Al  Al7  1  0.90122767  0.18329823  0.14185508  1
  Al  Al8  1  0.44388729  0.09472492  0.88208995  1
  Al  Al9  1  0.55406882  0.20406610  0.64899528  1
  Al  Al10  1  0.11124728  0.43549139  0.40800452  1
  Al  Al11  1  0.21573847  0.54992354  0.14792478  1
  Al  Al12  1  0.78771230  0.42281336  0.90422505  1
  Al  Al13  1  0.89390377  0.53674740  0.65302448  1
  Al  Al14  1  0.43064548  0.43118394  0.40652031  1
  Al  Al15  1  0.54645235  0.54344099  0.10786737  1
  Al  Al16  1  0.11040156  0.43292554  0.89210158  1
  Al  Al17  1  0.21404918  0.54176730  0.64945419  1
  Al  Al18  1  0.90123003  0.54881113  0.14185494  1
  Al  Al19  1  0.43636274  0.42920971  0.89777193  1
  Al  Al20  1  0.11049809  0.76142032  0.39616038  1
  Al  Al21  1  0.21573760  0.86767347  0.14792461  1
  Al  Al22  1  0.78455888  0.75947953  0.89077523  1
  Al  Al23  1  0.89224218  0.87054766  0.64887005  1
  Al  Al24  1  0.43064551  0.77150797  0.40652023  1
  Al  Al25  1  0.11065798  0.76133980  0.89971617  1
  Al  Al26  1  0.21404965  0.87751886  0.64945411  1
  Al  Al27  1  0.78216626  0.76547844  0.40773462  1
  Al  Al28  1  0.90054548  0.86639585  0.14509927  1
  Al  Al29  1  0.43636229  0.76776522  0.89777171  1
  Al  Al30  1  0.55406970  0.87519977  0.64899566  1
  Gd  Gd31  1  0.21350499  0.20991340  0.15180400  1
  Gd  Gd32  1  0.56492173  0.20777428  0.15164598  1
  Gd  Gd33  1  0.77934730  0.42699755  0.37429968  1
  Gd  Gd34  1  0.55412201  0.53960471  0.65115489  1
  Gd  Gd35  1  0.56492308  0.86063359  0.15164500  1
  N  N36  1  0.21942583  0.20695471  0.37502567  1
  N  N37  1  0.10542699  0.07483054  0.07512954  1
  N  N38  1  0.88896137  0.20647591  0.83992753  1
  N  N39  1  0.78035198  0.09370888  0.59578223  1
  N  N40  1  0.55478308  0.20282410  0.37166225  1
  N  N41  1  0.44553296  0.09390184  0.06361350  1
  N  N42  1  0.21622259  0.20855590  0.83829128  1
  N  N43  1  0.10686043  0.09309704  0.59486292  1
  N  N44  1  0.90517510  0.16746070  0.32805747  1
  N  N45  1  0.80656731  0.07358102  0.07350250  1
  N  N46  1  0.55857412  0.20825886  0.83951151  1
  N  N47  1  0.44220382  0.09556759  0.60985983  1
  N  N48  1  0.21871302  0.53902792  0.33797396  1
  N  N49  1  0.10542985  0.45307982  0.07512995  1
  N  N50  1  0.88896222  0.53789836  0.83992845  1
  N  N51  1  0.80701573  0.41316340  0.59444399  1
  N  N52  1  0.51899485  0.55716928  0.35380024  1
  N  N53  1  0.42232719  0.45168370  0.08008093  1
  N  N54  1  0.21981062  0.54357949  0.83538190  1
  N  N55  1  0.10686051  0.43338198  0.59486315  1
  N  N56  1  0.90517658  0.56070049  0.32805617  1
  N  N57  1  0.78539936  0.42397117  0.10062669  1
  N  N58  1  0.56032453  0.53650514  0.87475687  1
  N  N59  1  0.42381589  0.41674718  0.59046847  1
  N  N60  1  0.21871300  0.87559502  0.33797414  1
  N  N61  1  0.11171821  0.76081046  0.08927520  1
  N  N62  1  0.89336980  0.86998312  0.83363588  1
  N  N63  1  0.78035254  0.75928047  0.59578210  1
  N  N64  1  0.55478362  0.87572677  0.37166131  1
  N  N65  1  0.42232535  0.75932889  0.08008074  1
  N  N66  1  0.21981062  0.86994445  0.83538140  1
  N  N67  1  0.11028727  0.76152624  0.58575995  1
  N  N68  1  0.88621554  0.87356075  0.33913362  1
  N  N69  1  0.80656770  0.75319413  0.07350237  1
  N  N70  1  0.55857432  0.86650149  0.83951184  1
  N  N71  1  0.42381747  0.79277490  0.59046891  1
