# generated using pymatgen
data_Gd5Al31N36
_symmetry_space_group_name_H-M   'P 1'
_cell_length_a   9.69557857
_cell_length_b   9.69424476
_cell_length_c   10.52328353
_cell_angle_alpha   90.13666203
_cell_angle_beta   89.73284879
_cell_angle_gamma   60.00692291
_symmetry_Int_Tables_number   1
_chemical_formula_structural   Gd5Al31N36
_chemical_formula_sum   'Gd5 Al31 N36'
_cell_volume   856.62105840
_cell_formula_units_Z   1
loop_
 _symmetry_equiv_pos_site_id
 _symmetry_equiv_pos_as_xyz
  1  'x, y, z'
loop_
 _atom_site_type_symbol
 _atom_site_label
 _atom_site_symmetry_multiplicity
 _atom_site_fract_x
 _atom_site_fract_y
 _atom_site_fract_z
 _atom_site_occupancy
  Al  Al0  1  0.12274432  0.08291601  0.41689140  1
  Al  Al1  1  0.77976274  0.08666982  0.88900698  1
  Al  Al2  1  0.89312851  0.20030743  0.59134037  1
  Al  Al3  1  0.44547932  0.09347788  0.42672072  1
  Al  Al4  1  0.11871280  0.08666356  0.88961745  1
  Al  Al5  1  0.22077592  0.20589519  0.65401926  1
  Al  Al6  1  0.77763530  0.08258639  0.41568541  1
  Al  Al7  1  0.89047284  0.20326828  0.05911685  1
  Al  Al8  1  0.44319724  0.09533003  0.89222040  1
  Al  Al9  1  0.55190413  0.20083721  0.65468347  1
  Al  Al10  1  0.12144823  0.42721819  0.41805158  1
  Al  Al11  1  0.21700483  0.54920301  0.14495953  1
  Al  Al12  1  0.79459402  0.41847251  0.82581658  1
  Al  Al13  1  0.89325993  0.53902857  0.59681091  1
  Al  Al14  1  0.43101660  0.42587415  0.41477790  1
  Al  Al15  1  0.55682877  0.53899605  0.05532195  1
  Al  Al16  1  0.11873644  0.42892247  0.88774703  1
  Al  Al17  1  0.21285236  0.54168514  0.65315155  1
  Al  Al18  1  0.88999425  0.54078195  0.05683293  1
  Al  Al19  1  0.43545076  0.42704561  0.89017507  1
  Al  Al20  1  0.11207860  0.76005908  0.39653413  1
  Al  Al21  1  0.21767547  0.86771341  0.14570028  1
  Al  Al22  1  0.77935656  0.76805200  0.88733866  1
  Al  Al23  1  0.89215364  0.87096489  0.65375981  1
  Al  Al24  1  0.43144456  0.77488089  0.41514678  1
  Al  Al25  1  0.11086371  0.76179820  0.90267000  1
  Al  Al26  1  0.21253783  0.87942481  0.65344238  1
  Al  Al27  1  0.77838300  0.77027440  0.41709700  1
  Al  Al28  1  0.89821659  0.86750412  0.14662809  1
  Al  Al29  1  0.43564012  0.77182252  0.89023261  1
  Al  Al30  1  0.55160701  0.88055598  0.65443610  1
  Gd  Gd31  1  0.20622909  0.21521831  0.15758323  1
  Gd  Gd32  1  0.56114336  0.21405558  0.15442765  1
  Gd  Gd33  1  0.77379351  0.42917858  0.33135631  1
  Gd  Gd34  1  0.54480846  0.54391514  0.62957864  1
  Gd  Gd35  1  0.56206224  0.85923920  0.15526850  1
  N  N36  1  0.22528382  0.20366552  0.37608458  1
  N  N37  1  0.10948141  0.07434312  0.07334397  1
  N  N38  1  0.89053469  0.20449763  0.87486672  1
  N  N39  1  0.77403778  0.08932038  0.60241358  1
  N  N40  1  0.55665807  0.20165403  0.37116428  1
  N  N41  1  0.44216889  0.09582744  0.07017309  1
  N  N42  1  0.22163633  0.20592706  0.83919094  1
  N  N43  1  0.11546219  0.09153351  0.60199193  1
  N  N44  1  0.90054074  0.18134413  0.40361610  1
  N  N45  1  0.80087598  0.07389467  0.07342646  1
  N  N46  1  0.55637392  0.20542882  0.84003927  1
  N  N47  1  0.44267258  0.09523156  0.60744470  1
  N  N48  1  0.22212552  0.53445763  0.33577247  1
  N  N49  1  0.10875146  0.45152008  0.07091412  1
  N  N50  1  0.89029335  0.53898538  0.87124293  1
  N  N51  1  0.80904560  0.41085426  0.64509589  1
  N  N52  1  0.52509966  0.55334493  0.39956885  1
  N  N53  1  0.42472438  0.45285817  0.07016751  1
  N  N54  1  0.21981586  0.54597825  0.83420033  1
  N  N55  1  0.11555210  0.42595855  0.60321774  1
  N  N56  1  0.90020674  0.54947179  0.40453253  1
  N  N57  1  0.77797576  0.42871030  0.10757196  1
  N  N58  1  0.56173396  0.53606114  0.86480025  1
  N  N59  1  0.42048119  0.40924701  0.59479229  1
  N  N60  1  0.22279820  0.87473748  0.33599549  1
  N  N61  1  0.11107413  0.76172394  0.08987796  1
  N  N62  1  0.89588670  0.86941135  0.83451593  1
  N  N63  1  0.77456766  0.76900936  0.60395130  1
  N  N64  1  0.55725328  0.87315480  0.37252134  1
  N  N65  1  0.42530129  0.75731947  0.07037568  1
  N  N66  1  0.21959225  0.86888126  0.83478164  1
  N  N67  1  0.11122089  0.76101121  0.58540104  1
  N  N68  1  0.88709233  0.87184999  0.33898945  1
  N  N69  1  0.80049113  0.75956464  0.07138811  1
  N  N70  1  0.55598497  0.87242118  0.83949584  1
  N  N71  1  0.42043463  0.80283640  0.59526987  1
