# generated using pymatgen
data_Gd5Al31N36
_symmetry_space_group_name_H-M   'P 1'
_cell_length_a   9.70472440
_cell_length_b   9.73818611
_cell_length_c   10.31887024
_cell_angle_alpha   90.11132043
_cell_angle_beta   90.25349172
_cell_angle_gamma   59.86296810
_symmetry_Int_Tables_number   1
_chemical_formula_structural   Gd5Al31N36
_chemical_formula_sum   'Gd5 Al31 N36'
_cell_volume   843.37057491
_cell_formula_units_Z   1
loop_
 _symmetry_equiv_pos_site_id
 _symmetry_equiv_pos_as_xyz
  1  'x, y, z'
loop_
 _atom_site_type_symbol
 _atom_site_label
 _atom_site_symmetry_multiplicity
 _atom_site_fract_x
 _atom_site_fract_y
 _atom_site_fract_z
 _atom_site_occupancy
  Al  Al0  1  0.11213003  0.08581646  0.40563051  1
  Al  Al1  1  0.78514069  0.08775644  0.89229941  1
  Al  Al2  1  0.89383598  0.19659500  0.65045364  1
  Al  Al3  1  0.44398589  0.09384052  0.42403576  1
  Al  Al4  1  0.11054924  0.08997495  0.89316349  1
  Al  Al5  1  0.21539777  0.20874692  0.64571896  1
  Al  Al6  1  0.78345667  0.08395510  0.40672483  1
  Al  Al7  1  0.89883962  0.18833754  0.14149925  1
  Al  Al8  1  0.44349783  0.09537248  0.88410255  1
  Al  Al9  1  0.55424475  0.20045085  0.65035442  1
  Al  Al10  1  0.11245957  0.43455713  0.40579727  1
  Al  Al11  1  0.21959767  0.54940539  0.14476719  1
  Al  Al12  1  0.79009205  0.42183192  0.84741587  1
  Al  Al13  1  0.89374065  0.54253244  0.65033715  1
  Al  Al14  1  0.42934547  0.42618999  0.41299007  1
  Al  Al15  1  0.56195811  0.53633265  0.06648986  1
  Al  Al16  1  0.11025628  0.43341846  0.89347416  1
  Al  Al17  1  0.21009273  0.54040375  0.64984275  1
  Al  Al18  1  0.89888074  0.54733022  0.14252192  1
  Al  Al19  1  0.43523133  0.42584422  0.89126152  1
  Al  Al20  1  0.11449554  0.75905466  0.39461176  1
  Al  Al21  1  0.21946463  0.86528298  0.14485217  1
  Al  Al22  1  0.78534150  0.76059384  0.89280883  1
  Al  Al23  1  0.89294077  0.86983578  0.64862070  1
  Al  Al24  1  0.42962697  0.77615663  0.41247900  1
  Al  Al25  1  0.11089957  0.76141876  0.89965519  1
  Al  Al26  1  0.21038041  0.88214339  0.64955136  1
  Al  Al27  1  0.78355377  0.76530818  0.40635721  1
  Al  Al28  1  0.90109007  0.86674821  0.14558693  1
  Al  Al29  1  0.43526664  0.77264863  0.89120106  1
  Al  Al30  1  0.55444077  0.87776553  0.65053841  1
  Gd  Gd31  1  0.21173255  0.21154859  0.15162420  1
  Gd  Gd32  1  0.56329890  0.21219066  0.15139045  1
  Gd  Gd33  1  0.77453861  0.42930788  0.37133731  1
  Gd  Gd34  1  0.53650087  0.54796230  0.63569674  1
  Gd  Gd35  1  0.56269690  0.86041237  0.15068252  1
  N  N36  1  0.22088142  0.20567291  0.37373755  1
  N  N37  1  0.10578954  0.07446233  0.07522230  1
  N  N38  1  0.89254317  0.19854650  0.83662332  1
  N  N39  1  0.78019513  0.09112279  0.59437414  1
  N  N40  1  0.55602677  0.20144724  0.37106315  1
  N  N41  1  0.44519819  0.09551890  0.06475640  1
  N  N42  1  0.21545691  0.20912173  0.83748839  1
  N  N43  1  0.10461119  0.09521483  0.59151346  1
  N  N44  1  0.90485190  0.16808893  0.33026717  1
  N  N45  1  0.80639308  0.07454999  0.07444900  1
  N  N46  1  0.55984050  0.20521569  0.83925179  1
  N  N47  1  0.44225106  0.09500957  0.60841795  1
  N  N48  1  0.22246876  0.53626468  0.33516025  1
  N  N49  1  0.10537733  0.45435217  0.07537723  1
  N  N50  1  0.89248480  0.54255794  0.83649456  1
  N  N51  1  0.80067847  0.41606569  0.62004165  1
  N  N52  1  0.51759500  0.55693140  0.39904661  1
  N  N53  1  0.42634238  0.45326336  0.07288804  1
  N  N54  1  0.21785826  0.54419049  0.83448648  1
  N  N55  1  0.10452779  0.43291154  0.59148205  1
  N  N56  1  0.90557096  0.55956052  0.33057299  1
  N  N57  1  0.78308207  0.42564505  0.11774571  1
  N  N58  1  0.56305174  0.53536005  0.86913803  1
  N  N59  1  0.41804450  0.40871067  0.59510257  1
  N  N60  1  0.22229289  0.87374880  0.33528999  1
  N  N61  1  0.11280639  0.76069440  0.08821601  1
  N  N62  1  0.89368554  0.86973803  0.83348047  1
  N  N63  1  0.78014805  0.76140274  0.59401525  1
  N  N64  1  0.55623334  0.87395952  0.37049307  1
  N  N65  1  0.42629144  0.75517434  0.07292557  1
  N  N66  1  0.21801465  0.87124792  0.83425163  1
  N  N67  1  0.11272437  0.75993734  0.58495666  1
  N  N68  1  0.88915201  0.87187620  0.33859924  1
  N  N69  1  0.80638225  0.75323416  0.07503902  1
  N  N70  1  0.55990449  0.86857875  0.83965717  1
  N  N71  1  0.41846457  0.80542505  0.59485295  1
