# generated using pymatgen
data_Gd5Al31N36
_symmetry_space_group_name_H-M   'P 1'
_cell_length_a   9.62555690
_cell_length_b   9.65454099
_cell_length_c   10.68791518
_cell_angle_alpha   89.70244062
_cell_angle_beta   89.44617591
_cell_angle_gamma   60.00073893
_symmetry_Int_Tables_number   1
_chemical_formula_structural   Gd5Al31N36
_chemical_formula_sum   'Gd5 Al31 N36'
_cell_volume   860.12987750
_cell_formula_units_Z   1
loop_
 _symmetry_equiv_pos_site_id
 _symmetry_equiv_pos_as_xyz
  1  'x, y, z'
loop_
 _atom_site_type_symbol
 _atom_site_label
 _atom_site_symmetry_multiplicity
 _atom_site_fract_x
 _atom_site_fract_y
 _atom_site_fract_z
 _atom_site_occupancy
  Al  Al0  1  0.11929997  0.08590256  0.39657553  1
  Al  Al1  1  0.77664650  0.08856939  0.79973401  1
  Al  Al2  1  0.89166204  0.19941098  0.56689986  1
  Al  Al3  1  0.44833506  0.09662331  0.32962683  1
  Al  Al4  1  0.11658141  0.08558241  0.86610909  1
  Al  Al5  1  0.21347539  0.21003088  0.62030143  1
  Al  Al6  1  0.78866378  0.08790992  0.31397694  1
  Al  Al7  1  0.88889824  0.19369161  0.04024232  1
  Al  Al8  1  0.44673985  0.09122671  0.78675507  1
  Al  Al9  1  0.55362857  0.20344753  0.55530093  1
  Al  Al10  1  0.12101968  0.43161018  0.39737986  1
  Al  Al11  1  0.20921199  0.55261998  0.12722485  1
  Al  Al12  1  0.79010950  0.41887298  0.80876102  1
  Al  Al13  1  0.89217900  0.54257223  0.56726934  1
  Al  Al14  1  0.43882336  0.43592001  0.30525552  1
  Al  Al15  1  0.55186089  0.53592807  0.03653974  1
  Al  Al16  1  0.11768519  0.42768703  0.86658330  1
  Al  Al17  1  0.20961613  0.54650594  0.63160005  1
  Al  Al18  1  0.89022307  0.54664812  0.04033029  1
  Al  Al19  1  0.44345473  0.41742638  0.79741389  1
  Al  Al20  1  0.11799518  0.75901260  0.37776794  1
  Al  Al21  1  0.21903333  0.86619535  0.11988923  1
  Al  Al22  1  0.77839569  0.76322693  0.79870159  1
  Al  Al23  1  0.88554808  0.87530310  0.55464275  1
  Al  Al24  1  0.43135018  0.77772570  0.36829554  1
  Al  Al25  1  0.11371445  0.75786116  0.88036026  1
  Al  Al26  1  0.21358295  0.87590530  0.63024478  1
  Al  Al27  1  0.79086613  0.75962562  0.31524541  1
  Al  Al28  1  0.89563846  0.86774263  0.06539923  1
  Al  Al29  1  0.43788910  0.76131487  0.83691162  1
  Al  Al30  1  0.55865460  0.87876721  0.56116936  1
  Gd  Gd31  1  0.18111421  0.22367656  0.14583652  1
  Gd  Gd32  1  0.55576561  0.20827367  0.05834075  1
  Gd  Gd33  1  0.77837116  0.43162702  0.29599981  1
  Gd  Gd34  1  0.56104244  0.53203660  0.57240161  1
  Gd  Gd35  1  0.56218184  0.87085669  0.05460804  1
  N  N36  1  0.21757374  0.20998052  0.35955501  1
  N  N37  1  0.11283894  0.06932880  0.04382058  1
  N  N38  1  0.88093620  0.19969137  0.85981778  1
  N  N39  1  0.77795634  0.09113612  0.61838285  1
  N  N40  1  0.55833777  0.21328330  0.37001464  1
  N  N41  1  0.43837806  0.09723742  0.15393198  1
  N  N42  1  0.21396805  0.20835637  0.80734308  1
  N  N43  1  0.11645502  0.08700309  0.57488966  1
  N  N44  1  0.89299631  0.18967462  0.38464709  1
  N  N45  1  0.80939695  0.07829167  0.13344011  1
  N  N46  1  0.55145727  0.19986752  0.84575399  1
  N  N47  1  0.44682608  0.09459623  0.60694582  1
  N  N48  1  0.20884186  0.54465936  0.31266737  1
  N  N49  1  0.11634717  0.44734498  0.04468617  1
  N  N50  1  0.88089672  0.54803900  0.86049275  1
  N  N51  1  0.81962444  0.40695557  0.63127263  1
  N  N52  1  0.52551568  0.55851800  0.36235765  1
  N  N53  1  0.43892442  0.45297505  0.12517726  1
  N  N54  1  0.21242507  0.54879204  0.81160256  1
  N  N55  1  0.11759185  0.42987129  0.57543597  1
  N  N56  1  0.89345959  0.55425736  0.38710524  1
  N  N57  1  0.78553651  0.42197347  0.08031954  1
  N  N58  1  0.55627914  0.52856911  0.84715450  1
  N  N59  1  0.43190487  0.40838834  0.62170169  1
  N  N60  1  0.21675953  0.88131915  0.31026437  1
  N  N61  1  0.11810108  0.75696563  0.06145661  1
  N  N62  1  0.87615069  0.87638653  0.87512396  1
  N  N63  1  0.78165236  0.76342408  0.61913544  1
  N  N64  1  0.56378540  0.87255219  0.37407304  1
  N  N65  1  0.42728267  0.75151632  0.05564058  1
  N  N66  1  0.21305798  0.86949338  0.80830729  1
  N  N67  1  0.11964091  0.75748816  0.56139548  1
  N  N68  1  0.88622370  0.87621779  0.37416432  1
  N  N69  1  0.81406236  0.73815257  0.13541429  1
  N  N70  1  0.55219603  0.87412822  0.83812672  1
  N  N71  1  0.42898258  0.79040181  0.58907428  1
