# generated using pymatgen
data_Gd5Al31N36
_symmetry_space_group_name_H-M   'P 1'
_cell_length_a   9.70026931
_cell_length_b   9.68129495
_cell_length_c   10.29548774
_cell_angle_alpha   89.99999608
_cell_angle_beta   89.66812414
_cell_angle_gamma   60.06469436
_symmetry_Int_Tables_number   1
_chemical_formula_structural   Gd5Al31N36
_chemical_formula_sum   'Gd5 Al31 N36'
_cell_volume   837.85303766
_cell_formula_units_Z   1
loop_
 _symmetry_equiv_pos_site_id
 _symmetry_equiv_pos_as_xyz
  1  'x, y, z'
loop_
 _atom_site_type_symbol
 _atom_site_label
 _atom_site_symmetry_multiplicity
 _atom_site_fract_x
 _atom_site_fract_y
 _atom_site_fract_z
 _atom_site_occupancy
  Al  Al0  1  0.11198271  0.08502907  0.30513798  1
  Al  Al1  1  0.77884438  0.09059426  0.78952367  1
  Al  Al2  1  0.89804401  0.19662999  0.55341321  1
  Al  Al3  1  0.44283672  0.09524825  0.31666376  1
  Al  Al4  1  0.11177723  0.09066997  0.78740983  1
  Al  Al5  1  0.21696186  0.20818571  0.54891177  1
  Al  Al6  1  0.78802376  0.08468441  0.30590103  1
  Al  Al7  1  0.89510411  0.19261733  0.04023518  1
  Al  Al8  1  0.44416389  0.09458470  0.77265265  1
  Al  Al9  1  0.55515068  0.20418997  0.54537254  1
  Al  Al10  1  0.11198273  0.43632145  0.30513799  1
  Al  Al11  1  0.21371075  0.55068152  0.05071274  1
  Al  Al12  1  0.78748640  0.42292346  0.80814137  1
  Al  Al13  1  0.89804402  0.53865934  0.55341322  1
  Al  Al14  1  0.43484811  0.43649150  0.29714196  1
  Al  Al15  1  0.54287598  0.54522866  0.03608326  1
  Al  Al16  1  0.11177724  0.43088608  0.78740983  1
  Al  Al17  1  0.21696817  0.54024639  0.54634875  1
  Al  Al18  1  0.89510410  0.54561184  0.04023518  1
  Al  Al19  1  0.43435497  0.42524576  0.79290538  1
  Al  Al20  1  0.11107879  0.76112722  0.29874323  1
  Al  Al21  1  0.21371072  0.86894104  0.05071273  1
  Al  Al22  1  0.77884437  0.76389467  0.78952367  1
  Al  Al23  1  0.89138741  0.87097296  0.54804706  1
  Al  Al24  1  0.43484808  0.76199364  0.29714195  1
  Al  Al25  1  0.10971145  0.76181090  0.79899819  1
  Al  Al26  1  0.21696815  0.87611873  0.54634875  1
  Al  Al27  1  0.78802376  0.76062509  0.30590104  1
  Al  Al28  1  0.90057469  0.86637929  0.05247581  1
  Al  Al29  1  0.43435494  0.77373258  0.79290539  1
  Al  Al30  1  0.55515065  0.87399269  0.54537254  1
  Gd  Gd31  1  0.21287238  0.21023046  0.04554395  1
  Gd  Gd32  1  0.56295657  0.20729143  0.05037167  1
  Gd  Gd33  1  0.78641036  0.42346146  0.28815677  1
  Gd  Gd34  1  0.55770653  0.53781342  0.56348456  1
  Gd  Gd35  1  0.56295657  0.86308532  0.05037167  1
  N  N36  1  0.21407182  0.20963072  0.35821702  1
  N  N37  1  0.09753959  0.08035695  0.11895439  1
  N  N38  1  0.89303624  0.19603706  0.85345859  1
  N  N39  1  0.77829119  0.09259119  0.60430978  1
  N  N40  1  0.55925310  0.20968975  0.35475528  1
  N  N41  1  0.44140501  0.09596414  0.13699986  1
  N  N42  1  0.22325098  0.20504116  0.82367993  1
  N  N43  1  0.11267554  0.08997493  0.60378500  1
  N  N44  1  0.90207873  0.17956709  0.37111594  1
  N  N45  1  0.80861800  0.07684868  0.11999996  1
  N  N46  1  0.55470474  0.20146845  0.83089729  1
  N  N47  1  0.44413334  0.09459998  0.58624782  1
  N  N48  1  0.22150031  0.54274036  0.35999720  1
  N  N49  1  0.09753959  0.45543672  0.11895439  1
  N  N50  1  0.89303625  0.54426003  0.85345859  1
  N  N51  1  0.81512175  0.40910577  0.61867423  1
  N  N52  1  0.53534800  0.54899263  0.34825791  1
  N  N53  1  0.42518380  0.45656297  0.11067145  1
  N  N54  1  0.21818619  0.54000274  0.85979964  1
  N  N55  1  0.11267557  0.43068278  0.60378500  1
  N  N56  1  0.90207875  0.55168745  0.37111595  1
  N  N57  1  0.77593642  0.42869840  0.06616238  1
  N  N58  1  0.54883337  0.54224999  0.84168956  1
  N  N59  1  0.42455594  0.41440107  0.61083793  1
  N  N60  1  0.22150031  0.86909259  0.35999720  1
  N  N61  1  0.11049214  0.76142056  0.10974557  1
  N  N62  1  0.88714362  0.87309485  0.85876457  1
  N  N63  1  0.77829118  0.76245091  0.60430978  1
  N  N64  1  0.55925308  0.86439044  0.35475529  1
  N  N65  1  0.42518379  0.75158652  0.11067144  1
  N  N66  1  0.21818617  0.87514438  0.85979964  1
  N  N67  1  0.11109810  0.76111757  0.60978741  1
  N  N68  1  0.89338261  0.86997533  0.36285790  1
  N  N69  1  0.80861800  0.74786654  0.11999997  1
  N  N70  1  0.55470473  0.87716013  0.83089728  1
  N  N71  1  0.42455589  0.79437633  0.61083793  1
