# generated using pymatgen
data_Gd5Al31N36
_symmetry_space_group_name_H-M   'P 1'
_cell_length_a   9.70996307
_cell_length_b   9.68682655
_cell_length_c   10.61506170
_cell_angle_alpha   89.41616796
_cell_angle_beta   88.86741009
_cell_angle_gamma   60.10004274
_symmetry_Int_Tables_number   1
_chemical_formula_structural   Gd5Al31N36
_chemical_formula_sum   'Gd5 Al31 N36'
_cell_volume   865.37490330
_cell_formula_units_Z   1
loop_
 _symmetry_equiv_pos_site_id
 _symmetry_equiv_pos_as_xyz
  1  'x, y, z'
loop_
 _atom_site_type_symbol
 _atom_site_label
 _atom_site_symmetry_multiplicity
 _atom_site_fract_x
 _atom_site_fract_y
 _atom_site_fract_z
 _atom_site_occupancy
  Al  Al0  1  0.12024921  0.08290783  0.39172643  1
  Al  Al1  1  0.77272912  0.09082607  0.79826972  1
  Al  Al2  1  0.89120991  0.20079891  0.56744537  1
  Al  Al3  1  0.45058436  0.09469253  0.32676399  1
  Al  Al4  1  0.10889039  0.08160445  0.86642240  1
  Al  Al5  1  0.22899669  0.20001582  0.56882587  1
  Al  Al6  1  0.78821287  0.08940038  0.31605205  1
  Al  Al7  1  0.88371578  0.19892724  0.04234477  1
  Al  Al8  1  0.44054394  0.09330038  0.78716768  1
  Al  Al9  1  0.55790084  0.20216739  0.55611885  1
  Al  Al10  1  0.12039434  0.43458345  0.39032090  1
  Al  Al11  1  0.20956824  0.54661471  0.13895932  1
  Al  Al12  1  0.77893887  0.42353200  0.81310468  1
  Al  Al13  1  0.88938345  0.54300599  0.56992553  1
  Al  Al14  1  0.44662633  0.43125168  0.30727668  1
  Al  Al15  1  0.54178376  0.54641181  0.04622547  1
  Al  Al16  1  0.10509755  0.42543224  0.81720503  1
  Al  Al17  1  0.21688994  0.54104100  0.62589550  1
  Al  Al18  1  0.88949606  0.54799963  0.03990128  1
  Al  Al19  1  0.44118051  0.42139128  0.79990459  1
  Al  Al20  1  0.10335381  0.76907342  0.31670864  1
  Al  Al21  1  0.21101352  0.87646260  0.13007205  1
  Al  Al22  1  0.77320793  0.76599061  0.79785636  1
  Al  Al23  1  0.88856080  0.87297084  0.55628393  1
  Al  Al24  1  0.44466516  0.76299769  0.30349298  1
  Al  Al25  1  0.09673996  0.76366079  0.80960441  1
  Al  Al26  1  0.21343576  0.88124404  0.63168544  1
  Al  Al27  1  0.78850462  0.76115365  0.31624655  1
  Al  Al28  1  0.90201689  0.86511223  0.06716380  1
  Al  Al29  1  0.44274734  0.76410624  0.80048245  1
  Al  Al30  1  0.55676526  0.87427349  0.55630298  1
  Gd  Gd31  1  0.21923668  0.20926591  0.07142883  1
  Gd  Gd32  1  0.56665013  0.20849543  0.05737595  1
  Gd  Gd33  1  0.79939876  0.42376746  0.29016954  1
  Gd  Gd34  1  0.55994417  0.53808368  0.55915893  1
  Gd  Gd35  1  0.56563786  0.86629671  0.05572762  1
  N  N36  1  0.22670579  0.20764907  0.37772478  1
  N  N37  1  0.10128549  0.06890034  0.04789794  1
  N  N38  1  0.87575326  0.20130157  0.85968996  1
  N  N39  1  0.77758916  0.09132774  0.61721833  1
  N  N40  1  0.56214516  0.20941176  0.37119405  1
  N  N41  1  0.45486857  0.09262094  0.15307926  1
  N  N42  1  0.21871725  0.20172499  0.84026980  1
  N  N43  1  0.11597982  0.08807464  0.57490131  1
  N  N44  1  0.89571243  0.18822583  0.38482716  1
  N  N45  1  0.80973843  0.07993088  0.13516947  1
  N  N46  1  0.54939498  0.20047249  0.84290920  1
  N  N47  1  0.44847115  0.09225621  0.60569422  1
  N  N48  1  0.22191355  0.54134613  0.33175769  1
  N  N49  1  0.09547990  0.45921103  0.08221111  1
  N  N50  1  0.88098879  0.54738256  0.85649258  1
  N  N51  1  0.81036049  0.41044057  0.63209984  1
  N  N52  1  0.54401260  0.54860215  0.35085453  1
  N  N53  1  0.43233317  0.45233440  0.12478745  1
  N  N54  1  0.21409544  0.53923624  0.81316028  1
  N  N55  1  0.11361029  0.42605517  0.59394653  1
  N  N56  1  0.89869222  0.55596111  0.39100561  1
  N  N57  1  0.77500303  0.42863358  0.07434459  1
  N  N58  1  0.54605839  0.54027920  0.85629309  1
  N  N59  1  0.43667408  0.41054533  0.61941324  1
  N  N60  1  0.21864223  0.88299629  0.31834509  1
  N  N61  1  0.10434056  0.76465842  0.12986987  1
  N  N62  1  0.87982790  0.87408810  0.87408350  1
  N  N63  1  0.77689795  0.76503807  0.61768839  1
  N  N64  1  0.56127466  0.86652293  0.37070647  1
  N  N65  1  0.43448143  0.75086444  0.11980908  1
  N  N66  1  0.21517516  0.87004295  0.81492710  1
  N  N67  1  0.10047206  0.76692853  0.61634612  1
  N  N68  1  0.88847513  0.87494542  0.37593135  1
  N  N69  1  0.80661631  0.74456511  0.13406754  1
  N  N70  1  0.55118559  0.87561831  0.84161641  1
  N  N71  1  0.43474904  0.78693598  0.62066732  1
