# generated using pymatgen
data_Gd5Al31N36
_symmetry_space_group_name_H-M   'P 1'
_cell_length_a   9.70477653
_cell_length_b   9.73077353
_cell_length_c   10.30699025
_cell_angle_alpha   90.06017695
_cell_angle_beta   90.33197707
_cell_angle_gamma   59.88859976
_symmetry_Int_Tables_number   1
_chemical_formula_structural   Gd5Al31N36
_chemical_formula_sum   'Gd5 Al31 N36'
_cell_volume   841.97365379
_cell_formula_units_Z   1
loop_
 _symmetry_equiv_pos_site_id
 _symmetry_equiv_pos_as_xyz
  1  'x, y, z'
loop_
 _atom_site_type_symbol
 _atom_site_label
 _atom_site_symmetry_multiplicity
 _atom_site_fract_x
 _atom_site_fract_y
 _atom_site_fract_z
 _atom_site_occupancy
  Al  Al0  1  0.11148725  0.08649769  0.40581224  1
  Al  Al1  1  0.78522199  0.08807069  0.89133044  1
  Al  Al2  1  0.89247292  0.20182595  0.65091150  1
  Al  Al3  1  0.44349261  0.09452567  0.42396904  1
  Al  Al4  1  0.11049397  0.08989117  0.89233930  1
  Al  Al5  1  0.21524953  0.20888108  0.64551626  1
  Al  Al6  1  0.78308590  0.08460074  0.40669787  1
  Al  Al7  1  0.90052105  0.18508534  0.14089316  1
  Al  Al8  1  0.44375767  0.09505359  0.88343333  1
  Al  Al9  1  0.55450177  0.20104007  0.64986792  1
  Al  Al10  1  0.11158023  0.43490812  0.40594289  1
  Al  Al11  1  0.21869076  0.54938716  0.14547464  1
  Al  Al12  1  0.79248125  0.42054592  0.88668510  1
  Al  Al13  1  0.89241258  0.53885477  0.65090817  1
  Al  Al14  1  0.42961420  0.42744982  0.41286276  1
  Al  Al15  1  0.55528332  0.53938033  0.06897479  1
  Al  Al16  1  0.11039376  0.43324615  0.89228660  1
  Al  Al17  1  0.21076179  0.54091535  0.64939927  1
  Al  Al18  1  0.90037421  0.54815984  0.14102457  1
  Al  Al19  1  0.43480662  0.42594195  0.89141408  1
  Al  Al20  1  0.11404888  0.75941011  0.39492781  1
  Al  Al21  1  0.21873531  0.86561146  0.14559157  1
  Al  Al22  1  0.78522423  0.76025732  0.89143361  1
  Al  Al23  1  0.89283353  0.87012062  0.64815364  1
  Al  Al24  1  0.42972188  0.77546029  0.41268994  1
  Al  Al25  1  0.11070954  0.76143364  0.89940393  1
  Al  Al26  1  0.21084054  0.88134597  0.64931494  1
  Al  Al27  1  0.78315732  0.76525928  0.40663514  1
  Al  Al28  1  0.90106178  0.86634554  0.14518294  1
  Al  Al29  1  0.43482431  0.77291173  0.89141656  1
  Al  Al30  1  0.55453234  0.87742771  0.64993796  1
  Gd  Gd31  1  0.21243114  0.21090215  0.15115373  1
  Gd  Gd32  1  0.56379113  0.21093624  0.15134200  1
  Gd  Gd33  1  0.77579279  0.42873404  0.37538972  1
  Gd  Gd34  1  0.54427321  0.54430114  0.63955215  1
  Gd  Gd35  1  0.56352172  0.86001184  0.15114662  1
  N  N36  1  0.22023002  0.20624725  0.37343605  1
  N  N37  1  0.10619384  0.07401495  0.07477476  1
  N  N38  1  0.89078894  0.20261849  0.83729257  1
  N  N39  1  0.78046209  0.09223166  0.59455000  1
  N  N40  1  0.55550723  0.20207152  0.37102888  1
  N  N41  1  0.44567770  0.09458960  0.06444297  1
  N  N42  1  0.21577033  0.20883696  0.83752022  1
  N  N43  1  0.10470055  0.09497097  0.59210441  1
  N  N44  1  0.90415514  0.16875071  0.32764103  1
  N  N45  1  0.80642491  0.07390920  0.07372133  1
  N  N46  1  0.55971846  0.20549010  0.83925465  1
  N  N47  1  0.44210289  0.09539633  0.60848445  1
  N  N48  1  0.22158802  0.53675552  0.33570560  1
  N  N49  1  0.10590660  0.45382490  0.07461692  1
  N  N50  1  0.89069917  0.54008032  0.83725583  1
  N  N51  1  0.80355179  0.41475218  0.60062076  1
  N  N52  1  0.51794011  0.55721954  0.39501799  1
  N  N53  1  0.42480138  0.45247279  0.07396510  1
  N  N54  1  0.21766243  0.54434386  0.83438105  1
  N  N55  1  0.10467739  0.43333149  0.59217547  1
  N  N56  1  0.90447106  0.55995182  0.32771803  1
  N  N57  1  0.78670828  0.42348885  0.09745696  1
  N  N58  1  0.56187183  0.53588442  0.87175101  1
  N  N59  1  0.41959223  0.41052179  0.59539354  1
  N  N60  1  0.22151814  0.87441763  0.33580976  1
  N  N61  1  0.11268500  0.76054054  0.08829183  1
  N  N62  1  0.89363742  0.86985607  0.83311173  1
  N  N63  1  0.78045604  0.76038436  0.59450592  1
  N  N64  1  0.55561517  0.87475314  0.37094185  1
  N  N65  1  0.42488892  0.75689028  0.07405077  1
  N  N66  1  0.21770006  0.87138795  0.83435382  1
  N  N67  1  0.11208045  0.76044028  0.58483941  1
  N  N68  1  0.88853056  0.87222745  0.33849220  1
  N  N69  1  0.80630970  0.75340277  0.07386543  1
  N  N70  1  0.55967527  0.86840455  0.83940317  1
  N  N71  1  0.41974029  0.80268239  0.59536058  1
