# generated using pymatgen
data_Gd5Al31N36
_symmetry_space_group_name_H-M   'P 1'
_cell_length_a   9.60442691
_cell_length_b   9.63693594
_cell_length_c   10.75981706
_cell_angle_alpha   90.00133691
_cell_angle_beta   89.58552202
_cell_angle_gamma   59.88248168
_symmetry_Int_Tables_number   1
_chemical_formula_structural   Gd5Al31N36
_chemical_formula_sum   'Gd5 Al31 N36'
_cell_volume   861.42050019
_cell_formula_units_Z   1
loop_
 _symmetry_equiv_pos_site_id
 _symmetry_equiv_pos_as_xyz
  1  'x, y, z'
loop_
 _atom_site_type_symbol
 _atom_site_label
 _atom_site_symmetry_multiplicity
 _atom_site_fract_x
 _atom_site_fract_y
 _atom_site_fract_z
 _atom_site_occupancy
  Al  Al0  1  0.12190353  0.08140097  0.39964778  1
  Al  Al1  1  0.77848218  0.09016827  0.79678637  1
  Al  Al2  1  0.88971045  0.20014055  0.56691098  1
  Al  Al3  1  0.44780378  0.09276529  0.32996437  1
  Al  Al4  1  0.11848960  0.08798494  0.86678811  1
  Al  Al5  1  0.21415887  0.20958464  0.62067094  1
  Al  Al6  1  0.78669509  0.08834726  0.31339783  1
  Al  Al7  1  0.88809401  0.19646349  0.03834369  1
  Al  Al8  1  0.44920272  0.09206734  0.78446044  1
  Al  Al9  1  0.55490977  0.20284576  0.55605257  1
  Al  Al10  1  0.12190523  0.43003167  0.39964786  1
  Al  Al11  1  0.21188355  0.54676065  0.12446080  1
  Al  Al12  1  0.78556736  0.42388458  0.80809176  1
  Al  Al13  1  0.88971011  0.54347813  0.56690990  1
  Al  Al14  1  0.44154325  0.42842639  0.30109775  1
  Al  Al15  1  0.54992409  0.54170236  0.04417529  1
  Al  Al16  1  0.11849051  0.42686161  0.86678756  1
  Al  Al17  1  0.21045586  0.54544165  0.63388187  1
  Al  Al18  1  0.88809592  0.54877231  0.03834357  1
  Al  Al19  1  0.44739866  0.42203893  0.79845629  1
  Al  Al20  1  0.10998639  0.76167558  0.34282048  1
  Al  Al21  1  0.21188063  0.87468452  0.12446218  1
  Al  Al22  1  0.77848239  0.76468512  0.79678715  1
  Al  Al23  1  0.89063441  0.87134785  0.55281893  1
  Al  Al24  1  0.44154076  0.76336582  0.30109727  1
  Al  Al25  1  0.11054004  0.76139973  0.86381269  1
  Al  Al26  1  0.21045721  0.87743104  0.63388084  1
  Al  Al27  1  0.78669808  0.75829316  0.31339661  1
  Al  Al28  1  0.89538407  0.86897267  0.06506883  1
  Al  Al29  1  0.44740041  0.76389871  0.79845604  1
  Al  Al30  1  0.55491145  0.87557164  0.55605205  1
  Gd  Gd31  1  0.17892116  0.22720519  0.14931436  1
  Gd  Gd32  1  0.55647626  0.20485062  0.05315469  1
  Gd  Gd33  1  0.78582177  0.42375853  0.29483567  1
  Gd  Gd34  1  0.55429446  0.53951217  0.55754044  1
  Gd  Gd35  1  0.55647459  0.87199375  0.05315594  1
  N  N36  1  0.21736866  0.20797777  0.36140783  1
  N  N37  1  0.11459366  0.07181049  0.04316983  1
  N  N38  1  0.88113220  0.20271074  0.85900632  1
  N  N39  1  0.77891156  0.08954585  0.61700529  1
  N  N40  1  0.55827898  0.20965407  0.37075659  1
  N  N41  1  0.43793155  0.09770391  0.15438480  1
  N  N42  1  0.21613979  0.20859305  0.80626077  1
  N  N43  1  0.11683006  0.08687646  0.57644400  1
  N  N44  1  0.89377096  0.18614589  0.38680925  1
  N  N45  1  0.80809111  0.08246928  0.13265158  1
  N  N46  1  0.55390275  0.20204270  0.84214981  1
  N  N47  1  0.44751008  0.09291496  0.60492007  1
  N  N48  1  0.21133778  0.53677870  0.30969476  1
  N  N49  1  0.11459566  0.44693023  0.04316915  1
  N  N50  1  0.88113227  0.54948540  0.85900858  1
  N  N51  1  0.81049465  0.41142407  0.63010082  1
  N  N52  1  0.52898650  0.55216997  0.35293002  1
  N  N53  1  0.43992012  0.44795636  0.12098663  1
  N  N54  1  0.21610808  0.54534620  0.81427857  1
  N  N55  1  0.11682981  0.42963152  0.57644577  1
  N  N56  1  0.89377600  0.55340999  0.38680669  1
  N  N57  1  0.78712860  0.42310716  0.08087764  1
  N  N58  1  0.55214212  0.54059422  0.85798952  1
  N  N59  1  0.43574778  0.41058428  0.62297179  1
  N  N60  1  0.21133455  0.88521108  0.30969534  1
  N  N61  1  0.11434540  0.75949568  0.08325551  1
  N  N62  1  0.87888065  0.87722528  0.87468443  1
  N  N63  1  0.77891272  0.76488354  0.61700582  1
  N  N64  1  0.55828122  0.86539218  0.37075519  1
  N  N65  1  0.43991732  0.74546315  0.12098798  1
  N  N66  1  0.21611035  0.87187030  0.81427620  1
  N  N67  1  0.11449868  0.75941980  0.57993031  1
  N  N68  1  0.88497460  0.87417720  0.37077735  1
  N  N69  1  0.80809213  0.74278299  0.13265099  1
  N  N70  1  0.55390270  0.87738487  0.84215095  1
  N  N71  1  0.43575039  0.78700651  0.62297120  1
