# generated using pymatgen
data_Gd5Al31N36
_symmetry_space_group_name_H-M   'P 1'
_cell_length_a   9.71179485
_cell_length_b   9.71653270
_cell_length_c   10.29017251
_cell_angle_alpha   90.00092631
_cell_angle_beta   90.44164204
_cell_angle_gamma   59.99519845
_symmetry_Int_Tables_number   1
_chemical_formula_structural   Gd5Al31N36
_chemical_formula_sum   'Gd5 Al31 N36'
_cell_volume   840.86431289
_cell_formula_units_Z   1
loop_
 _symmetry_equiv_pos_site_id
 _symmetry_equiv_pos_as_xyz
  1  'x, y, z'
loop_
 _atom_site_type_symbol
 _atom_site_label
 _atom_site_symmetry_multiplicity
 _atom_site_fract_x
 _atom_site_fract_y
 _atom_site_fract_z
 _atom_site_occupancy
  Al  Al0  1  0.11060228  0.08716338  0.40748954  1
  Al  Al1  1  0.78493214  0.08872962  0.89108073  1
  Al  Al2  1  0.89370180  0.20281656  0.65199392  1
  Al  Al3  1  0.44246878  0.09543960  0.42493331  1
  Al  Al4  1  0.11038586  0.09003929  0.89246779  1
  Al  Al5  1  0.21579307  0.20877785  0.64670295  1
  Al  Al6  1  0.78213844  0.08559084  0.40800839  1
  Al  Al7  1  0.90171870  0.18273403  0.14156846  1
  Al  Al8  1  0.44425823  0.09454680  0.88364862  1
  Al  Al9  1  0.55430890  0.20251173  0.65004805  1
  Al  Al10  1  0.11059223  0.43556566  0.40749244  1
  Al  Al11  1  0.21738070  0.54952373  0.14768466  1
  Al  Al12  1  0.79250227  0.42040556  0.89963667  1
  Al  Al13  1  0.89370021  0.53680624  0.65199165  1
  Al  Al14  1  0.42940731  0.42979285  0.41211687  1
  Al  Al15  1  0.55097148  0.54119512  0.07643733  1
  Al  Al16  1  0.11037434  0.43292017  0.89246699  1
  Al  Al17  1  0.21243758  0.54174092  0.65011782  1
  Al  Al18  1  0.90168933  0.54887579  0.14157091  1
  Al  Al19  1  0.43447195  0.42657987  0.89405423  1
  Al  Al20  1  0.11184647  0.76073917  0.39616168  1
  Al  Al21  1  0.21739034  0.86644038  0.14768675  1
  Al  Al22  1  0.78492560  0.75965746  0.89108028  1
  Al  Al23  1  0.89250349  0.87040902  0.64892989  1
  Al  Al24  1  0.42940779  0.77414525  0.41211838  1
  Al  Al25  1  0.11032703  0.76150429  0.90035186  1
  Al  Al26  1  0.21243212  0.87917119  0.65012009  1
  Al  Al27  1  0.78212678  0.76558752  0.40801282  1
  Al  Al28  1  0.90063554  0.86634273  0.14553453  1
  Al  Al29  1  0.43447479  0.77228968  0.89405790  1
  Al  Al30  1  0.55429839  0.87654140  0.65004740  1
  Gd  Gd31  1  0.21392006  0.20973009  0.15196228  1
  Gd  Gd32  1  0.56498012  0.20931029  0.15251042  1
  Gd  Gd33  1  0.77602926  0.42862617  0.37253273  1
  Gd  Gd34  1  0.55215564  0.54061271  0.64432515  1
  Gd  Gd35  1  0.56495933  0.85912199  0.15251738  1
  N  N36  1  0.21911771  0.20711828  0.37475803  1
  N  N37  1  0.10612433  0.07422320  0.07531803  1
  N  N38  1  0.88969401  0.20529033  0.83896675  1
  N  N39  1  0.78041628  0.09332942  0.59596105  1
  N  N40  1  0.55440305  0.20320773  0.37247454  1
  N  N41  1  0.44666275  0.09335413  0.06509715  1
  N  N42  1  0.21639967  0.20848226  0.83857439  1
  N  N43  1  0.10618530  0.09369128  0.59419164  1
  N  N44  1  0.90417041  0.16789644  0.32771082  1
  N  N45  1  0.80645429  0.07352973  0.07360516  1
  N  N46  1  0.55923157  0.20651158  0.83996917  1
  N  N47  1  0.44208523  0.09562443  0.60973163  1
  N  N48  1  0.21975353  0.53812765  0.33774650  1
  N  N49  1  0.10609225  0.45299840  0.07531535  1
  N  N50  1  0.88968360  0.53835926  0.83895979  1
  N  N51  1  0.80770021  0.41279447  0.59430667  1
  N  N52  1  0.51826593  0.55755454  0.38507402  1
  N  N53  1  0.42304360  0.45166972  0.07714216  1
  N  N54  1  0.21795160  0.54436556  0.83553417  1
  N  N55  1  0.10618330  0.43344643  0.59418987  1
  N  N56  1  0.90414889  0.56126642  0.32772263  1
  N  N57  1  0.78657128  0.42335795  0.09722433  1
  N  N58  1  0.56132469  0.53601812  0.87625444  1
  N  N59  1  0.42175693  0.41377520  0.59558792  1
  N  N60  1  0.21975641  0.87546231  0.33774586  1
  N  N61  1  0.11206483  0.76062986  0.08968517  1
  N  N62  1  0.89342724  0.86995482  0.83374931  1
  N  N63  1  0.78040771  0.75955391  0.59596346  1
  N  N64  1  0.55439506  0.87576507  0.37248174  1
  N  N65  1  0.42306190  0.75861322  0.07714558  1
  N  N66  1  0.21795123  0.87104201  0.83553917  1
  N  N67  1  0.11074683  0.76128553  0.58583740  1
  N  N68  1  0.88647375  0.87342581  0.33936614  1
  N  N69  1  0.80644191  0.75331001  0.07360741  1
  N  N70  1  0.55922537  0.86762767  0.83996941  1
  N  N71  1  0.42174314  0.79780888  0.59558465  1
