# generated using pymatgen
data_Gd5Al31N36
_symmetry_space_group_name_H-M   'P 1'
_cell_length_a   9.67983568
_cell_length_b   9.70154395
_cell_length_c   10.57553977
_cell_angle_alpha   90.20043579
_cell_angle_beta   89.59823646
_cell_angle_gamma   59.92502341
_symmetry_Int_Tables_number   1
_chemical_formula_structural   Gd5Al31N36
_chemical_formula_sum   'Gd5 Al31 N36'
_cell_volume   859.38638082
_cell_formula_units_Z   1
loop_
 _symmetry_equiv_pos_site_id
 _symmetry_equiv_pos_as_xyz
  1  'x, y, z'
loop_
 _atom_site_type_symbol
 _atom_site_label
 _atom_site_symmetry_multiplicity
 _atom_site_fract_x
 _atom_site_fract_y
 _atom_site_fract_z
 _atom_site_occupancy
  Al  Al0  1  0.12143803  0.08208312  0.39732770  1
  Al  Al1  1  0.77896690  0.08858249  0.79821618  1
  Al  Al2  1  0.88827506  0.20166605  0.56439311  1
  Al  Al3  1  0.44816211  0.09512162  0.32824102  1
  Al  Al4  1  0.11666453  0.08723024  0.86388990  1
  Al  Al5  1  0.21389680  0.20992329  0.61735309  1
  Al  Al6  1  0.79182236  0.08374441  0.31305054  1
  Al  Al7  1  0.88862151  0.19387282  0.04031734  1
  Al  Al8  1  0.44635492  0.08937076  0.78937183  1
  Al  Al9  1  0.55958320  0.19558971  0.55994232  1
  Al  Al10  1  0.12069134  0.42939462  0.39770227  1
  Al  Al11  1  0.22001399  0.54612661  0.12498293  1
  Al  Al12  1  0.79471640  0.41876008  0.80664898  1
  Al  Al13  1  0.88994238  0.54382305  0.56517505  1
  Al  Al14  1  0.43314818  0.42943689  0.37610880  1
  Al  Al15  1  0.55680506  0.53208908  0.03264945  1
  Al  Al16  1  0.11874603  0.42743228  0.86533758  1
  Al  Al17  1  0.20997641  0.54602329  0.62760422  1
  Al  Al18  1  0.89131317  0.54791125  0.03992695  1
  Al  Al19  1  0.44045851  0.42270224  0.81832330  1
  Al  Al20  1  0.12081784  0.75718618  0.37577310  1
  Al  Al21  1  0.21768461  0.86571105  0.11968019  1
  Al  Al22  1  0.77497431  0.76574740  0.80068934  1
  Al  Al23  1  0.88729948  0.87336524  0.55435935  1
  Al  Al24  1  0.42962920  0.77610991  0.37916174  1
  Al  Al25  1  0.11542461  0.75774147  0.87831486  1
  Al  Al26  1  0.21300291  0.87988062  0.62771284  1
  Al  Al27  1  0.79640685  0.75594636  0.31259914  1
  Al  Al28  1  0.89821174  0.86743960  0.06364711  1
  Al  Al29  1  0.43150846  0.76838452  0.86511385  1
  Al  Al30  1  0.55827698  0.88311252  0.55167504  1
  Gd  Gd31  1  0.17242560  0.22913380  0.14860382  1
  Gd  Gd32  1  0.55647421  0.20250136  0.05774266  1
  Gd  Gd33  1  0.77092677  0.43057007  0.30083017  1
  Gd  Gd34  1  0.55079386  0.55175429  0.59695469  1
  Gd  Gd35  1  0.56039701  0.86933532  0.07266503  1
  N  N36  1  0.22051270  0.20619006  0.36571502  1
  N  N37  1  0.11231469  0.06902848  0.04332749  1
  N  N38  1  0.88163133  0.20150516  0.85762609  1
  N  N39  1  0.78029860  0.08935766  0.61708453  1
  N  N40  1  0.56539021  0.20051679  0.37285778  1
  N  N41  1  0.42683515  0.10472038  0.15272910  1
  N  N42  1  0.21472827  0.20852121  0.80726841  1
  N  N43  1  0.11056146  0.09131838  0.57819971  1
  N  N44  1  0.89660270  0.18544798  0.38164906  1
  N  N45  1  0.81108028  0.07787882  0.13181971  1
  N  N46  1  0.55255777  0.20211596  0.83822836  1
  N  N47  1  0.44755260  0.09338201  0.60857630  1
  N  N48  1  0.21818049  0.53682086  0.31606401  1
  N  N49  1  0.11534981  0.44803814  0.04488798  1
  N  N50  1  0.88292888  0.54858053  0.85774851  1
  N  N51  1  0.81479184  0.41041116  0.62570414  1
  N  N52  1  0.52533838  0.55542671  0.37351566  1
  N  N53  1  0.43442105  0.45064412  0.08365922  1
  N  N54  1  0.21612162  0.54673250  0.80777022  1
  N  N55  1  0.11332554  0.43175062  0.57770212  1
  N  N56  1  0.89632559  0.55101016  0.38248051  1
  N  N57  1  0.78458631  0.42489731  0.08028470  1
  N  N58  1  0.55836513  0.53410232  0.83768566  1
  N  N59  1  0.42664995  0.41416119  0.58577845  1
  N  N60  1  0.21967814  0.87764945  0.30832015  1
  N  N61  1  0.11912835  0.75477205  0.06174626  1
  N  N62  1  0.87926755  0.87660105  0.87161581  1
  N  N63  1  0.77678178  0.76546635  0.61735535  1
  N  N64  1  0.56875947  0.86877171  0.36230926  1
  N  N65  1  0.42414079  0.75030427  0.04636828  1
  N  N66  1  0.21796090  0.86805208  0.80702947  1
  N  N67  1  0.11974892  0.75823508  0.56220374  1
  N  N68  1  0.89099803  0.87203921  0.37233320  1
  N  N69  1  0.81750975  0.73979400  0.13216234  1
  N  N70  1  0.55155936  0.87626577  0.84920195  1
  N  N71  1  0.41578623  0.80886055  0.55921884  1
