# generated using pymatgen
data_Gd5Al31N36
_symmetry_space_group_name_H-M   'P 1'
_cell_length_a   9.70490069
_cell_length_b   9.68538826
_cell_length_c   10.28543260
_cell_angle_alpha   89.99999166
_cell_angle_beta   90.13264479
_cell_angle_gamma   60.06650779
_symmetry_Int_Tables_number   1
_chemical_formula_structural   Gd5Al31N36
_chemical_formula_sum   'Gd5 Al31 N36'
_cell_volume   837.81945132
_cell_formula_units_Z   1
loop_
 _symmetry_equiv_pos_site_id
 _symmetry_equiv_pos_as_xyz
  1  'x, y, z'
loop_
 _atom_site_type_symbol
 _atom_site_label
 _atom_site_symmetry_multiplicity
 _atom_site_fract_x
 _atom_site_fract_y
 _atom_site_fract_z
 _atom_site_occupancy
  Al  Al0  1  0.11262521  0.08562496  0.41352900  1
  Al  Al1  1  0.78437480  0.08971423  0.89544740  1
  Al  Al2  1  0.89445640  0.20239962  0.65889321  1
  Al  Al3  1  0.44415744  0.09458782  0.42887665  1
  Al  Al4  1  0.11017753  0.09040657  0.89636390  1
  Al  Al5  1  0.21642551  0.20845378  0.65140797  1
  Al  Al6  1  0.78291547  0.08563162  0.41159670  1
  Al  Al7  1  0.89951679  0.18552688  0.14631548  1
  Al  Al8  1  0.44272862  0.09530223  0.88540919  1
  Al  Al9  1  0.55446527  0.20478109  0.65393576  1
  Al  Al10  1  0.11262519  0.43508284  0.41352901  1
  Al  Al11  1  0.21398236  0.55024900  0.15145660  1
  Al  Al12  1  0.78166419  0.42583443  0.91268654  1
  Al  Al13  1  0.89445637  0.53647707  0.65889321  1
  Al  Al14  1  0.43098973  0.42995366  0.40750208  1
  Al  Al15  1  0.53652311  0.54840501  0.14798110  1
  Al  Al16  1  0.11017752  0.43274899  0.89636391  1
  Al  Al17  1  0.21570434  0.54145542  0.65409325  1
  Al  Al18  1  0.89951673  0.54828937  0.14631550  1
  Al  Al19  1  0.43812116  0.43263376  0.90518642  1
  Al  Al20  1  0.11016247  0.76158527  0.40087555  1
  Al  Al21  1  0.21398240  0.86910170  0.15145659  1
  Al  Al22  1  0.78437479  0.75924403  0.89544740  1
  Al  Al23  1  0.89218394  0.87057458  0.65320478  1
  Al  Al24  1  0.43098973  0.77238969  0.40750209  1
  Al  Al25  1  0.11065211  0.76134047  0.90366370  1
  Al  Al26  1  0.21570436  0.87617328  0.65409327  1
  Al  Al27  1  0.78291542  0.76478594  0.41159672  1
  Al  Al28  1  0.90022767  0.86655268  0.14951748  1
  Al  Al29  1  0.43812121  0.76257814  0.90518642  1
  Al  Al30  1  0.55446525  0.87408677  0.65393577  1
  Gd  Gd31  1  0.21167471  0.21082920  0.15731312  1
  Gd  Gd32  1  0.56366322  0.20730781  0.15339440  1
  Gd  Gd33  1  0.78271872  0.42530709  0.38088699  1
  Gd  Gd34  1  0.55553047  0.53890133  0.65531305  1
  Gd  Gd35  1  0.56366320  0.86236217  0.15339442  1
  N  N36  1  0.22108634  0.20612338  0.38070731  1
  N  N37  1  0.10415769  0.07603347  0.07924754  1
  N  N38  1  0.88807869  0.20766688  0.84554127  1
  N  N39  1  0.78042875  0.09408540  0.59980548  1
  N  N40  1  0.55627701  0.20216529  0.37364159  1
  N  N41  1  0.44203003  0.09565156  0.06643895  1
  N  N42  1  0.21592687  0.20870314  0.84172305  1
  N  N43  1  0.10776666  0.09216442  0.60009641  1
  N  N44  1  0.90729236  0.16732047  0.33296910  1
  N  N45  1  0.80656391  0.07365374  0.07822968  1
  N  N46  1  0.55805183  0.20964438  0.84450942  1
  N  N47  1  0.44357565  0.09487872  0.61411723  1
  N  N48  1  0.21893641  0.53939538  0.34203069  1
  N  N49  1  0.10415763  0.45314192  0.07924756  1
  N  N50  1  0.88807868  0.53758755  0.84554126  1
  N  N51  1  0.80872216  0.41230543  0.59857016  1
  N  N52  1  0.51956998  0.55688159  0.34157476  1
  N  N53  1  0.42250450  0.45374363  0.08745682  1
  N  N54  1  0.22133179  0.54291935  0.84015506  1
  N  N55  1  0.10776664  0.43340196  0.60009641  1
  N  N56  1  0.90729228  0.55872024  0.33296914  1
  N  N57  1  0.78118530  0.42607381  0.10922266  1
  N  N58  1  0.55927917  0.53702698  0.87136189  1
  N  N59  1  0.42516835  0.41719933  0.59087180  1
  N  N60  1  0.21893644  0.87500127  0.34203068  1
  N  N61  1  0.11084366  0.76124469  0.09312776  1
  N  N62  1  0.89322211  0.87005550  0.83781691  1
  N  N63  1  0.78042873  0.75881888  0.59980549  1
  N  N64  1  0.55627699  0.87489086  0.37364161  1
  N  N65  1  0.42250458  0.75708493  0.08745682  1
  N  N66  1  0.22133182  0.86908197  0.84015507  1
  N  N67  1  0.11066147  0.76133577  0.59027659  1
  N  N68  1  0.88714335  0.87309484  0.34363244  1
  N  N69  1  0.80656390  0.75311534  0.07822968  1
  N  N70  1  0.55805184  0.86563694  0.84450943  1
  N  N71  1  0.42516835  0.79096539  0.59087182  1
