# generated using pymatgen
data_Gd5Al31N36
_symmetry_space_group_name_H-M   'P 1'
_cell_length_a   9.68691670
_cell_length_b   9.68053762
_cell_length_c   10.65099640
_cell_angle_alpha   89.66347998
_cell_angle_beta   89.18631735
_cell_angle_gamma   60.08230690
_symmetry_Int_Tables_number   1
_chemical_formula_structural   Gd5Al31N36
_chemical_formula_sum   'Gd5 Al31 N36'
_cell_volume   865.60805735
_cell_formula_units_Z   1
loop_
 _symmetry_equiv_pos_site_id
 _symmetry_equiv_pos_as_xyz
  1  'x, y, z'
loop_
 _atom_site_type_symbol
 _atom_site_label
 _atom_site_symmetry_multiplicity
 _atom_site_fract_x
 _atom_site_fract_y
 _atom_site_fract_z
 _atom_site_occupancy
  Al  Al0  1  0.11937997  0.08017978  0.39207932  1
  Al  Al1  1  0.77440289  0.09125121  0.79765331  1
  Al  Al2  1  0.89154080  0.20035851  0.56698315  1
  Al  Al3  1  0.45276800  0.09221851  0.32696260  1
  Al  Al4  1  0.11486847  0.08496776  0.87049256  1
  Al  Al5  1  0.22738897  0.20248535  0.57077219  1
  Al  Al6  1  0.78746483  0.08821734  0.31489440  1
  Al  Al7  1  0.88418236  0.19710020  0.04129763  1
  Al  Al8  1  0.43734208  0.09635320  0.78909248  1
  Al  Al9  1  0.55728891  0.20243768  0.55691454  1
  Al  Al10  1  0.11943762  0.43610407  0.39382068  1
  Al  Al11  1  0.21130286  0.54694962  0.13073075  1
  Al  Al12  1  0.78353316  0.42316132  0.81086396  1
  Al  Al13  1  0.89183082  0.54149509  0.56853569  1
  Al  Al14  1  0.44410590  0.43042486  0.30471076  1
  Al  Al15  1  0.54458711  0.54514321  0.04468143  1
  Al  Al16  1  0.11545840  0.42864933  0.86889725  1
  Al  Al17  1  0.21403144  0.53725157  0.63160281  1
  Al  Al18  1  0.88480060  0.55108264  0.04019448  1
  Al  Al19  1  0.44395535  0.42152340  0.79898396  1
  Al  Al20  1  0.10249674  0.76687697  0.31266710  1
  Al  Al21  1  0.21244315  0.87394269  0.12842046  1
  Al  Al22  1  0.77452689  0.76471453  0.79726638  1
  Al  Al23  1  0.88973001  0.87194319  0.55585702  1
  Al  Al24  1  0.44395475  0.76298547  0.30331310  1
  Al  Al25  1  0.09755847  0.76569952  0.80909849  1
  Al  Al26  1  0.21330427  0.88175834  0.63252661  1
  Al  Al27  1  0.78761427  0.76040056  0.31561488  1
  Al  Al28  1  0.90077884  0.86592888  0.06466248  1
  Al  Al29  1  0.44376794  0.76477332  0.79985503  1
  Al  Al30  1  0.55683098  0.87417133  0.55707616  1
  Gd  Gd31  1  0.19847022  0.21646074  0.11886035  1
  Gd  Gd32  1  0.56211274  0.20781650  0.05351043  1
  Gd  Gd33  1  0.79186811  0.42393149  0.29352388  1
  Gd  Gd34  1  0.55831737  0.53831990  0.55973175  1
  Gd  Gd35  1  0.56324244  0.86783723  0.05282021  1
  N  N36  1  0.22268907  0.20693669  0.36571109  1
  N  N37  1  0.10417579  0.06785023  0.04904410  1
  N  N38  1  0.87785441  0.20186474  0.85999899  1
  N  N39  1  0.77855351  0.09081723  0.61667845  1
  N  N40  1  0.56096979  0.20916579  0.37091001  1
  N  N41  1  0.45099149  0.09290438  0.15208530  1
  N  N42  1  0.22104898  0.20391835  0.84563058  1
  N  N43  1  0.11747942  0.08784845  0.57266452  1
  N  N44  1  0.89507296  0.18639393  0.38470235  1
  N  N45  1  0.80724393  0.08040866  0.13364958  1
  N  N46  1  0.55159371  0.20104623  0.84071688  1
  N  N47  1  0.44733842  0.09280823  0.60500361  1
  N  N48  1  0.21822901  0.53764349  0.31977475  1
  N  N49  1  0.10515670  0.45977564  0.04930379  1
  N  N50  1  0.87912006  0.54952752  0.85886488  1
  N  N51  1  0.81163902  0.41016506  0.63037691  1
  N  N52  1  0.53762333  0.55002138  0.35227253  1
  N  N53  1  0.43512863  0.45129909  0.12209846  1
  N  N54  1  0.21632529  0.54059262  0.81378906  1
  N  N55  1  0.11775087  0.42665572  0.57463464  1
  N  N56  1  0.89560460  0.55537130  0.38712862  1
  N  N57  1  0.78040890  0.42593826  0.07839335  1
  N  N58  1  0.54903021  0.54029679  0.85631086  1
  N  N59  1  0.43586252  0.41086774  0.61981511  1
  N  N60  1  0.21787673  0.88148113  0.31643168  1
  N  N61  1  0.10363838  0.76472081  0.12674141  1
  N  N62  1  0.88046066  0.87456854  0.87357388  1
  N  N63  1  0.77819603  0.76380925  0.61680571  1
  N  N64  1  0.56062686  0.86640315  0.37079519  1
  N  N65  1  0.43666491  0.74923580  0.11975346  1
  N  N66  1  0.21569724  0.87291573  0.81492966  1
  N  N67  1  0.10147977  0.76550832  0.61721228  1
  N  N68  1  0.88880235  0.87368578  0.37507471  1
  N  N69  1  0.80799131  0.74319354  0.13397132  1
  N  N70  1  0.55207357  0.87653624  0.84021855  1
  N  N71  1  0.43490609  0.78689696  0.62058232  1
