# generated using pymatgen
data_Gd5Al31N36
_symmetry_space_group_name_H-M   'P 1'
_cell_length_a   9.66629351
_cell_length_b   9.68667966
_cell_length_c   10.59700210
_cell_angle_alpha   90.16349706
_cell_angle_beta   89.60017190
_cell_angle_gamma   59.95368177
_symmetry_Int_Tables_number   1
_chemical_formula_structural   Gd5Al31N36
_chemical_formula_sum   'Gd5 Al31 N36'
_cell_volume   858.86207677
_cell_formula_units_Z   1
loop_
 _symmetry_equiv_pos_site_id
 _symmetry_equiv_pos_as_xyz
  1  'x, y, z'
loop_
 _atom_site_type_symbol
 _atom_site_label
 _atom_site_symmetry_multiplicity
 _atom_site_fract_x
 _atom_site_fract_y
 _atom_site_fract_z
 _atom_site_occupancy
  Al  Al0  1  0.12134693  0.08227751  0.39744420  1
  Al  Al1  1  0.77829108  0.08858018  0.79846321  1
  Al  Al2  1  0.88828218  0.20171909  0.56479236  1
  Al  Al3  1  0.44818913  0.09561724  0.32848818  1
  Al  Al4  1  0.11678730  0.08692270  0.86391785  1
  Al  Al5  1  0.21418520  0.20988744  0.61817280  1
  Al  Al6  1  0.79121089  0.08440013  0.31308928  1
  Al  Al7  1  0.88851255  0.19373204  0.03995336  1
  Al  Al8  1  0.44703330  0.08894017  0.78930440  1
  Al  Al9  1  0.55643589  0.20156646  0.55821851  1
  Al  Al10  1  0.12157433  0.42930830  0.39803807  1
  Al  Al11  1  0.21518042  0.54896024  0.12654569  1
  Al  Al12  1  0.79283838  0.41901190  0.80735019  1
  Al  Al13  1  0.89051562  0.54364647  0.56556662  1
  Al  Al14  1  0.43979008  0.43088459  0.32312309  1
  Al  Al15  1  0.55468854  0.53057619  0.03500721  1
  Al  Al16  1  0.11892279  0.42767618  0.86538886  1
  Al  Al17  1  0.20948242  0.54678879  0.62939450  1
  Al  Al18  1  0.89138754  0.54729960  0.03959004  1
  Al  Al19  1  0.44294653  0.41691418  0.79633118  1
  Al  Al20  1  0.12043106  0.75720722  0.37679433  1
  Al  Al21  1  0.21768892  0.86560278  0.11992349  1
  Al  Al22  1  0.77513107  0.76526496  0.80065002  1
  Al  Al23  1  0.88653712  0.87417424  0.55459568  1
  Al  Al24  1  0.42923491  0.77687327  0.37920582  1
  Al  Al25  1  0.11539320  0.75734928  0.87800897  1
  Al  Al26  1  0.21326881  0.87970517  0.62801799  1
  Al  Al27  1  0.79628899  0.75620491  0.31266843  1
  Al  Al28  1  0.89773789  0.86739750  0.06283967  1
  Al  Al29  1  0.43209552  0.76557611  0.86482688  1
  Al  Al30  1  0.55830765  0.88344799  0.55203862  1
  Gd  Gd31  1  0.17342920  0.22813176  0.14834065  1
  Gd  Gd32  1  0.55453272  0.20621539  0.05734777  1
  Gd  Gd33  1  0.77268218  0.43098637  0.30046190  1
  Gd  Gd34  1  0.55180229  0.54930542  0.59078201  1
  Gd  Gd35  1  0.56046381  0.86859080  0.07136864  1
  N  N36  1  0.22038358  0.20622589  0.36455355  1
  N  N37  1  0.11231444  0.06869912  0.04343696  1
  N  N38  1  0.88189433  0.20095924  0.85785921  1
  N  N39  1  0.77928300  0.09021021  0.61695324  1
  N  N40  1  0.56188874  0.20639158  0.37201635  1
  N  N41  1  0.42904018  0.10457780  0.15235746  1
  N  N42  1  0.21494550  0.20833555  0.80730987  1
  N  N43  1  0.11076951  0.09138606  0.57786008  1
  N  N44  1  0.89634110  0.18594462  0.38163088  1
  N  N45  1  0.80902238  0.07803511  0.13133261  1
  N  N46  1  0.55283365  0.20055764  0.84202230  1
  N  N47  1  0.44788089  0.09429840  0.60788090  1
  N  N48  1  0.21260782  0.53996379  0.31531798  1
  N  N49  1  0.11663104  0.44723150  0.04492446  1
  N  N50  1  0.88265422  0.54817697  0.85827674  1
  N  N51  1  0.81519520  0.41044337  0.62669000  1
  N  N52  1  0.52526259  0.55507563  0.37365986  1
  N  N53  1  0.44119967  0.45054556  0.12136440  1
  N  N54  1  0.21436054  0.54764303  0.81049227  1
  N  N55  1  0.11485261  0.43135332  0.57708824  1
  N  N56  1  0.89621571  0.55126238  0.38323363  1
  N  N57  1  0.78505121  0.42406134  0.08071454  1
  N  N58  1  0.55709726  0.53046488  0.84199122  1
  N  N59  1  0.43152509  0.41096482  0.61531512  1
  N  N60  1  0.21940876  0.87766475  0.30824935  1
  N  N61  1  0.11941562  0.75468686  0.06118376  1
  N  N62  1  0.87898582  0.87648866  0.87191770  1
  N  N63  1  0.77707170  0.76529111  0.61762210  1
  N  N64  1  0.56868716  0.86933071  0.36259691  1
  N  N65  1  0.42369367  0.74902154  0.04633161  1
  N  N66  1  0.21795182  0.86799222  0.80699315  1
  N  N67  1  0.11973421  0.75818798  0.56223096  1
  N  N68  1  0.89005160  0.87303275  0.37271498  1
  N  N69  1  0.81755578  0.73920049  0.13223237  1
  N  N70  1  0.55141951  0.87507441  0.84878108  1
  N  N71  1  0.41576860  0.80865180  0.55912656  1
