# generated using pymatgen
data_Gd5Al31N36
_symmetry_space_group_name_H-M   'P 1'
_cell_length_a   9.61686802
_cell_length_b   9.64401652
_cell_length_c   10.70831737
_cell_angle_alpha   89.69186746
_cell_angle_beta   89.45632653
_cell_angle_gamma   60.00070729
_symmetry_Int_Tables_number   1
_chemical_formula_structural   Gd5Al31N36
_chemical_formula_sum   'Gd5 Al31 N36'
_cell_volume   860.05632543
_cell_formula_units_Z   1
loop_
 _symmetry_equiv_pos_site_id
 _symmetry_equiv_pos_as_xyz
  1  'x, y, z'
loop_
 _atom_site_type_symbol
 _atom_site_label
 _atom_site_symmetry_multiplicity
 _atom_site_fract_x
 _atom_site_fract_y
 _atom_site_fract_z
 _atom_site_occupancy
  Al  Al0  1  0.11950503  0.08567104  0.39673625  1
  Al  Al1  1  0.77684921  0.08861828  0.79974411  1
  Al  Al2  1  0.89163528  0.19936325  0.56691726  1
  Al  Al3  1  0.44791662  0.09655916  0.33004714  1
  Al  Al4  1  0.11692855  0.08505457  0.86656326  1
  Al  Al5  1  0.21363560  0.20996039  0.62072800  1
  Al  Al6  1  0.78875132  0.08780546  0.31390818  1
  Al  Al7  1  0.88878893  0.19421941  0.04001520  1
  Al  Al8  1  0.44709745  0.09149909  0.78672096  1
  Al  Al9  1  0.55388629  0.20325035  0.55555015  1
  Al  Al10  1  0.12086659  0.43158654  0.39739193  1
  Al  Al11  1  0.20937732  0.55238391  0.12708039  1
  Al  Al12  1  0.78888273  0.41979161  0.80925988  1
  Al  Al13  1  0.89196472  0.54246200  0.56742242  1
  Al  Al14  1  0.43849272  0.43511281  0.30441997  1
  Al  Al15  1  0.54961996  0.53976313  0.03751748  1
  Al  Al16  1  0.11767653  0.42771664  0.86666697  1
  Al  Al17  1  0.20994867  0.54622432  0.63188829  1
  Al  Al18  1  0.89003948  0.54666669  0.04024534  1
  Al  Al19  1  0.44379825  0.41888000  0.79776890  1
  Al  Al20  1  0.11780059  0.75911305  0.37817966  1
  Al  Al21  1  0.21553384  0.86810404  0.12119216  1
  Al  Al22  1  0.77862197  0.76359576  0.79894230  1
  Al  Al23  1  0.88503975  0.87522766  0.55468784  1
  Al  Al24  1  0.43591079  0.77368477  0.33216304  1
  Al  Al25  1  0.11417480  0.75793301  0.88047434  1
  Al  Al26  1  0.21129627  0.87643939  0.63160419  1
  Al  Al27  1  0.79083004  0.75916573  0.31509449  1
  Al  Al28  1  0.89541997  0.86773600  0.06501079  1
  Al  Al29  1  0.44264366  0.76291685  0.80480465  1
  Al  Al30  1  0.55676571  0.87673281  0.56159495  1
  Gd  Gd31  1  0.18176357  0.22356396  0.14580738  1
  Gd  Gd32  1  0.55644500  0.20748386  0.05765621  1
  Gd  Gd33  1  0.77891470  0.43082282  0.29509759  1
  Gd  Gd34  1  0.56009695  0.53385383  0.56825754  1
  Gd  Gd35  1  0.56109466  0.87060899  0.05291117  1
  N  N36  1  0.21724512  0.21014952  0.35928111  1
  N  N37  1  0.11314187  0.06956622  0.04380827  1
  N  N38  1  0.88058757  0.20019107  0.85995603  1
  N  N39  1  0.77833574  0.09078054  0.61853554  1
  N  N40  1  0.55831874  0.21303756  0.37041449  1
  N  N41  1  0.43957164  0.09627525  0.15458574  1
  N  N42  1  0.21405269  0.20829915  0.80712713  1
  N  N43  1  0.11773734  0.08601980  0.57433903  1
  N  N44  1  0.89260441  0.19005127  0.38511730  1
  N  N45  1  0.81002465  0.07822876  0.13370925  1
  N  N46  1  0.55140457  0.20070681  0.84528411  1
  N  N47  1  0.44691524  0.09383435  0.60642697  1
  N  N48  1  0.20851028  0.54481559  0.31257458  1
  N  N49  1  0.11630998  0.44736835  0.04452191  1
  N  N50  1  0.88093788  0.54814193  0.86050263  1
  N  N51  1  0.81818691  0.40725704  0.63146029  1
  N  N52  1  0.52436232  0.55897000  0.36165327  1
  N  N53  1  0.43888075  0.45160734  0.12468017  1
  N  N54  1  0.21238180  0.54873849  0.81132320  1
  N  N55  1  0.11772838  0.42972865  0.57522600  1
  N  N56  1  0.89305645  0.55398647  0.38728875  1
  N  N57  1  0.78606975  0.42174137  0.08028809  1
  N  N58  1  0.55392554  0.53315657  0.84998449  1
  N  N59  1  0.43311100  0.40892826  0.62190047  1
  N  N60  1  0.21226065  0.88343716  0.31091978  1
  N  N61  1  0.11853480  0.75662952  0.06093595  1
  N  N62  1  0.87625539  0.87650787  0.87524469  1
  N  N63  1  0.78129227  0.76333091  0.61911749  1
  N  N64  1  0.56052027  0.87058533  0.37540039  1
  N  N65  1  0.43342937  0.74884281  0.08912427  1
  N  N66  1  0.21154075  0.87014519  0.81014885  1
  N  N67  1  0.12001832  0.75723509  0.56121229  1
  N  N68  1  0.88542930  0.87616849  0.37456254  1
  N  N69  1  0.81352964  0.73869423  0.13555404  1
  N  N70  1  0.55275359  0.87511548  0.83968046  1
  N  N71  1  0.43464259  0.78633003  0.61842667  1
