# generated using pymatgen
data_Gd5Al31N36
_symmetry_space_group_name_H-M   'P 1'
_cell_length_a   9.70874518
_cell_length_b   9.72359705
_cell_length_c   10.30112432
_cell_angle_alpha   90.02365872
_cell_angle_beta   90.44847458
_cell_angle_gamma   59.93081154
_symmetry_Int_Tables_number   1
_chemical_formula_structural   Gd5Al31N36
_chemical_formula_sum   'Gd5 Al31 N36'
_cell_volume   841.56028917
_cell_formula_units_Z   1
loop_
 _symmetry_equiv_pos_site_id
 _symmetry_equiv_pos_as_xyz
  1  'x, y, z'
loop_
 _atom_site_type_symbol
 _atom_site_label
 _atom_site_symmetry_multiplicity
 _atom_site_fract_x
 _atom_site_fract_y
 _atom_site_fract_z
 _atom_site_occupancy
  Al  Al0  1  0.11062096  0.08720778  0.40600060  1
  Al  Al1  1  0.78519994  0.08841997  0.89028490  1
  Al  Al2  1  0.89314977  0.20289922  0.65064428  1
  Al  Al3  1  0.44283621  0.09509276  0.42382908  1
  Al  Al4  1  0.11040556  0.09006707  0.89154797  1
  Al  Al5  1  0.21566734  0.20876370  0.64540210  1
  Al  Al6  1  0.78247130  0.08528281  0.40682566  1
  Al  Al7  1  0.90156414  0.18320165  0.14018068  1
  Al  Al8  1  0.44422891  0.09465122  0.88325695  1
  Al  Al9  1  0.55452178  0.20156281  0.64957083  1
  Al  Al10  1  0.11066001  0.43533078  0.40604454  1
  Al  Al11  1  0.21822287  0.54928512  0.14599873  1
  Al  Al12  1  0.79308141  0.42018360  0.89574580  1
  Al  Al13  1  0.89312661  0.53722749  0.65064607  1
  Al  Al14  1  0.42916440  0.42860886  0.41279078  1
  Al  Al15  1  0.55218463  0.54070796  0.07028648  1
  Al  Al16  1  0.11037607  0.43296937  0.89151209  1
  Al  Al17  1  0.21152440  0.54147075  0.64924928  1
  Al  Al18  1  0.90152267  0.54872944  0.14021036  1
  Al  Al19  1  0.43447480  0.42608910  0.89145295  1
  Al  Al20  1  0.11295415  0.76010021  0.39495271  1
  Al  Al21  1  0.21824187  0.86594721  0.14605127  1
  Al  Al22  1  0.78519882  0.75981944  0.89031530  1
  Al  Al23  1  0.89276349  0.87024579  0.64783901  1
  Al  Al24  1  0.42920445  0.77523544  0.41273509  1
  Al  Al25  1  0.11045400  0.76148865  0.89932429  1
  Al  Al26  1  0.21155797  0.88020935  0.64922586  1
  Al  Al27  1  0.78251664  0.76542966  0.40680726  1
  Al  Al28  1  0.90090741  0.86629343  0.14465377  1
  Al  Al29  1  0.43448581  0.77290740  0.89145619  1
  Al  Al30  1  0.55454139  0.87709383  0.64958885  1
  Gd  Gd31  1  0.21352922  0.21006285  0.15097298  1
  Gd  Gd32  1  0.56471761  0.21007429  0.15141203  1
  Gd  Gd33  1  0.77498563  0.42917945  0.37199651  1
  Gd  Gd34  1  0.54974114  0.54168868  0.64083176  1
  Gd  Gd35  1  0.56464039  0.85903405  0.15135694  1
  N  N36  1  0.21937230  0.20684938  0.37343170  1
  N  N37  1  0.10642024  0.07402545  0.07422136  1
  N  N38  1  0.88996251  0.20463359  0.83743150  1
  N  N39  1  0.78051798  0.09296093  0.59469961  1
  N  N40  1  0.55467272  0.20292617  0.37128722  1
  N  N41  1  0.44660890  0.09364040  0.06450208  1
  N  N42  1  0.21633844  0.20850502  0.83739348  1
  N  N43  1  0.10552381  0.09426122  0.59250635  1
  N  N44  1  0.90376345  0.16850585  0.32644685  1
  N  N45  1  0.80652893  0.07354181  0.07269177  1
  N  N46  1  0.55955084  0.20570134  0.83908665  1
  N  N47  1  0.44214778  0.09551510  0.60836588  1
  N  N48  1  0.22056628  0.53739586  0.33621228  1
  N  N49  1  0.10633130  0.45315130  0.07414443  1
  N  N50  1  0.88993109  0.53879055  0.83742099  1
  N  N51  1  0.80676048  0.41325121  0.59407406  1
  N  N52  1  0.51757847  0.55767240  0.39207781  1
  N  N53  1  0.42379620  0.45187295  0.07454481  1
  N  N54  1  0.21739957  0.54450761  0.83434258  1
  N  N55  1  0.10551558  0.43343136  0.59253330  1
  N  N56  1  0.90390107  0.56086992  0.32645646  1
  N  N57  1  0.78683787  0.42333243  0.09473363  1
  N  N58  1  0.56153143  0.53595693  0.87329122  1
  N  N59  1  0.42077836  0.41211211  0.59583194  1
  N  N60  1  0.22054178  0.87512754  0.33626002  1
  N  N61  1  0.11247505  0.76051820  0.08849561  1
  N  N62  1  0.89356182  0.86989150  0.83264739  1
  N  N63  1  0.78053119  0.75978853  0.59468710  1
  N  N64  1  0.55472518  0.87530266  0.37127797  1
  N  N65  1  0.42382748  0.75800974  0.07458601  1
  N  N66  1  0.21741654  0.87143306  0.83433981  1
  N  N67  1  0.11136045  0.76092407  0.58463536  1
  N  N68  1  0.88723963  0.87297568  0.33829114  1
  N  N69  1  0.80648928  0.75344734  0.07273682  1
  N  N70  1  0.55953776  0.86817242  0.83913293  1
  N  N71  1  0.42084368  0.80023377  0.59583334  1
