# generated using pymatgen
data_Gd5Al31N36
_symmetry_space_group_name_H-M   'P 1'
_cell_length_a   9.61022313
_cell_length_b   9.64399918
_cell_length_c   10.76435128
_cell_angle_alpha   89.99944329
_cell_angle_beta   89.58045314
_cell_angle_gamma   59.88505007
_symmetry_Int_Tables_number   1
_chemical_formula_structural   Gd5Al31N36
_chemical_formula_sum   'Gd5 Al31 N36'
_cell_volume   862.95743569
_cell_formula_units_Z   1
loop_
 _symmetry_equiv_pos_site_id
 _symmetry_equiv_pos_as_xyz
  1  'x, y, z'
loop_
 _atom_site_type_symbol
 _atom_site_label
 _atom_site_symmetry_multiplicity
 _atom_site_fract_x
 _atom_site_fract_y
 _atom_site_fract_z
 _atom_site_occupancy
  Al  Al0  1  0.12213779  0.08112829  0.39971983  1
  Al  Al1  1  0.77809662  0.09097107  0.79656621  1
  Al  Al2  1  0.88954737  0.20019594  0.56676014  1
  Al  Al3  1  0.44758587  0.09287346  0.33001184  1
  Al  Al4  1  0.11860516  0.08826205  0.86725832  1
  Al  Al5  1  0.21414374  0.20959524  0.62061507  1
  Al  Al6  1  0.78671106  0.08826730  0.31373369  1
  Al  Al7  1  0.88779015  0.19649945  0.03845729  1
  Al  Al8  1  0.44922153  0.09205516  0.78443644  1
  Al  Al9  1  0.55515714  0.20255142  0.55589711  1
  Al  Al10  1  0.12213699  0.43006593  0.39971975  1
  Al  Al11  1  0.21330419  0.54401202  0.12476007  1
  Al  Al12  1  0.78575420  0.42378882  0.80803104  1
  Al  Al13  1  0.88954750  0.54359050  0.56676054  1
  Al  Al14  1  0.44140376  0.42842772  0.30162777  1
  Al  Al15  1  0.55020911  0.54156256  0.04406052  1
  Al  Al16  1  0.11860500  0.42646462  0.86725850  1
  Al  Al17  1  0.21168076  0.54252348  0.63421922  1
  Al  Al18  1  0.88778953  0.54904409  0.03845722  1
  Al  Al19  1  0.44812438  0.42157043  0.79873181  1
  Al  Al20  1  0.10458402  0.76437387  0.31427348  1
  Al  Al21  1  0.21330536  0.87601797  0.12475937  1
  Al  Al22  1  0.77809636  0.76426445  0.79656584  1
  Al  Al23  1  0.89214876  0.87059238  0.55288110  1
  Al  Al24  1  0.44140435  0.76350106  0.30162778  1
  Al  Al25  1  0.10500329  0.76416366  0.83408678  1
  Al  Al26  1  0.21168029  0.87913005  0.63421971  1
  Al  Al27  1  0.78670988  0.75835397  0.31373423  1
  Al  Al28  1  0.89745736  0.86793814  0.06477613  1
  Al  Al29  1  0.44812369  0.76363717  0.79873206  1
  Al  Al30  1  0.55515651  0.87562608  0.55589742  1
  Gd  Gd31  1  0.17866757  0.22733257  0.14982272  1
  Gd  Gd32  1  0.55638404  0.20474169  0.05333489  1
  Gd  Gd33  1  0.78601719  0.42365722  0.29476997  1
  Gd  Gd34  1  0.55462277  0.53935731  0.55742764  1
  Gd  Gd35  1  0.55638459  0.87221114  0.05333428  1
  N  N36  1  0.21731036  0.20801256  0.36163714  1
  N  N37  1  0.11424924  0.07184668  0.04325232  1
  N  N38  1  0.88129965  0.20258554  0.85901248  1
  N  N39  1  0.77862971  0.08973807  0.61690353  1
  N  N40  1  0.55867773  0.20918767  0.37075568  1
  N  N41  1  0.43748456  0.09792330  0.15442592  1
  N  N42  1  0.21622589  0.20855453  0.80638837  1
  N  N43  1  0.11650582  0.08740064  0.57652399  1
  N  N44  1  0.89370917  0.18626398  0.38684408  1
  N  N45  1  0.80747528  0.08283021  0.13231003  1
  N  N46  1  0.55434495  0.20159322  0.84221802  1
  N  N47  1  0.44744759  0.09294172  0.60503022  1
  N  N48  1  0.21290806  0.53411556  0.31097866  1
  N  N49  1  0.11424863  0.44723703  0.04325265  1
  N  N50  1  0.88129980  0.54944858  0.85901173  1
  N  N51  1  0.81052474  0.41140254  0.63012279  1
  N  N52  1  0.52949192  0.55192134  0.35287096  1
  N  N53  1  0.44011789  0.44798193  0.12062926  1
  N  N54  1  0.21811624  0.54233168  0.81557630  1
  N  N55  1  0.11650597  0.42942532  0.57652345  1
  N  N56  1  0.89370743  0.55336122  0.38684501  1
  N  N57  1  0.78720414  0.42306280  0.08070206  1
  N  N58  1  0.55256120  0.54038605  0.85780926  1
  N  N59  1  0.43617264  0.41031213  0.62291522  1
  N  N60  1  0.21290887  0.88631096  0.31097843  1
  N  N61  1  0.10886812  0.76223194  0.11107297  1
  N  N62  1  0.88102439  0.87615418  0.87502831  1
  N  N63  1  0.77862920  0.76496267  0.61690327  1
  N  N64  1  0.55867693  0.86546972  0.37075624  1
  N  N65  1  0.44011885  0.74523143  0.12062861  1
  N  N66  1  0.21811530  0.87288722  0.81557736  1
  N  N67  1  0.10878461  0.76227342  0.60128787  1
  N  N68  1  0.88735595  0.87298880  0.37135601  1
  N  N69  1  0.80747488  0.74302395  0.13231022  1
  N  N70  1  0.55434494  0.87739506  0.84221749  1
  N  N71  1  0.43617152  0.78684681  0.62291554  1
