# generated using pymatgen
data_Gd5Al31N36
_symmetry_space_group_name_H-M   'P 1'
_cell_length_a   9.67846396
_cell_length_b   9.67736187
_cell_length_c   10.60312364
_cell_angle_alpha   90.00252051
_cell_angle_beta   88.72833898
_cell_angle_gamma   59.99678531
_symmetry_Int_Tables_number   1
_chemical_formula_structural   Gd5Al31N36
_chemical_formula_sum   'Gd5 Al31 N36'
_cell_volume   859.74739170
_cell_formula_units_Z   1
loop_
 _symmetry_equiv_pos_site_id
 _symmetry_equiv_pos_as_xyz
  1  'x, y, z'
loop_
 _atom_site_type_symbol
 _atom_site_label
 _atom_site_symmetry_multiplicity
 _atom_site_fract_x
 _atom_site_fract_y
 _atom_site_fract_z
 _atom_site_occupancy
  Al  Al0  1  0.12675786  0.08271518  0.41850160  1
  Al  Al1  1  0.78072909  0.08896541  0.82781363  1
  Al  Al2  1  0.89183002  0.20003782  0.59040632  1
  Al  Al3  1  0.45420017  0.08955694  0.42275865  1
  Al  Al4  1  0.11273960  0.08819064  0.89143305  1
  Al  Al5  1  0.21840392  0.20746238  0.65360302  1
  Al  Al6  1  0.79710603  0.08159023  0.34532326  1
  Al  Al7  1  0.88475405  0.19849227  0.06755923  1
  Al  Al8  1  0.43700585  0.09815837  0.88965637  1
  Al  Al9  1  0.54754330  0.20367577  0.65295344  1
  Al  Al10  1  0.12676637  0.42386187  0.41850360  1
  Al  Al11  1  0.21453686  0.55033420  0.14535311  1
  Al  Al12  1  0.79170470  0.42082171  0.83186307  1
  Al  Al13  1  0.89183074  0.54147148  0.59040282  1
  Al  Al14  1  0.43684701  0.42253035  0.41388812  1
  Al  Al15  1  0.55540697  0.53895882  0.05363875  1
  Al  Al16  1  0.11274400  0.43240895  0.89142929  1
  Al  Al17  1  0.21243409  0.54154023  0.65357667  1
  Al  Al18  1  0.88476431  0.55009760  0.06755773  1
  Al  Al19  1  0.43056518  0.42971631  0.88978920  1
  Al  Al20  1  0.12718505  0.75307727  0.40103284  1
  Al  Al21  1  0.21452996  0.86846755  0.14535614  1
  Al  Al22  1  0.78073202  0.76364729  0.82781414  1
  Al  Al23  1  0.88702940  0.87315614  0.58159581  1
  Al  Al24  1  0.43684656  0.77393995  0.41388692  1
  Al  Al25  1  0.11021400  0.76156509  0.90312198  1
  Al  Al26  1  0.21243769  0.87935869  0.65357403  1
  Al  Al27  1  0.79711461  0.75463978  0.34531770  1
  Al  Al28  1  0.89547621  0.86893480  0.09734241  1
  Al  Al29  1  0.43056278  0.77305008  0.88978771  1
  Al  Al30  1  0.54755044  0.88209489  0.65295244  1
  Gd  Gd31  1  0.19936278  0.21698719  0.15595124  1
  Gd  Gd32  1  0.55049771  0.21837035  0.14991732  1
  Gd  Gd33  1  0.77556350  0.42889220  0.32979449  1
  Gd  Gd34  1  0.54719796  0.54305364  0.63026690  1
  Gd  Gd35  1  0.55050317  0.86443321  0.14991646  1
  N  N36  1  0.23173781  0.20078806  0.37265259  1
  N  N37  1  0.10669520  0.07372374  0.07151869  1
  N  N38  1  0.87993838  0.20428766  0.88593253  1
  N  N39  1  0.78242979  0.08937790  0.64535820  1
  N  N40  1  0.56317180  0.20032884  0.36596503  1
  N  N41  1  0.43591987  0.09869771  0.06529060  1
  N  N42  1  0.21357831  0.20987052  0.83782404  1
  N  N43  1  0.11612306  0.09133998  0.60128069  1
  N  N44  1  0.90165260  0.18341816  0.40936028  1
  N  N45  1  0.81513065  0.07769171  0.16045067  1
  N  N46  1  0.54647294  0.21044398  0.83812025  1
  N  N47  1  0.44400324  0.09466302  0.60299364  1
  N  N48  1  0.22703824  0.53184904  0.33479813  1
  N  N49  1  0.10670623  0.45292712  0.07151317  1
  N  N50  1  0.87994237  0.54910501  0.88593514  1
  N  N51  1  0.81318803  0.41008848  0.65169645  1
  N  N52  1  0.52822890  0.55253331  0.40018454  1
  N  N53  1  0.42162837  0.45508227  0.06747131  1
  N  N54  1  0.21487383  0.54761372  0.83333456  1
  N  N55  1  0.11612436  0.42588281  0.60128453  1
  N  N56  1  0.90166473  0.54825100  0.40935360  1
  N  N57  1  0.77399986  0.42968916  0.10903791  1
  N  N58  1  0.55809855  0.53760631  0.86348205  1
  N  N59  1  0.42193233  0.40931462  0.59247528  1
  N  N60  1  0.22703477  0.87443381  0.33480117  1
  N  N61  1  0.11577449  0.75878696  0.08803262  1
  N  N62  1  0.87896185  0.87718647  0.89597319  1
  N  N63  1  0.78243675  0.76155214  0.64535865  1
  N  N64  1  0.56317686  0.86978737  0.36596459  1
  N  N65  1  0.42160968  0.75663719  0.06746723  1
  N  N66  1  0.21487424  0.87083579  0.83333073  1
  N  N67  1  0.12177614  0.75578608  0.58713960  1
  N  N68  1  0.89530030  0.86901394  0.39871372  1
  N  N69  1  0.81513369  0.74054742  0.16044790  1
  N  N70  1  0.54647690  0.87638589  0.83811745  1
  N  N71  1  0.42194042  0.80207888  0.59247750  1
