# generated using pymatgen
data_Gd5Al31N36
_symmetry_space_group_name_H-M   'P 1'
_cell_length_a   9.67878365
_cell_length_b   9.69145391
_cell_length_c   10.62117618
_cell_angle_alpha   89.72759810
_cell_angle_beta   88.70303795
_cell_angle_gamma   60.06525420
_symmetry_Int_Tables_number   1
_chemical_formula_structural   Gd5Al31N36
_chemical_formula_sum   'Gd5 Al31 N36'
_cell_volume   863.12660207
_cell_formula_units_Z   1
loop_
 _symmetry_equiv_pos_site_id
 _symmetry_equiv_pos_as_xyz
  1  'x, y, z'
loop_
 _atom_site_type_symbol
 _atom_site_label
 _atom_site_symmetry_multiplicity
 _atom_site_fract_x
 _atom_site_fract_y
 _atom_site_fract_z
 _atom_site_occupancy
  Al  Al0  1  0.12721047  0.08311635  0.41723655  1
  Al  Al1  1  0.77726504  0.09690765  0.82534225  1
  Al  Al2  1  0.89170404  0.20045459  0.58694834  1
  Al  Al3  1  0.45076712  0.09545887  0.42479623  1
  Al  Al4  1  0.11389498  0.08624563  0.89253333  1
  Al  Al5  1  0.21811584  0.20659804  0.65473149  1
  Al  Al6  1  0.79457129  0.08813901  0.34465588  1
  Al  Al7  1  0.88454147  0.19772443  0.06722548  1
  Al  Al8  1  0.43857526  0.09486245  0.89064950  1
  Al  Al9  1  0.54607791  0.20546664  0.65224690  1
  Al  Al10  1  0.12806233  0.42496011  0.41826429  1
  Al  Al11  1  0.21407134  0.54992576  0.14316180  1
  Al  Al12  1  0.79299743  0.41745064  0.83094481  1
  Al  Al13  1  0.89631655  0.53407129  0.59316568  1
  Al  Al14  1  0.43797578  0.42432999  0.41183406  1
  Al  Al15  1  0.55626458  0.53869320  0.05313335  1
  Al  Al16  1  0.11579769  0.42963638  0.88964763  1
  Al  Al17  1  0.21471210  0.54002708  0.65351001  1
  Al  Al18  1  0.88250264  0.55184518  0.05924619  1
  Al  Al19  1  0.43068078  0.43016064  0.89016573  1
  Al  Al20  1  0.12250089  0.75574787  0.40079288  1
  Al  Al21  1  0.21557922  0.86732185  0.14288833  1
  Al  Al22  1  0.77666754  0.75912149  0.82775858  1
  Al  Al23  1  0.89929413  0.86955504  0.64739672  1
  Al  Al24  1  0.43453082  0.77425667  0.41701134  1
  Al  Al25  1  0.10429372  0.76320979  0.90313542  1
  Al  Al26  1  0.21247434  0.87988227  0.65481910  1
  Al  Al27  1  0.78535001  0.76596678  0.40004766  1
  Al  Al28  1  0.90426937  0.85832798  0.16362740  1
  Al  Al29  1  0.43146898  0.77226561  0.88963656  1
  Al  Al30  1  0.54414840  0.88393747  0.64936391  1
  Gd  Gd31  1  0.19893936  0.21644461  0.15456873  1
  Gd  Gd32  1  0.54982132  0.21595356  0.14743027  1
  Gd  Gd33  1  0.77779824  0.43309129  0.32572715  1
  Gd  Gd34  1  0.54953602  0.54121966  0.62998827  1
  Gd  Gd35  1  0.54977379  0.86266491  0.16047222  1
  N  N36  1  0.23102037  0.20273212  0.37194150  1
  N  N37  1  0.10656870  0.07310055  0.07151366  1
  N  N38  1  0.88137905  0.20248085  0.88602442  1
  N  N39  1  0.77757740  0.09775282  0.64192090  1
  N  N40  1  0.56255625  0.20166737  0.36539591  1
  N  N41  1  0.43563892  0.09385009  0.06553481  1
  N  N42  1  0.21518851  0.20721135  0.83794681  1
  N  N43  1  0.11616068  0.09084156  0.59997962  1
  N  N44  1  0.90206750  0.18621099  0.40696291  1
  N  N45  1  0.81145506  0.08295958  0.15899191  1
  N  N46  1  0.54617170  0.21033485  0.83898927  1
  N  N47  1  0.44159254  0.09749096  0.60397684  1
  N  N48  1  0.22787305  0.53306825  0.33487598  1
  N  N49  1  0.10587332  0.45257748  0.06941741  1
  N  N50  1  0.88474140  0.54346909  0.87693112  1
  N  N51  1  0.81452002  0.40681464  0.65163424  1
  N  N52  1  0.53156942  0.55322595  0.39946348  1
  N  N53  1  0.42128202  0.45534330  0.06731617  1
  N  N54  1  0.21667902  0.54679841  0.83299024  1
  N  N55  1  0.11894597  0.42417561  0.60198591  1
  N  N56  1  0.90340070  0.54764936  0.41265807  1
  N  N57  1  0.77524657  0.42885915  0.10522417  1
  N  N58  1  0.55937888  0.53650038  0.86276261  1
  N  N59  1  0.42223467  0.41066396  0.59069456  1
  N  N60  1  0.22815776  0.87466245  0.33492798  1
  N  N61  1  0.10822714  0.76214109  0.08844197  1
  N  N62  1  0.89367469  0.86858429  0.83493854  1
  N  N63  1  0.77791586  0.76149593  0.62886339  1
  N  N64  1  0.56243114  0.87288460  0.37887630  1
  N  N65  1  0.42289087  0.75601300  0.06680033  1
  N  N66  1  0.21523733  0.87003197  0.83438622  1
  N  N67  1  0.11740188  0.75816093  0.58639791  1
  N  N68  1  0.90400364  0.86283455  0.35373201  1
  N  N69  1  0.80082121  0.74905369  0.12730843  1
  N  N70  1  0.54761440  0.87487249  0.83326058  1
  N  N71  1  0.42018084  0.80031554  0.59432406  1
