# generated using pymatgen
data_Gd5Al31N36
_symmetry_space_group_name_H-M   'P 1'
_cell_length_a   9.71954996
_cell_length_b   9.68538331
_cell_length_c   10.40436509
_cell_angle_alpha   89.88330431
_cell_angle_beta   89.26353822
_cell_angle_gamma   60.03354766
_symmetry_Int_Tables_number   1
_chemical_formula_structural   Gd5Al31N36
_chemical_formula_sum   'Gd5 Al31 N36'
_cell_volume   848.42695923
_cell_formula_units_Z   1
loop_
 _symmetry_equiv_pos_site_id
 _symmetry_equiv_pos_as_xyz
  1  'x, y, z'
loop_
 _atom_site_type_symbol
 _atom_site_label
 _atom_site_symmetry_multiplicity
 _atom_site_fract_x
 _atom_site_fract_y
 _atom_site_fract_z
 _atom_site_occupancy
  Al  Al0  1  0.11980357  0.08283332  0.39153909  1
  Al  Al1  1  0.77306883  0.09113740  0.80083613  1
  Al  Al2  1  0.89060968  0.20072477  0.57235474  1
  Al  Al3  1  0.44471448  0.09530278  0.32879173  1
  Al  Al4  1  0.10720377  0.09238120  0.82801918  1
  Al  Al5  1  0.22273528  0.21309221  0.56988806  1
  Al  Al6  1  0.79013379  0.08512046  0.31869088  1
  Al  Al7  1  0.89260747  0.19540310  0.04220285  1
  Al  Al8  1  0.44410965  0.09367561  0.78472234  1
  Al  Al9  1  0.55466544  0.20420692  0.55684694  1
  Al  Al10  1  0.11288005  0.43493965  0.31863967  1
  Al  Al11  1  0.21194466  0.55239728  0.06487142  1
  Al  Al12  1  0.78215209  0.42692368  0.81929025  1
  Al  Al13  1  0.89679003  0.53935064  0.56495229  1
  Al  Al14  1  0.43609787  0.43633041  0.30779011  1
  Al  Al15  1  0.54164243  0.54595501  0.04760364  1
  Al  Al16  1  0.10772100  0.43376373  0.79902147  1
  Al  Al17  1  0.21654576  0.53970834  0.55821036  1
  Al  Al18  1  0.89394255  0.54666592  0.05202366  1
  Al  Al19  1  0.43214742  0.42594205  0.80581911  1
  Al  Al20  1  0.10720556  0.75762949  0.31506427  1
  Al  Al21  1  0.21108638  0.87813452  0.13467462  1
  Al  Al22  1  0.77701526  0.76445930  0.80111017  1
  Al  Al23  1  0.88898864  0.87064534  0.55910939  1
  Al  Al24  1  0.44428334  0.75907391  0.30985722  1
  Al  Al25  1  0.10306646  0.75809596  0.81135846  1
  Al  Al26  1  0.21664817  0.87331728  0.62563863  1
  Al  Al27  1  0.78790648  0.75979591  0.31664816  1
  Al  Al28  1  0.90186040  0.86818970  0.06663165  1
  Al  Al29  1  0.44184848  0.76723686  0.80150439  1
  Al  Al30  1  0.55813305  0.87286849  0.55586731  1
  Gd  Gd31  1  0.22073139  0.21434090  0.05305038  1
  Gd  Gd32  1  0.56690722  0.20611742  0.06470968  1
  Gd  Gd33  1  0.79427523  0.41671402  0.29427401  1
  Gd  Gd34  1  0.56020898  0.53257516  0.56886993  1
  Gd  Gd35  1  0.56316179  0.86398391  0.05994404  1
  N  N36  1  0.21967491  0.21222524  0.37869366  1
  N  N37  1  0.10498030  0.07822450  0.06760285  1
  N  N38  1  0.88097640  0.20101754  0.85683610  1
  N  N39  1  0.77550967  0.09183479  0.61792058  1
  N  N40  1  0.56033298  0.21001043  0.36798912  1
  N  N41  1  0.44524128  0.09434110  0.15154677  1
  N  N42  1  0.22003126  0.20678138  0.82875181  1
  N  N43  1  0.11487544  0.09090751  0.59025962  1
  N  N44  1  0.89800466  0.18189450  0.38972218  1
  N  N45  1  0.81303423  0.07989649  0.13477629  1
  N  N46  1  0.55010356  0.20213271  0.84654865  1
  N  N47  1  0.44768637  0.09276350  0.60132242  1
  N  N48  1  0.22326940  0.54090939  0.37380340  1
  N  N49  1  0.09365367  0.45696247  0.13427546  1
  N  N50  1  0.89047506  0.54601035  0.86615582  1
  N  N51  1  0.81322177  0.41202664  0.63332066  1
  N  N52  1  0.54144244  0.54505909  0.35620324  1
  N  N53  1  0.42387602  0.45616137  0.12282157  1
  N  N54  1  0.21526920  0.53935742  0.87447466  1
  N  N55  1  0.10999448  0.43426631  0.61771933  1
  N  N56  1  0.90140203  0.55054927  0.38380833  1
  N  N57  1  0.77468150  0.42880381  0.07399764  1
  N  N58  1  0.54638256  0.54227213  0.85487961  1
  N  N59  1  0.42301433  0.41445302  0.62477181  1
  N  N60  1  0.21900164  0.87542078  0.32897580  1
  N  N61  1  0.10828295  0.75979340  0.12671708  1
  N  N62  1  0.88299991  0.87475196  0.87321751  1
  N  N63  1  0.77789426  0.76247591  0.61731150  1
  N  N64  1  0.56115523  0.86523164  0.36841351  1
  N  N65  1  0.43319112  0.74824271  0.12362366  1
  N  N66  1  0.21623987  0.87065402  0.81547658  1
  N  N67  1  0.10433840  0.75682240  0.62017707  1
  N  N68  1  0.89096924  0.87046779  0.37601221  1
  N  N69  1  0.80716175  0.74967440  0.13227922  1
  N  N70  1  0.55273091  0.87692433  0.84209167  1
  N  N71  1  0.43605087  0.78563510  0.61768756  1
