# generated using pymatgen
data_Gd5Al31N36
_symmetry_space_group_name_H-M   'P 1'
_cell_length_a   9.74355113
_cell_length_b   9.76240714
_cell_length_c   10.42462684
_cell_angle_alpha   90.00034898
_cell_angle_beta   89.04547707
_cell_angle_gamma   59.93446015
_symmetry_Int_Tables_number   1
_chemical_formula_structural   Gd5Al31N36
_chemical_formula_sum   'Gd5 Al31 N36'
_cell_volume   858.02044657
_cell_formula_units_Z   1
loop_
 _symmetry_equiv_pos_site_id
 _symmetry_equiv_pos_as_xyz
  1  'x, y, z'
loop_
 _atom_site_type_symbol
 _atom_site_label
 _atom_site_symmetry_multiplicity
 _atom_site_fract_x
 _atom_site_fract_y
 _atom_site_fract_z
 _atom_site_occupancy
  Al  Al0  1  0.12256716  0.08152795  0.42330440  1
  Al  Al1  1  0.77229834  0.09265226  0.82985708  1
  Al  Al2  1  0.89066004  0.19995523  0.59464744  1
  Al  Al3  1  0.44307920  0.09512682  0.38706903  1
  Al  Al4  1  0.11593836  0.08649960  0.88736432  1
  Al  Al5  1  0.22415323  0.20458922  0.64537585  1
  Al  Al6  1  0.80301802  0.07718276  0.33910812  1
  Al  Al7  1  0.88799696  0.19471860  0.06514688  1
  Al  Al8  1  0.44298916  0.09517213  0.86633693  1
  Al  Al9  1  0.56240774  0.19565659  0.58046456  1
  Al  Al10  1  0.12256800  0.42923841  0.42330458  1
  Al  Al11  1  0.21114949  0.55219007  0.14519942  1
  Al  Al12  1  0.79115258  0.42109078  0.83306961  1
  Al  Al13  1  0.89066043  0.54271659  0.59464716  1
  Al  Al14  1  0.43108411  0.43183114  0.40453532  1
  Al  Al15  1  0.55512354  0.53910385  0.06370883  1
  Al  Al16  1  0.11593870  0.43089589  0.88736392  1
  Al  Al17  1  0.21620401  0.53931000  0.65356044  1
  Al  Al18  1  0.88799746  0.55061761  0.06514647  1
  Al  Al19  1  0.43255331  0.42927258  0.89644440  1
  Al  Al20  1  0.12275469  0.75528956  0.40191601  1
  Al  Al21  1  0.21114898  0.86999264  0.14519972  1
  Al  Al22  1  0.77229833  0.76838299  0.82985715  1
  Al  Al23  1  0.88877998  0.87227607  0.58510916  1
  Al  Al24  1  0.43108383  0.77041750  0.40453497  1
  Al  Al25  1  0.11600843  0.75866294  0.90058708  1
  Al  Al26  1  0.21620409  0.87781845  0.65356008  1
  Al  Al27  1  0.80301861  0.75313272  0.33910776  1
  Al  Al28  1  0.89663550  0.86834853  0.08479955  1
  Al  Al29  1  0.43255330  0.77150757  0.89644479  1
  Al  Al30  1  0.56240810  0.87526639  0.58046420  1
  Gd  Gd31  1  0.17043967  0.23144680  0.16894720  1
  Gd  Gd32  1  0.55702904  0.21459106  0.12802912  1
  Gd  Gd33  1  0.77680425  0.42826533  0.33481576  1
  Gd  Gd34  1  0.54219446  0.54556811  0.63346700  1
  Gd  Gd35  1  0.55702916  0.86170959  0.12802898  1
  N  N36  1  0.21681522  0.20825748  0.38617997  1
  N  N37  1  0.10827113  0.07146740  0.06843439  1
  N  N38  1  0.88203174  0.20305512  0.88034591  1
  N  N39  1  0.77677765  0.09160337  0.64415503  1
  N  N40  1  0.56938542  0.20029399  0.37892924  1
  N  N41  1  0.41689180  0.10822138  0.14764141  1
  N  N42  1  0.22074571  0.20629272  0.83602805  1
  N  N43  1  0.11404662  0.09070446  0.60766872  1
  N  N44  1  0.90095187  0.18099624  0.40979137  1
  N  N45  1  0.82056449  0.07210680  0.15660857  1
  N  N46  1  0.55331367  0.20426219  0.88309254  1
  N  N47  1  0.44692406  0.09320539  0.59597193  1
  N  N48  1  0.22009283  0.53607964  0.33646351  1
  N  N49  1  0.10827185  0.45359567  0.06843394  1
  N  N50  1  0.88203207  0.54824445  0.88034629  1
  N  N51  1  0.80770035  0.41281788  0.64757830  1
  N  N52  1  0.52645521  0.55343683  0.39134918  1
  N  N53  1  0.41825831  0.46211314  0.07725689  1
  N  N54  1  0.22141245  0.54447097  0.83407175  1
  N  N55  1  0.11404711  0.42858359  0.60766915  1
  N  N56  1  0.90095310  0.55138275  0.40979055  1
  N  N57  1  0.77973926  0.42679859  0.11004943  1
  N  N58  1  0.55934539  0.53699264  0.86774957  1
  N  N59  1  0.42153133  0.41135158  0.58661267  1
  N  N60  1  0.22009228  0.87715885  0.33646375  1
  N  N61  1  0.11526863  0.75903297  0.08611411  1
  N  N62  1  0.88153175  0.87589997  0.89313056  1
  N  N63  1  0.77677812  0.76495409  0.64415500  1
  N  N64  1  0.56938568  0.86364971  0.37892916  1
  N  N65  1  0.41825692  0.75296405  0.07725699  1
  N  N66  1  0.22141293  0.86744745  0.83407130  1
  N  N67  1  0.12197765  0.75567854  0.59071045  1
  N  N68  1  0.89401635  0.86965755  0.40059467  1
  N  N69  1  0.82056426  0.74066573  0.15660831  1
  N  N70  1  0.55331380  0.87575423  0.88309307  1
  N  N71  1  0.42153207  0.80045145  0.58661264  1
