# generated using pymatgen
data_Gd5Al31N36
_symmetry_space_group_name_H-M   'P 1'
_cell_length_a   9.67105191
_cell_length_b   9.69118529
_cell_length_c   10.59035491
_cell_angle_alpha   90.18566134
_cell_angle_beta   89.61014431
_cell_angle_gamma   59.94573694
_symmetry_Int_Tables_number   1
_chemical_formula_structural   Gd5Al31N36
_chemical_formula_sum   'Gd5 Al31 N36'
_cell_volume   859.07516629
_cell_formula_units_Z   1
loop_
 _symmetry_equiv_pos_site_id
 _symmetry_equiv_pos_as_xyz
  1  'x, y, z'
loop_
 _atom_site_type_symbol
 _atom_site_label
 _atom_site_symmetry_multiplicity
 _atom_site_fract_x
 _atom_site_fract_y
 _atom_site_fract_z
 _atom_site_occupancy
  Al  Al0  1  0.12131181  0.08225436  0.39740485  1
  Al  Al1  1  0.77851841  0.08851098  0.79846772  1
  Al  Al2  1  0.88829630  0.20170353  0.56472719  1
  Al  Al3  1  0.44798060  0.09530642  0.32848243  1
  Al  Al4  1  0.11672742  0.08701608  0.86392171  1
  Al  Al5  1  0.21407817  0.20988004  0.61802044  1
  Al  Al6  1  0.79161355  0.08412050  0.31297426  1
  Al  Al7  1  0.88849889  0.19383982  0.04004941  1
  Al  Al8  1  0.44688117  0.08903443  0.78935169  1
  Al  Al9  1  0.55730917  0.20007114  0.55940001  1
  Al  Al10  1  0.12105534  0.42922141  0.39796831  1
  Al  Al11  1  0.21701686  0.54798223  0.12585949  1
  Al  Al12  1  0.79334877  0.41899590  0.80723472  1
  Al  Al13  1  0.89040384  0.54366088  0.56545602  1
  Al  Al14  1  0.43833962  0.42989578  0.33553796  1
  Al  Al15  1  0.55488485  0.53081204  0.03369619  1
  Al  Al16  1  0.11897200  0.42773159  0.86546698  1
  Al  Al17  1  0.20912138  0.54694123  0.62902535  1
  Al  Al18  1  0.89136616  0.54747035  0.03966731  1
  Al  Al19  1  0.44260722  0.41770959  0.79727198  1
  Al  Al20  1  0.12037404  0.75743748  0.37657028  1
  Al  Al21  1  0.21782240  0.86551702  0.11971967  1
  Al  Al22  1  0.77513543  0.76539848  0.80070947  1
  Al  Al23  1  0.88672389  0.87394414  0.55456393  1
  Al  Al24  1  0.42912899  0.77689925  0.37930096  1
  Al  Al25  1  0.11551453  0.75729368  0.87815443  1
  Al  Al26  1  0.21313832  0.87980905  0.62797934  1
  Al  Al27  1  0.79629515  0.75609498  0.31254782  1
  Al  Al28  1  0.89782834  0.86746485  0.06305648  1
  Al  Al29  1  0.43196397  0.76633303  0.86479191  1
  Al  Al30  1  0.55827778  0.88340387  0.55198088  1
  Gd  Gd31  1  0.17319004  0.22840078  0.14831915  1
  Gd  Gd32  1  0.55478045  0.20554167  0.05702910  1
  Gd  Gd33  1  0.77199984  0.43088308  0.30025884  1
  Gd  Gd34  1  0.55192417  0.55032964  0.59262100  1
  Gd  Gd35  1  0.56045664  0.86891170  0.07160805  1
  N  N36  1  0.22033474  0.20620216  0.36487789  1
  N  N37  1  0.11228065  0.06877042  0.04343274  1
  N  N38  1  0.88184817  0.20110197  0.85776596  1
  N  N39  1  0.77973162  0.08984753  0.61697770  1
  N  N40  1  0.56256143  0.20482460  0.37309201  1
  N  N41  1  0.42847324  0.10468288  0.15261641  1
  N  N42  1  0.21488103  0.20840954  0.80730806  1
  N  N43  1  0.11067205  0.09137858  0.57790886  1
  N  N44  1  0.89630923  0.18593789  0.38158240  1
  N  N45  1  0.80946399  0.07810098  0.13152917  1
  N  N46  1  0.55284510  0.20091739  0.84078649  1
  N  N47  1  0.44772420  0.09404056  0.60800543  1
  N  N48  1  0.21374866  0.53920140  0.31592594  1
  N  N49  1  0.11626200  0.44750141  0.04504343  1
  N  N50  1  0.88278144  0.54831661  0.85810489  1
  N  N51  1  0.81536907  0.41033283  0.62640572  1
  N  N52  1  0.52519470  0.55521182  0.37428675  1
  N  N53  1  0.43992475  0.45045410  0.11311672  1
  N  N54  1  0.21451497  0.54758804  0.80988343  1
  N  N55  1  0.11452504  0.43142473  0.57710134  1
  N  N56  1  0.89609882  0.55112265  0.38290438  1
  N  N57  1  0.78498334  0.42432170  0.08044321  1
  N  N58  1  0.55734153  0.53148834  0.84039529  1
  N  N59  1  0.43101509  0.41157240  0.61203123  1
  N  N60  1  0.21946613  0.87760963  0.30828079  1
  N  N61  1  0.11927891  0.75471983  0.06145870  1
  N  N62  1  0.87910785  0.87651151  0.87185338  1
  N  N63  1  0.77699757  0.76529758  0.61749429  1
  N  N64  1  0.56872085  0.86907957  0.36252018  1
  N  N65  1  0.42389515  0.74943867  0.04616812  1
  N  N66  1  0.21790804  0.86805281  0.80699332  1
  N  N67  1  0.11968605  0.75827440  0.56213144  1
  N  N68  1  0.89020907  0.87279513  0.37258829  1
  N  N69  1  0.81750654  0.73940899  0.13221007  1
  N  N70  1  0.55148879  0.87541172  0.84879964  1
  N  N71  1  0.41558565  0.80900232  0.55909387  1
