# generated using pymatgen
data_Gd5Al31N36
_symmetry_space_group_name_H-M   'P 1'
_cell_length_a   9.68116492
_cell_length_b   9.69268635
_cell_length_c   10.63123802
_cell_angle_alpha   89.82629216
_cell_angle_beta   88.69050189
_cell_angle_gamma   60.01119499
_symmetry_Int_Tables_number   1
_chemical_formula_structural   Gd5Al31N36
_chemical_formula_sum   'Gd5 Al31 N36'
_cell_volume   863.77653582
_cell_formula_units_Z   1
loop_
 _symmetry_equiv_pos_site_id
 _symmetry_equiv_pos_as_xyz
  1  'x, y, z'
loop_
 _atom_site_type_symbol
 _atom_site_label
 _atom_site_symmetry_multiplicity
 _atom_site_fract_x
 _atom_site_fract_y
 _atom_site_fract_z
 _atom_site_occupancy
  Al  Al0  1  0.12791047  0.08268984  0.41752374  1
  Al  Al1  1  0.77721056  0.09715081  0.82556505  1
  Al  Al2  1  0.89207300  0.20073887  0.58789379  1
  Al  Al3  1  0.45310584  0.09245798  0.42433968  1
  Al  Al4  1  0.11358370  0.08693895  0.89210407  1
  Al  Al5  1  0.21779319  0.20741814  0.65426323  1
  Al  Al6  1  0.79457145  0.08777505  0.34605712  1
  Al  Al7  1  0.88408449  0.19866165  0.06666948  1
  Al  Al8  1  0.43734590  0.09641795  0.89012680  1
  Al  Al9  1  0.54638399  0.20502685  0.65203641  1
  Al  Al10  1  0.12818563  0.42440651  0.41822321  1
  Al  Al11  1  0.21448502  0.55013121  0.14366955  1
  Al  Al12  1  0.79289571  0.41921530  0.83118780  1
  Al  Al13  1  0.89330103  0.53938328  0.59006674  1
  Al  Al14  1  0.43769186  0.42398556  0.41278627  1
  Al  Al15  1  0.55612730  0.53823613  0.05289180  1
  Al  Al16  1  0.11396426  0.43137773  0.89100430  1
  Al  Al17  1  0.21402629  0.54002819  0.65350015  1
  Al  Al18  1  0.88274766  0.55168130  0.06495376  1
  Al  Al19  1  0.43022887  0.43021235  0.88983242  1
  Al  Al20  1  0.12295234  0.75576463  0.40150644  1
  Al  Al21  1  0.21459614  0.86773850  0.14311393  1
  Al  Al22  1  0.77653397  0.75844381  0.82455149  1
  Al  Al23  1  0.89756100  0.86831937  0.64673079  1
  Al  Al24  1  0.43612328  0.77395165  0.41596846  1
  Al  Al25  1  0.10405155  0.76391573  0.90206298  1
  Al  Al26  1  0.21275962  0.87995443  0.65432625  1
  Al  Al27  1  0.79229073  0.75557400  0.35528972  1
  Al  Al28  1  0.90788101  0.86097285  0.16413069  1
  Al  Al29  1  0.43053982  0.77243735  0.88937171  1
  Al  Al30  1  0.54638454  0.88244648  0.65005631  1
  Gd  Gd31  1  0.19806052  0.21750748  0.15517138  1
  Gd  Gd32  1  0.54881359  0.21752773  0.14902229  1
  Gd  Gd33  1  0.77722946  0.43060378  0.32698924  1
  Gd  Gd34  1  0.54967949  0.54152529  0.62993888  1
  Gd  Gd35  1  0.54574169  0.86487613  0.15600855  1
  N  N36  1  0.23213242  0.20176984  0.37181023  1
  N  N37  1  0.10648274  0.07344267  0.07142491  1
  N  N38  1  0.88101568  0.20381612  0.88591769  1
  N  N39  1  0.77811034  0.09730373  0.64233196  1
  N  N40  1  0.56313632  0.20125192  0.36624384  1
  N  N41  1  0.43493246  0.09623998  0.06523363  1
  N  N42  1  0.21378699  0.20899265  0.83789886  1
  N  N43  1  0.11652110  0.09095781  0.60007753  1
  N  N44  1  0.90265451  0.18519244  0.40784931  1
  N  N45  1  0.81045037  0.08423097  0.15810717  1
  N  N46  1  0.54574112  0.21066167  0.83863643  1
  N  N47  1  0.44249038  0.09624668  0.60375491  1
  N  N48  1  0.22818639  0.53266739  0.33476571  1
  N  N49  1  0.10568200  0.45356205  0.07061260  1
  N  N50  1  0.88151487  0.54688020  0.88376601  1
  N  N51  1  0.81520616  0.40833573  0.65177007  1
  N  N52  1  0.53102719  0.55266242  0.40006511  1
  N  N53  1  0.42106670  0.45541302  0.06700962  1
  N  N54  1  0.21577913  0.54702995  0.83311573  1
  N  N55  1  0.11748455  0.42522127  0.60114796  1
  N  N56  1  0.90321298  0.54754729  0.41051436  1
  N  N57  1  0.77442463  0.42917827  0.10693312  1
  N  N58  1  0.55901948  0.53672349  0.86293085  1
  N  N59  1  0.42211290  0.41061909  0.59133392  1
  N  N60  1  0.22876512  0.87431588  0.33457588  1
  N  N61  1  0.10846843  0.76184719  0.08697233  1
  N  N62  1  0.89247216  0.86976122  0.83804716  1
  N  N63  1  0.77846504  0.75842568  0.64055039  1
  N  N64  1  0.56290998  0.87165167  0.37304738  1
  N  N65  1  0.42140973  0.75557053  0.06654453  1
  N  N66  1  0.21495148  0.87045866  0.83387250  1
  N  N67  1  0.11711439  0.75830034  0.58681502  1
  N  N68  1  0.90723394  0.86375156  0.35210424  1
  N  N69  1  0.80657599  0.73966869  0.15700024  1
  N  N70  1  0.54580125  0.87601903  0.83620939  1
  N  N71  1  0.42097538  0.80066003  0.59356923  1
