# generated using pymatgen
data_Gd5Al31N36
_symmetry_space_group_name_H-M   'P 1'
_cell_length_a   9.70490297
_cell_length_b   9.68539043
_cell_length_c   10.28542902
_cell_angle_alpha   89.99999858
_cell_angle_beta   90.13264916
_cell_angle_gamma   60.06649336
_symmetry_Int_Tables_number   1
_chemical_formula_structural   Gd5Al31N36
_chemical_formula_sum   'Gd5 Al31 N36'
_cell_volume   837.81942314
_cell_formula_units_Z   1
loop_
 _symmetry_equiv_pos_site_id
 _symmetry_equiv_pos_as_xyz
  1  'x, y, z'
loop_
 _atom_site_type_symbol
 _atom_site_label
 _atom_site_symmetry_multiplicity
 _atom_site_fract_x
 _atom_site_fract_y
 _atom_site_fract_z
 _atom_site_occupancy
  Al  Al0  1  0.11256814  0.08565367  0.42112062  1
  Al  Al1  1  0.78431778  0.08974292  0.90303945  1
  Al  Al2  1  0.89439928  0.20242830  0.66648483  1
  Al  Al3  1  0.44410031  0.09461647  0.43646832  1
  Al  Al4  1  0.11012034  0.09043521  0.90395604  1
  Al  Al5  1  0.21636825  0.20848251  0.65899993  1
  Al  Al6  1  0.78285832  0.08566024  0.41918868  1
  Al  Al7  1  0.89945968  0.18555556  0.15390758  1
  Al  Al8  1  0.44267156  0.09533085  0.89300037  1
  Al  Al9  1  0.55440813  0.20480982  0.66152758  1
  Al  Al10  1  0.11256814  0.43511140  0.42112062  1
  Al  Al11  1  0.21392530  0.55027771  0.15904871  1
  Al  Al12  1  0.78160712  0.42586308  0.92027786  1
  Al  Al13  1  0.89439925  0.53650573  0.66648483  1
  Al  Al14  1  0.43093263  0.42998223  0.41509342  1
  Al  Al15  1  0.53646615  0.54843358  0.15557238  1
  Al  Al16  1  0.11012033  0.43277774  0.90395604  1
  Al  Al17  1  0.21564722  0.54148398  0.66168522  1
  Al  Al18  1  0.89945966  0.54831804  0.15390759  1
  Al  Al19  1  0.43806401  0.43266246  0.91277820  1
  Al  Al20  1  0.11010531  0.76161395  0.40846758  1
  Al  Al21  1  0.21392531  0.86913027  0.15904870  1
  Al  Al22  1  0.78431777  0.75927259  0.90303945  1
  Al  Al23  1  0.89212685  0.87060323  0.66079702  1
  Al  Al24  1  0.43093263  0.77241839  0.41509343  1
  Al  Al25  1  0.11059507  0.76136910  0.91125585  1
  Al  Al26  1  0.21564725  0.87620203  0.66168523  1
  Al  Al27  1  0.78285830  0.76481469  0.41918869  1
  Al  Al28  1  0.90017065  0.86658131  0.15710944  1
  Al  Al29  1  0.43806405  0.76260680  0.91277820  1
  Al  Al30  1  0.55440814  0.87411534  0.66152758  1
  Gd  Gd31  1  0.21161790  0.21085770  0.16490449  1
  Gd  Gd32  1  0.56360610  0.20733636  0.16098583  1
  Gd  Gd33  1  0.78266149  0.42533586  0.38847852  1
  Gd  Gd34  1  0.55547312  0.53893008  0.66290439  1
  Gd  Gd35  1  0.56360610  0.86239087  0.16098585  1
  N  N36  1  0.22102930  0.20615198  0.38829873  1
  N  N37  1  0.10410054  0.07606203  0.08683966  1
  N  N38  1  0.88802163  0.20769548  0.85313301  1
  N  N39  1  0.78037160  0.09411402  0.60739743  1
  N  N40  1  0.55621992  0.20219382  0.38123311  1
  N  N41  1  0.44197310  0.09568011  0.07403021  1
  N  N42  1  0.21586960  0.20873186  0.84931504  1
  N  N43  1  0.10770957  0.09219314  0.60768809  1
  N  N44  1  0.90723516  0.16734915  0.34056113  1
  N  N45  1  0.80650698  0.07368236  0.08582169  1
  N  N46  1  0.55799479  0.20967307  0.85210122  1
  N  N47  1  0.44351849  0.09490740  0.62170910  1
  N  N48  1  0.21887922  0.53942412  0.34962259  1
  N  N49  1  0.10410051  0.45317072  0.08683967  1
  N  N50  1  0.88802163  0.53761621  0.85313301  1
  N  N51  1  0.80866492  0.41233418  0.60616182  1
  N  N52  1  0.51951282  0.55691023  0.34916630  1
  N  N53  1  0.42244734  0.45377233  0.09504863  1
  N  N54  1  0.22127463  0.54294798  0.84774704  1
  N  N55  1  0.10770955  0.43343055  0.60768809  1
  N  N56  1  0.90723514  0.55874896  0.34056115  1
  N  N57  1  0.78112822  0.42610250  0.11681427  1
  N  N58  1  0.55922198  0.53705566  0.87895344  1
  N  N59  1  0.42511114  0.41722791  0.59846334  1
  N  N60  1  0.21887923  0.87502990  0.34962259  1
  N  N61  1  0.11078663  0.76127332  0.10071981  1
  N  N62  1  0.89316503  0.87008414  0.84540914  1
  N  N63  1  0.78037160  0.75884765  0.60739743  1
  N  N64  1  0.55621992  0.87491954  0.38123313  1
  N  N65  1  0.42244739  0.75711362  0.09504863  1
  N  N66  1  0.22127466  0.86911068  0.84774705  1
  N  N67  1  0.11060436  0.76136444  0.59786867  1
  N  N68  1  0.88708630  0.87312348  0.35122439  1
  N  N69  1  0.80650698  0.75314392  0.08582169  1
  N  N70  1  0.55799480  0.86566545  0.85210122  1
  N  N71  1  0.42511116  0.79099421  0.59846335  1
