# generated using pymatgen
data_Gd5Al31N36
_symmetry_space_group_name_H-M   'P 1'
_cell_length_a   9.72849566
_cell_length_b   9.73650275
_cell_length_c   10.36532247
_cell_angle_alpha   90.34066330
_cell_angle_beta   90.19830693
_cell_angle_gamma   59.80111165
_symmetry_Int_Tables_number   1
_chemical_formula_structural   Gd5Al31N36
_chemical_formula_sum   'Gd5 Al31 N36'
_cell_volume   848.55600738
_cell_formula_units_Z   1
loop_
 _symmetry_equiv_pos_site_id
 _symmetry_equiv_pos_as_xyz
  1  'x, y, z'
loop_
 _atom_site_type_symbol
 _atom_site_label
 _atom_site_symmetry_multiplicity
 _atom_site_fract_x
 _atom_site_fract_y
 _atom_site_fract_z
 _atom_site_occupancy
  Al  Al0  1  0.11734713  0.08441647  0.41576463  1
  Al  Al1  1  0.78051602  0.08441514  0.88591653  1
  Al  Al2  1  0.89309374  0.19681907  0.61538953  1
  Al  Al3  1  0.44443565  0.09254624  0.42492630  1
  Al  Al4  1  0.11959254  0.08668309  0.88548747  1
  Al  Al5  1  0.21838394  0.20913621  0.64877946  1
  Al  Al6  1  0.77939780  0.08166111  0.41665422  1
  Al  Al7  1  0.89162362  0.20497695  0.06163201  1
  Al  Al8  1  0.44331728  0.09609479  0.88794167  1
  Al  Al9  1  0.55125804  0.20020581  0.65341470  1
  Al  Al10  1  0.11157582  0.43360575  0.40713854  1
  Al  Al11  1  0.22049787  0.54959866  0.14567460  1
  Al  Al12  1  0.78965760  0.42283575  0.83096540  1
  Al  Al13  1  0.89543096  0.54295922  0.65171922  1
  Al  Al14  1  0.42778592  0.42526549  0.41466384  1
  Al  Al15  1  0.55944046  0.53880714  0.06060635  1
  Al  Al16  1  0.11032888  0.43415470  0.89462113  1
  Al  Al17  1  0.20987208  0.54081057  0.65089486  1
  Al  Al18  1  0.90099983  0.55038356  0.14128957  1
  Al  Al19  1  0.43453149  0.42660424  0.89058178  1
  Al  Al20  1  0.11295718  0.76112871  0.39506107  1
  Al  Al21  1  0.21769178  0.86830672  0.14479953  1
  Al  Al22  1  0.78584112  0.75967757  0.89443187  1
  Al  Al23  1  0.89320682  0.86659674  0.65090844  1
  Al  Al24  1  0.43012661  0.77513017  0.41202946  1
  Al  Al25  1  0.11139337  0.76087119  0.90116978  1
  Al  Al26  1  0.21346742  0.87843597  0.65159503  1
  Al  Al27  1  0.78349471  0.76273132  0.40598574  1
  Al  Al28  1  0.90057819  0.87033048  0.14652025  1
  Al  Al29  1  0.43646206  0.77143012  0.89034734  1
  Al  Al30  1  0.55474838  0.87717913  0.65135039  1
  Gd  Gd31  1  0.20934954  0.21178532  0.15496872  1
  Gd  Gd32  1  0.56535822  0.21306252  0.15378834  1
  Gd  Gd33  1  0.76971883  0.42450758  0.34543078  1
  Gd  Gd34  1  0.53886326  0.54583915  0.63049700  1
  Gd  Gd35  1  0.56170140  0.86195695  0.15080752  1
  N  N36  1  0.22219958  0.20416968  0.37641089  1
  N  N37  1  0.11001990  0.07382186  0.06979956  1
  N  N38  1  0.89082188  0.20332473  0.86350245  1
  N  N39  1  0.77518553  0.08712742  0.60541151  1
  N  N40  1  0.55599599  0.20042036  0.37307311  1
  N  N41  1  0.44384812  0.09850296  0.06816910  1
  N  N42  1  0.21864013  0.21034446  0.83807857  1
  N  N43  1  0.11360266  0.09199596  0.60366886  1
  N  N44  1  0.90144883  0.17440352  0.39392033  1
  N  N45  1  0.80421255  0.07447176  0.07044667  1
  N  N46  1  0.55668129  0.20569618  0.84008116  1
  N  N47  1  0.44278984  0.09364091  0.60825424  1
  N  N48  1  0.22177747  0.53603596  0.33587011  1
  N  N49  1  0.10683910  0.45371306  0.07611200  1
  N  N50  1  0.89386543  0.54377405  0.83775564  1
  N  N51  1  0.80259859  0.41447420  0.63807164  1
  N  N52  1  0.51746230  0.55498541  0.39961234  1
  N  N53  1  0.42699542  0.45311180  0.07235102  1
  N  N54  1  0.21763845  0.54424625  0.83510219  1
  N  N55  1  0.10481751  0.43290619  0.59199715  1
  N  N56  1  0.90577803  0.55567641  0.33024173  1
  N  N57  1  0.78110891  0.42806080  0.11299488  1
  N  N58  1  0.56187087  0.53606093  0.86687848  1
  N  N59  1  0.41739274  0.40814907  0.59643223  1
  N  N60  1  0.22152020  0.87578018  0.33553026  1
  N  N61  1  0.11260844  0.76164235  0.08951264  1
  N  N62  1  0.89546427  0.86605980  0.83417028  1
  N  N63  1  0.78028781  0.75972189  0.59336687  1
  N  N64  1  0.55676489  0.87219064  0.36990650  1
  N  N65  1  0.42541643  0.75700173  0.07220919  1
  N  N66  1  0.22049887  0.86735497  0.83418302  1
  N  N67  1  0.11224086  0.76040654  0.58518248  1
  N  N68  1  0.88750866  0.87297951  0.33908747  1
  N  N69  1  0.80595208  0.75581457  0.07629005  1
  N  N70  1  0.56002391  0.86920671  0.84059303  1
  N  N71  1  0.42029932  0.80365061  0.59433151  1
