# generated using pymatgen
data_Gd5Al31N36
_symmetry_space_group_name_H-M   'P 1'
_cell_length_a   9.70381715
_cell_length_b   9.73400468
_cell_length_c   10.31036814
_cell_angle_alpha   90.07346533
_cell_angle_beta   90.29683571
_cell_angle_gamma   59.87851625
_symmetry_Int_Tables_number   1
_chemical_formula_structural   Gd5Al31N36
_chemical_formula_sum   'Gd5 Al31 N36'
_cell_volume   842.36377537
_cell_formula_units_Z   1
loop_
 _symmetry_equiv_pos_site_id
 _symmetry_equiv_pos_as_xyz
  1  'x, y, z'
loop_
 _atom_site_type_symbol
 _atom_site_label
 _atom_site_symmetry_multiplicity
 _atom_site_fract_x
 _atom_site_fract_y
 _atom_site_fract_z
 _atom_site_occupancy
  Al  Al0  1  0.11185180  0.08614194  0.40566678  1
  Al  Al1  1  0.78519825  0.08786960  0.89182756  1
  Al  Al2  1  0.89270810  0.20026238  0.65055345  1
  Al  Al3  1  0.44367860  0.09432849  0.42396318  1
  Al  Al4  1  0.11056759  0.08983883  0.89279164  1
  Al  Al5  1  0.21520373  0.20887704  0.64554106  1
  Al  Al6  1  0.78325824  0.08429913  0.40662611  1
  Al  Al7  1  0.89979031  0.18646979  0.14145860  1
  Al  Al8  1  0.44364535  0.09516200  0.88358661  1
  Al  Al9  1  0.55444252  0.20082238  0.64998600  1
  Al  Al10  1  0.11198681  0.43479826  0.40583232  1
  Al  Al11  1  0.21902788  0.54938343  0.14514693  1
  Al  Al12  1  0.79147522  0.42106705  0.87390490  1
  Al  Al13  1  0.89263718  0.54013800  0.65053906  1
  Al  Al14  1  0.42962515  0.42696859  0.41282982  1
  Al  Al15  1  0.55801436  0.53809235  0.06826264  1
  Al  Al16  1  0.11043812  0.43329281  0.89277528  1
  Al  Al17  1  0.21046928  0.54068760  0.64949192  1
  Al  Al18  1  0.89963848  0.54764419  0.14169058  1
  Al  Al19  1  0.43493961  0.42585589  0.89139134  1
  Al  Al20  1  0.11430289  0.75923535  0.39478628  1
  Al  Al21  1  0.21905643  0.86540070  0.14526968  1
  Al  Al22  1  0.78522530  0.76049991  0.89198722  1
  Al  Al23  1  0.89285715  0.87006754  0.64829450  1
  Al  Al24  1  0.42976398  0.77573347  0.41259069  1
  Al  Al25  1  0.11080078  0.76141174  0.89947682  1
  Al  Al26  1  0.21057735  0.88179092  0.64936454  1
  Al  Al27  1  0.78333427  0.76532220  0.40652638  1
  Al  Al28  1  0.90109794  0.86640427  0.14532003  1
  Al  Al29  1  0.43495490  0.77290283  0.89138443  1
  Al  Al30  1  0.55449046  0.87760557  0.65008692  1
  Gd  Gd31  1  0.21214456  0.21114363  0.15122877  1
  Gd  Gd32  1  0.56353920  0.21138050  0.15127453  1
  Gd  Gd33  1  0.77574373  0.42874731  0.37535299  1
  Gd  Gd34  1  0.54113100  0.54582560  0.63811652  1
  Gd  Gd35  1  0.56319116  0.86014506  0.15098356  1
  N  N36  1  0.22049580  0.20605487  0.37343784  1
  N  N37  1  0.10595304  0.07415175  0.07505962  1
  N  N38  1  0.89150960  0.20096662  0.83683731  1
  N  N39  1  0.78035893  0.09179360  0.59440792  1
  N  N40  1  0.55574116  0.20183080  0.37092979  1
  N  N41  1  0.44550657  0.09485005  0.06444942  1
  N  N42  1  0.21555332  0.20897064  0.83753670  1
  N  N43  1  0.10458902  0.09513121  0.59180676  1
  N  N44  1  0.90442884  0.16854648  0.32872313  1
  N  N45  1  0.80647114  0.07415691  0.07412105  1
  N  N46  1  0.55981294  0.20539778  0.83926051  1
  N  N47  1  0.44211618  0.09531810  0.60847486  1
  N  N48  1  0.22199914  0.53657969  0.33542408  1
  N  N49  1  0.10561136  0.45407852  0.07491914  1
  N  N50  1  0.89141448  0.54105772  0.83678782  1
  N  N51  1  0.80213334  0.41542378  0.60640595  1
  N  N52  1  0.51796710  0.55710412  0.39665386  1
  N  N53  1  0.42545202  0.45280744  0.07353426  1
  N  N54  1  0.21776051  0.54427549  0.83439421  1
  N  N55  1  0.10456001  0.43319759  0.59188689  1
  N  N56  1  0.90482945  0.55980107  0.32885879  1
  N  N57  1  0.78564716  0.42406927  0.10437979  1
  N  N58  1  0.56219945  0.53574693  0.87064971  1
  N  N59  1  0.41895004  0.40975894  0.59517589  1
  N  N60  1  0.22190184  0.87409154  0.33553875  1
  N  N61  1  0.11275545  0.76055295  0.08819010  1
  N  N62  1  0.89364955  0.86984646  0.83327863  1
  N  N63  1  0.78033789  0.76084354  0.59433065  1
  N  N64  1  0.55587068  0.87454786  0.37076292  1
  N  N65  1  0.42553534  0.75605942  0.07361763  1
  N  N66  1  0.21780980  0.87137021  0.83433430  1
  N  N67  1  0.11235666  0.76025089  0.58488851  1
  N  N68  1  0.88886363  0.87204222  0.33848492  1
  N  N69  1  0.80635541  0.75319568  0.07433032  1
  N  N70  1  0.55977429  0.86844428  0.83946372  1
  N  N71  1  0.41914362  0.80394227  0.59510684  1
