# generated using pymatgen
data_Gd5Al31N36
_symmetry_space_group_name_H-M   'P 1'
_cell_length_a   9.71719159
_cell_length_b   9.73903149
_cell_length_c   10.33109600
_cell_angle_alpha   90.22783426
_cell_angle_beta   90.22328518
_cell_angle_gamma   59.82981140
_symmetry_Int_Tables_number   1
_chemical_formula_structural   Gd5Al31N36
_chemical_formula_sum   'Gd5 Al31 N36'
_cell_volume   845.24330694
_cell_formula_units_Z   1
loop_
 _symmetry_equiv_pos_site_id
 _symmetry_equiv_pos_as_xyz
  1  'x, y, z'
loop_
 _atom_site_type_symbol
 _atom_site_label
 _atom_site_symmetry_multiplicity
 _atom_site_fract_x
 _atom_site_fract_y
 _atom_site_fract_z
 _atom_site_occupancy
  Al  Al0  1  0.11124733  0.08656896  0.40870469  1
  Al  Al1  1  0.78381885  0.08679354  0.88984038  1
  Al  Al2  1  0.89469674  0.19475664  0.65156299  1
  Al  Al3  1  0.44447770  0.09263997  0.42465718  1
  Al  Al4  1  0.11310015  0.08924683  0.89022982  1
  Al  Al5  1  0.21648472  0.20865016  0.64625920  1
  Al  Al6  1  0.78337615  0.08415975  0.40992662  1
  Al  Al7  1  0.89680577  0.19340368  0.12416357  1
  Al  Al8  1  0.44329340  0.09589844  0.88594953  1
  Al  Al9  1  0.55330518  0.19995162  0.65130905  1
  Al  Al10  1  0.11217778  0.43391914  0.40662589  1
  Al  Al11  1  0.22029411  0.54956891  0.14523450  1
  Al  Al12  1  0.78945413  0.42302378  0.83691095  1
  Al  Al13  1  0.89469579  0.54300415  0.65113653  1
  Al  Al14  1  0.42818990  0.42528131  0.41418952  1
  Al  Al15  1  0.56071085  0.53763572  0.06266600  1
  Al  Al16  1  0.11042853  0.43353138  0.89404658  1
  Al  Al17  1  0.20991713  0.54052332  0.65056286  1
  Al  Al18  1  0.90041991  0.54935231  0.14181602  1
  Al  Al19  1  0.43498715  0.42591620  0.89057101  1
  Al  Al20  1  0.11401511  0.75963605  0.39470492  1
  Al  Al21  1  0.21895058  0.86647848  0.14508067  1
  Al  Al22  1  0.78570829  0.76044742  0.89365358  1
  Al  Al23  1  0.89323430  0.86834092  0.64922079  1
  Al  Al24  1  0.42941787  0.77591048  0.41235704  1
  Al  Al25  1  0.11107183  0.76131338  0.90026082  1
  Al  Al26  1  0.21161374  0.88049313  0.64996503  1
  Al  Al27  1  0.78369812  0.76406930  0.40614370  1
  Al  Al28  1  0.90097548  0.86849028  0.14659888  1
  Al  Al29  1  0.43555525  0.77235984  0.89028367  1
  Al  Al30  1  0.55475481  0.87727978  0.65124120  1
  Gd  Gd31  1  0.21087417  0.21193835  0.15397921  1
  Gd  Gd32  1  0.56403618  0.21301890  0.15316135  1
  Gd  Gd33  1  0.77067416  0.42959012  0.35817444  1
  Gd  Gd34  1  0.53730233  0.54689793  0.63253983  1
  Gd  Gd35  1  0.56206195  0.86137843  0.15043342  1
  N  N36  1  0.22157011  0.20470066  0.37581963  1
  N  N37  1  0.10764926  0.07454279  0.07230056  1
  N  N38  1  0.89277354  0.19809145  0.83977469  1
  N  N39  1  0.77962236  0.09004694  0.59786063  1
  N  N40  1  0.55618457  0.20059825  0.37269612  1
  N  N41  1  0.44428525  0.09769296  0.06676460  1
  N  N42  1  0.21671602  0.20941323  0.83740992  1
  N  N43  1  0.10606434  0.09428951  0.59498307  1
  N  N44  1  0.90423272  0.16904878  0.33756277  1
  N  N45  1  0.80523010  0.07471624  0.07200333  1
  N  N46  1  0.55880280  0.20503548  0.83944208  1
  N  N47  1  0.44275002  0.09392252  0.60854995  1
  N  N48  1  0.22224253  0.53578001  0.33548933  1
  N  N49  1  0.10657548  0.45387125  0.07587437  1
  N  N50  1  0.89331618  0.54343436  0.83755349  1
  N  N51  1  0.80163555  0.41536721  0.63072075  1
  N  N52  1  0.51619246  0.55619015  0.39981858  1
  N  N53  1  0.42681258  0.45313457  0.07249593  1
  N  N54  1  0.21768001  0.54422122  0.83501176  1
  N  N55  1  0.10460271  0.43295698  0.59184717  1
  N  N56  1  0.90644248  0.55776737  0.33028800  1
  N  N57  1  0.78147924  0.42793405  0.11632684  1
  N  N58  1  0.56241256  0.53572034  0.86772659  1
  N  N59  1  0.41755012  0.40807663  0.59621101  1
  N  N60  1  0.22220328  0.87440308  0.33556670  1
  N  N61  1  0.11268311  0.76137389  0.08898611  1
  N  N62  1  0.89440478  0.86822869  0.83358024  1
  N  N63  1  0.78018456  0.76070049  0.59374378  1
  N  N64  1  0.55671353  0.87244109  0.37002034  1
  N  N65  1  0.42571943  0.75627134  0.07226251  1
  N  N66  1  0.21893549  0.86979155  0.83395592  1
  N  N67  1  0.11274102  0.75974202  0.58500328  1
  N  N68  1  0.88844551  0.87207930  0.33927957  1
  N  N69  1  0.80623722  0.75501984  0.07586065  1
  N  N70  1  0.56004965  0.86896323  0.84051598  1
  N  N71  1  0.41925645  0.80483699  0.59488454  1
