# generated using pymatgen
data_Gd5Al31N36
_symmetry_space_group_name_H-M   'P 1'
_cell_length_a   9.69991090
_cell_length_b   9.67665570
_cell_length_c   10.61181462
_cell_angle_alpha   89.34587741
_cell_angle_beta   88.85773243
_cell_angle_gamma   60.11851474
_symmetry_Int_Tables_number   1
_chemical_formula_structural   Gd5Al31N36
_chemical_formula_sum   'Gd5 Al31 N36'
_cell_volume   863.46309891
_cell_formula_units_Z   1
loop_
 _symmetry_equiv_pos_site_id
 _symmetry_equiv_pos_as_xyz
  1  'x, y, z'
loop_
 _atom_site_type_symbol
 _atom_site_label
 _atom_site_symmetry_multiplicity
 _atom_site_fract_x
 _atom_site_fract_y
 _atom_site_fract_z
 _atom_site_occupancy
  Al  Al0  1  0.12026483  0.08363376  0.39166050  1
  Al  Al1  1  0.77259984  0.09057699  0.79844535  1
  Al  Al2  1  0.89153211  0.20115182  0.56792627  1
  Al  Al3  1  0.44950274  0.09523222  0.32631254  1
  Al  Al4  1  0.10894360  0.08136062  0.86526163  1
  Al  Al5  1  0.22663857  0.20535197  0.56622200  1
  Al  Al6  1  0.78872975  0.08947489  0.31648291  1
  Al  Al7  1  0.88517916  0.19940365  0.04282747  1
  Al  Al8  1  0.44069752  0.09278038  0.78547087  1
  Al  Al9  1  0.55785313  0.20222408  0.55566006  1
  Al  Al10  1  0.11483992  0.43333358  0.34775418  1
  Al  Al11  1  0.21009319  0.54783182  0.14168188  1
  Al  Al12  1  0.77962760  0.42352687  0.81476462  1
  Al  Al13  1  0.89349641  0.54087354  0.56774912  1
  Al  Al14  1  0.44753342  0.43128114  0.30832526  1
  Al  Al15  1  0.54127624  0.54623960  0.04569238  1
  Al  Al16  1  0.10322119  0.42310943  0.79646892  1
  Al  Al17  1  0.21665226  0.54095741  0.62185054  1
  Al  Al18  1  0.89244731  0.54588112  0.04515593  1
  Al  Al19  1  0.43953326  0.42167740  0.80032910  1
  Al  Al20  1  0.10375697  0.77006070  0.31812895  1
  Al  Al21  1  0.21122611  0.87778886  0.13011750  1
  Al  Al22  1  0.77486882  0.76424110  0.79879097  1
  Al  Al23  1  0.88847772  0.87269172  0.55683957  1
  Al  Al24  1  0.44482027  0.76294577  0.30341290  1
  Al  Al25  1  0.09780643  0.76163591  0.80999320  1
  Al  Al26  1  0.21332149  0.88179291  0.63169078  1
  Al  Al27  1  0.78808701  0.76203456  0.31615012  1
  Al  Al28  1  0.90155311  0.86637877  0.06651628  1
  Al  Al29  1  0.44279007  0.76367382  0.80026064  1
  Al  Al30  1  0.55685970  0.87434311  0.55640300  1
  Gd  Gd31  1  0.22219944  0.21381009  0.05976354  1
  Gd  Gd32  1  0.56851299  0.20709210  0.05818295  1
  Gd  Gd33  1  0.79935710  0.42332844  0.28939262  1
  Gd  Gd34  1  0.56081768  0.53786481  0.55963957  1
  Gd  Gd35  1  0.56475158  0.86623766  0.05507091  1
  N  N36  1  0.22597148  0.20970107  0.37870346  1
  N  N37  1  0.10426495  0.07191838  0.04874020  1
  N  N38  1  0.87615302  0.20052714  0.86046069  1
  N  N39  1  0.77746144  0.09147824  0.61739151  1
  N  N40  1  0.56255732  0.20911779  0.37031843  1
  N  N41  1  0.45125477  0.09371577  0.15209518  1
  N  N42  1  0.21830234  0.20169927  0.83740753  1
  N  N43  1  0.11638397  0.08861125  0.57447898  1
  N  N44  1  0.89554277  0.18868315  0.38512338  1
  N  N45  1  0.81166084  0.07982156  0.13555143  1
  N  N46  1  0.54896354  0.20001571  0.84379807  1
  N  N47  1  0.44796899  0.09282738  0.60443615  1
  N  N48  1  0.22441838  0.54382942  0.33548020  1
  N  N49  1  0.08560695  0.45322196  0.12967157  1
  N  N50  1  0.88614042  0.54456438  0.86155658  1
  N  N51  1  0.81071230  0.41082555  0.63315811  1
  N  N52  1  0.54495830  0.54853526  0.35087974  1
  N  N53  1  0.43144213  0.45144509  0.12445575  1
  N  N54  1  0.21360171  0.53765525  0.81688883  1
  N  N55  1  0.11008253  0.42543810  0.61134573  1
  N  N56  1  0.89944842  0.55568911  0.39065659  1
  N  N57  1  0.77368319  0.42871667  0.07409877  1
  N  N58  1  0.54609156  0.54004281  0.85627426  1
  N  N59  1  0.43640563  0.41057023  0.61942018  1
  N  N60  1  0.21849510  0.88383035  0.31791274  1
  N  N61  1  0.10441998  0.76475045  0.12873029  1
  N  N62  1  0.88008243  0.87411809  0.87417921  1
  N  N63  1  0.77758463  0.76371184  0.61803795  1
  N  N64  1  0.56121603  0.86685066  0.37027104  1
  N  N65  1  0.43448253  0.74999564  0.11991171  1
  N  N66  1  0.21518339  0.86961693  0.81521347  1
  N  N67  1  0.10072501  0.76674591  0.61653980  1
  N  N68  1  0.88856990  0.87513552  0.37624527  1
  N  N69  1  0.80584495  0.74702406  0.13301463  1
  N  N70  1  0.55173996  0.87489201  0.84123009  1
  N  N71  1  0.43470287  0.78684345  0.62054425  1
