# generated using pymatgen
data_Gd5Al31N36
_symmetry_space_group_name_H-M   'P 1'
_cell_length_a   9.68647691
_cell_length_b   9.69211373
_cell_length_c   10.56255172
_cell_angle_alpha   90.31868493
_cell_angle_beta   89.47000967
_cell_angle_gamma   60.04684013
_symmetry_Int_Tables_number   1
_chemical_formula_structural   Gd5Al31N36
_chemical_formula_sum   'Gd5 Al31 N36'
_cell_volume   859.09275250
_cell_formula_units_Z   1
loop_
 _symmetry_equiv_pos_site_id
 _symmetry_equiv_pos_as_xyz
  1  'x, y, z'
loop_
 _atom_site_type_symbol
 _atom_site_label
 _atom_site_symmetry_multiplicity
 _atom_site_fract_x
 _atom_site_fract_y
 _atom_site_fract_z
 _atom_site_occupancy
  Al  Al0  1  0.12544806  0.08012332  0.41827889  1
  Al  Al1  1  0.77786955  0.09589166  0.84301420  1
  Al  Al2  1  0.89535544  0.20069536  0.59297518  1
  Al  Al3  1  0.44670800  0.09027677  0.42663122  1
  Al  Al4  1  0.11821323  0.08719347  0.88975189  1
  Al  Al5  1  0.22008922  0.20626639  0.65509250  1
  Al  Al6  1  0.78175986  0.07957963  0.41010330  1
  Al  Al7  1  0.88474910  0.20048841  0.05756487  1
  Al  Al8  1  0.44197544  0.09699291  0.89212244  1
  Al  Al9  1  0.54532041  0.20446482  0.65119326  1
  Al  Al10  1  0.12477436  0.42378155  0.41656542  1
  Al  Al11  1  0.21680742  0.55004354  0.14398833  1
  Al  Al12  1  0.79475618  0.42236449  0.82673574  1
  Al  Al13  1  0.89423162  0.53666066  0.59102046  1
  Al  Al14  1  0.43297107  0.42486904  0.41582693  1
  Al  Al15  1  0.55690017  0.54015016  0.05428369  1
  Al  Al16  1  0.11740617  0.43074694  0.88979056  1
  Al  Al17  1  0.21214149  0.54146135  0.65387525  1
  Al  Al18  1  0.88838159  0.54288772  0.05868818  1
  Al  Al19  1  0.43355275  0.42992492  0.89008331  1
  Al  Al20  1  0.11579090  0.75649550  0.39764023  1
  Al  Al21  1  0.21571196  0.86907631  0.14442048  1
  Al  Al22  1  0.77849723  0.77125671  0.89120480  1
  Al  Al23  1  0.89577732  0.86378610  0.65208199  1
  Al  Al24  1  0.43397285  0.77219672  0.41467649  1
  Al  Al25  1  0.10899821  0.76395607  0.90371656  1
  Al  Al26  1  0.21420514  0.87831731  0.65383434  1
  Al  Al27  1  0.77965575  0.76679885  0.41619774  1
  Al  Al28  1  0.89714087  0.87011996  0.15144630  1
  Al  Al29  1  0.43526471  0.77309157  0.89031774  1
  Al  Al30  1  0.55252165  0.87970501  0.65469892  1
  Gd  Gd31  1  0.20228965  0.21560364  0.15571209  1
  Gd  Gd32  1  0.55330277  0.21844072  0.15746886  1
  Gd  Gd33  1  0.77646628  0.42286573  0.32838510  1
  Gd  Gd34  1  0.54679597  0.54318370  0.63020366  1
  Gd  Gd35  1  0.55920586  0.86196933  0.15500033  1
  N  N36  1  0.22781742  0.20028684  0.37379414  1
  N  N37  1  0.10639520  0.07479716  0.07057162  1
  N  N38  1  0.88834697  0.20602635  0.87391091  1
  N  N39  1  0.77617397  0.09139867  0.62092555  1
  N  N40  1  0.56023635  0.19842219  0.37655067  1
  N  N41  1  0.43879411  0.09667185  0.06850879  1
  N  N42  1  0.21987170  0.20781868  0.83912860  1
  N  N43  1  0.11772454  0.09011066  0.60285746  1
  N  N44  1  0.90221875  0.17888343  0.41011581  1
  N  N45  1  0.79834352  0.08079840  0.10353349  1
  N  N46  1  0.55026331  0.21021983  0.83595096  1
  N  N47  1  0.44184311  0.09389512  0.60641627  1
  N  N48  1  0.22576688  0.53127650  0.33510343  1
  N  N49  1  0.10777233  0.45256248  0.07221115  1
  N  N50  1  0.88948755  0.54173044  0.87487291  1
  N  N51  1  0.81116599  0.41105884  0.64698518  1
  N  N52  1  0.52897674  0.55037814  0.39959600  1
  N  N53  1  0.42384492  0.45541904  0.06823041  1
  N  N54  1  0.21796613  0.54756302  0.83426079  1
  N  N55  1  0.11665673  0.42478918  0.60107514  1
  N  N56  1  0.90178966  0.54454407  0.40384249  1
  N  N57  1  0.77704894  0.42998377  0.10609319  1
  N  N58  1  0.56155673  0.53760206  0.86372856  1
  N  N59  1  0.41928319  0.41162033  0.59408962  1
  N  N60  1  0.22472328  0.87257739  0.33596339  1
  N  N61  1  0.10949576  0.76247448  0.09012886  1
  N  N62  1  0.89576682  0.86988274  0.83364800  1
  N  N63  1  0.77511183  0.76720636  0.60166841  1
  N  N64  1  0.55935040  0.87060814  0.37170116  1
  N  N65  1  0.42416567  0.75884012  0.06926514  1
  N  N66  1  0.21942302  0.86929648  0.83430689  1
  N  N67  1  0.11355721  0.75912139  0.58560464  1
  N  N68  1  0.89227719  0.86539474  0.34473892  1
  N  N69  1  0.79948104  0.76210621  0.07419681  1
  N  N70  1  0.55625362  0.87365074  0.83896921  1
  N  N71  1  0.42226950  0.80112799  0.59451070  1
