# generated using pymatgen
data_Gd5Al31N36
_symmetry_space_group_name_H-M   'P 1'
_cell_length_a   9.68784527
_cell_length_b   9.68842866
_cell_length_c   10.55122897
_cell_angle_alpha   90.21130293
_cell_angle_beta   89.51043449
_cell_angle_gamma   60.00755253
_symmetry_Int_Tables_number   1
_chemical_formula_structural   Gd5Al31N36
_chemical_formula_sum   'Gd5 Al31 N36'
_cell_volume   857.65588359
_cell_formula_units_Z   1
loop_
 _symmetry_equiv_pos_site_id
 _symmetry_equiv_pos_as_xyz
  1  'x, y, z'
loop_
 _atom_site_type_symbol
 _atom_site_label
 _atom_site_symmetry_multiplicity
 _atom_site_fract_x
 _atom_site_fract_y
 _atom_site_fract_z
 _atom_site_occupancy
  Al  Al0  1  0.12460494  0.08131434  0.41757920  1
  Al  Al1  1  0.77785018  0.08890067  0.88539898  1
  Al  Al2  1  0.89426607  0.19996567  0.59252948  1
  Al  Al3  1  0.44682821  0.09165077  0.42679906  1
  Al  Al4  1  0.11790566  0.08712109  0.88926127  1
  Al  Al5  1  0.22066484  0.20611704  0.65466605  1
  Al  Al6  1  0.77936900  0.08124874  0.41739002  1
  Al  Al7  1  0.88793825  0.20412946  0.05776621  1
  Al  Al8  1  0.44216202  0.09667850  0.89203790  1
  Al  Al9  1  0.55102790  0.20114526  0.65388988  1
  Al  Al10  1  0.12465689  0.42476245  0.41703454  1
  Al  Al11  1  0.21661667  0.54988868  0.14485237  1
  Al  Al12  1  0.79522314  0.42031790  0.82532899  1
  Al  Al13  1  0.89393504  0.53795852  0.59112145  1
  Al  Al14  1  0.43271612  0.42470542  0.41582121  1
  Al  Al15  1  0.55658431  0.53963220  0.05458817  1
  Al  Al16  1  0.11755430  0.43009939  0.88957974  1
  Al  Al17  1  0.21241070  0.54132414  0.65349378  1
  Al  Al18  1  0.88851495  0.54217309  0.05876587  1
  Al  Al19  1  0.43455767  0.42819442  0.88985147  1
  Al  Al20  1  0.11390248  0.75858580  0.39695447  1
  Al  Al21  1  0.21662949  0.86821542  0.14519785  1
  Al  Al22  1  0.77862646  0.76906424  0.88953150  1
  Al  Al23  1  0.89248758  0.86948278  0.65374150  1
  Al  Al24  1  0.43324762  0.77306843  0.41512089  1
  Al  Al25  1  0.10970440  0.76282285  0.90285314  1
  Al  Al26  1  0.21332943  0.87868095  0.65351611  1
  Al  Al27  1  0.77940508  0.76935125  0.41579159  1
  Al  Al28  1  0.89676481  0.86966283  0.14759799  1
  Al  Al29  1  0.43530756  0.77246246  0.89008173  1
  Al  Al30  1  0.55243853  0.87994504  0.65448604  1
  Gd  Gd31  1  0.20357628  0.21563753  0.15689218  1
  Gd  Gd32  1  0.55812853  0.21621603  0.15583346  1
  Gd  Gd33  1  0.77563933  0.42633127  0.33079989  1
  Gd  Gd34  1  0.54586665  0.54334280  0.63016404  1
  Gd  Gd35  1  0.55899862  0.86173473  0.15523824  1
  N  N36  1  0.22760481  0.20129418  0.37450112  1
  N  N37  1  0.10718726  0.07452125  0.07228296  1
  N  N38  1  0.88947469  0.20590309  0.87400513  1
  N  N39  1  0.77485201  0.08903755  0.60464961  1
  N  N40  1  0.55883287  0.19991341  0.37283434  1
  N  N41  1  0.43998447  0.09798356  0.06952051  1
  N  N42  1  0.22045805  0.20715890  0.83940291  1
  N  N43  1  0.11679732  0.09074021  0.60234506  1
  N  N44  1  0.90224770  0.18001311  0.40569953  1
  N  N45  1  0.79748047  0.07602149  0.07358008  1
  N  N46  1  0.55446659  0.20700218  0.83851688  1
  N  N47  1  0.44267080  0.09452715  0.60709039  1
  N  N48  1  0.22472491  0.53276831  0.33539262  1
  N  N49  1  0.10761556  0.45253903  0.07242984  1
  N  N50  1  0.88941522  0.54010029  0.87483847  1
  N  N51  1  0.81049187  0.41128754  0.64526208  1
  N  N52  1  0.52750206  0.55138891  0.40016961  1
  N  N53  1  0.42416386  0.45372642  0.06920715  1
  N  N54  1  0.21865564  0.54658014  0.83436237  1
  N  N55  1  0.11637274  0.42504385  0.60157221  1
  N  N56  1  0.90220587  0.54727696  0.40381123  1
  N  N57  1  0.77676247  0.42918693  0.10813131  1
  N  N58  1  0.56176801  0.53678376  0.86434945  1
  N  N59  1  0.42052128  0.40959603  0.59501363  1
  N  N60  1  0.22456194  0.87320067  0.33579588  1
  N  N61  1  0.10977887  0.76252500  0.08987079  1
  N  N62  1  0.89505687  0.86978484  0.83443732  1
  N  N63  1  0.77506428  0.76822780  0.60211655  1
  N  N64  1  0.55876906  0.87141801  0.37177056  1
  N  N65  1  0.42438174  0.75818421  0.06952651  1
  N  N66  1  0.21941087  0.86903641  0.83443526  1
  N  N67  1  0.11207007  0.76014197  0.58552879  1
  N  N68  1  0.88920375  0.87060908  0.33993661  1
  N  N69  1  0.79873964  0.76139842  0.07342903  1
  N  N70  1  0.55590793  0.87317096  0.83938012  1
  N  N71  1  0.42158708  0.80184635  0.59489239  1
