# generated using pymatgen
data_Li2SiO3
_symmetry_space_group_name_H-M   'P 1'
_cell_length_a   4.75272033
_cell_length_b   5.44715241
_cell_length_c   5.47074039
_cell_angle_alpha   119.86791437
_cell_angle_beta   89.94032063
_cell_angle_gamma   90.13033499
_symmetry_Int_Tables_number   1
_chemical_formula_structural   Li2SiO3
_chemical_formula_sum   'Li4 Si2 O6'
_cell_volume   122.81853117
_cell_formula_units_Z   2
loop_
 _symmetry_equiv_pos_site_id
 _symmetry_equiv_pos_as_xyz
  1  'x, y, z'
loop_
 _atom_site_type_symbol
 _atom_site_label
 _atom_site_symmetry_multiplicity
 _atom_site_fract_x
 _atom_site_fract_y
 _atom_site_fract_z
 _atom_site_occupancy
  Si  Si0  1  0.01049880  0.22122810  0.00001922  1
  Si  Si1  1  0.51015656  0.87867540  0.00001084  1
  O  O2  1  0.15823302  0.93612567  0.99999686  1
  O  O3  1  0.65840301  0.16395023  0.00003044  1
  O  O4  1  0.09204998  0.21445775  0.71025565  1
  O  O5  1  0.09206537  0.50426674  0.28983606  1
  O  O6  1  0.59172850  0.59587174  0.71025644  1
  O  O7  1  0.59171599  0.88563123  0.28974063  1
  Li  Li8  1  0.00479396  0.87997871  0.34698717  1
  Li  Li9  1  0.00479148  0.53298254  0.65302200  1
  Li  Li10  1  0.50471277  0.21993355  0.65294192  1
  Li  Li11  1  0.50470499  0.56704096  0.34712096  1
