# generated using pymatgen
data_Li2SiO3
_symmetry_space_group_name_H-M   'P 1'
_cell_length_a   4.76163652
_cell_length_b   5.46416209
_cell_length_c   5.49874750
_cell_angle_alpha   119.77945399
_cell_angle_beta   89.50799763
_cell_angle_gamma   90.19503057
_symmetry_Int_Tables_number   1
_chemical_formula_structural   Li2SiO3
_chemical_formula_sum   'Li4 Si2 O6'
_cell_volume   124.17062755
_cell_formula_units_Z   2
loop_
 _symmetry_equiv_pos_site_id
 _symmetry_equiv_pos_as_xyz
  1  'x, y, z'
loop_
 _atom_site_type_symbol
 _atom_site_label
 _atom_site_symmetry_multiplicity
 _atom_site_fract_x
 _atom_site_fract_y
 _atom_site_fract_z
 _atom_site_occupancy
  Si  Si0  1  0.00648208  0.21901045  0.99991594  1
  Si  Si1  1  0.57215575  0.87820054  0.00033065  1
  O  O2  1  0.09227685  0.92201615  0.99954713  1
  O  O3  1  0.63955222  0.17991092  0.00073572  1
  O  O4  1  0.09074927  0.21343806  0.71183701  1
  O  O5  1  0.09002847  0.50072484  0.28700381  1
  O  O6  1  0.58839670  0.59507111  0.70517325  1
  O  O7  1  0.58670065  0.88960246  0.29516639  1
  Li  Li8  1  0.02895044  0.88092644  0.34599825  1
  Li  Li9  1  0.02897058  0.53437587  0.65337142  1
  Li  Li10  1  0.50050067  0.22227233  0.65797662  1
  Li  Li11  1  0.49909074  0.56459346  0.34316198  1
