# generated using pymatgen
data_Li2SiO3
_symmetry_space_group_name_H-M   'P 1'
_cell_length_a   4.72871342
_cell_length_b   5.44926450
_cell_length_c   5.47325018
_cell_angle_alpha   119.85492508
_cell_angle_beta   90.00001145
_cell_angle_gamma   90.00000468
_symmetry_Int_Tables_number   1
_chemical_formula_structural   Li2SiO3
_chemical_formula_sum   'Li4 Si2 O6'
_cell_volume   122.31785131
_cell_formula_units_Z   2
loop_
 _symmetry_equiv_pos_site_id
 _symmetry_equiv_pos_as_xyz
  1  'x, y, z'
loop_
 _atom_site_type_symbol
 _atom_site_label
 _atom_site_symmetry_multiplicity
 _atom_site_fract_x
 _atom_site_fract_y
 _atom_site_fract_z
 _atom_site_occupancy
  Si  Si0  1  0.99424215  0.22162254  0.00000031  1
  Si  Si1  1  0.49424211  0.87837644  0.99999756  1
  O  O2  1  0.14071834  0.93574752  0.99999850  1
  O  O3  1  0.64071836  0.16425274  0.00000182  1
  O  O4  1  0.07585359  0.21455014  0.71022169  1
  O  O5  1  0.07585324  0.50433026  0.28978107  1
  O  O6  1  0.57585355  0.59567072  0.71022001  1
  O  O7  1  0.57585322  0.88545003  0.28977940  1
  Li  Li8  1  0.98999963  0.88027678  0.34706313  1
  Li  Li9  1  0.99000035  0.53321284  0.65293534  1
  Li  Li10  1  0.49000029  0.21972310  0.65293675  1
  Li  Li11  1  0.48999957  0.56678690  0.34706442  1
