# generated using pymatgen
data_Li2SiO3
_symmetry_space_group_name_H-M   'P 1'
_cell_length_a   4.72913082
_cell_length_b   5.45452398
_cell_length_c   5.47617832
_cell_angle_alpha   119.86943145
_cell_angle_beta   90.00090320
_cell_angle_gamma   90.00021598
_symmetry_Int_Tables_number   1
_chemical_formula_structural   Li2SiO3
_chemical_formula_sum   'Li4 Si2 O6'
_cell_volume   122.49441631
_cell_formula_units_Z   2
loop_
 _symmetry_equiv_pos_site_id
 _symmetry_equiv_pos_as_xyz
  1  'x, y, z'
loop_
 _atom_site_type_symbol
 _atom_site_label
 _atom_site_symmetry_multiplicity
 _atom_site_fract_x
 _atom_site_fract_y
 _atom_site_fract_z
 _atom_site_occupancy
  Si  Si0  1  0.10939897  0.22147214  0.99998307  1
  Si  Si1  1  0.60939979  0.87852753  0.99998062  1
  O  O2  1  0.96273142  0.93605765  0.99998209  1
  O  O3  1  0.46273196  0.16394484  0.99998618  1
  O  O4  1  0.02795863  0.21447087  0.71037473  1
  O  O5  1  0.02795949  0.50407889  0.28959237  1
  O  O6  1  0.52795715  0.59591726  0.71037605  1
  O  O7  1  0.52795995  0.88551721  0.28958335  1
  Li  Li8  1  0.11383188  0.87999290  0.34717904  1
  Li  Li9  1  0.11382677  0.53280255  0.65279064  1
  Li  Li10  1  0.61381849  0.21996708  0.65276639  1
  Li  Li11  1  0.61381837  0.56717523  0.34719133  1
