# generated using pymatgen
data_Li2SiO3
_symmetry_space_group_name_H-M   'P 1'
_cell_length_a   4.77109490
_cell_length_b   5.45266634
_cell_length_c   5.49713855
_cell_angle_alpha   119.61254464
_cell_angle_beta   89.42270858
_cell_angle_gamma   90.24299315
_symmetry_Int_Tables_number   1
_chemical_formula_structural   Li2SiO3
_chemical_formula_sum   'Li4 Si2 O6'
_cell_volume   124.32385927
_cell_formula_units_Z   2
loop_
 _symmetry_equiv_pos_site_id
 _symmetry_equiv_pos_as_xyz
  1  'x, y, z'
loop_
 _atom_site_type_symbol
 _atom_site_label
 _atom_site_symmetry_multiplicity
 _atom_site_fract_x
 _atom_site_fract_y
 _atom_site_fract_z
 _atom_site_occupancy
  Si  Si0  1  0.97812589  0.22583398  0.99935961  1
  Si  Si1  1  0.63419003  0.87320398  0.99998172  1
  O  O2  1  0.99702824  0.90949036  0.99918900  1
  O  O3  1  0.61315776  0.18818098  0.99938239  1
  O  O4  1  0.07488224  0.20761403  0.71020505  1
  O  O5  1  0.06671429  0.49694811  0.28904845  1
  O  O6  1  0.53429383  0.60484239  0.71338119  1
  O  O7  1  0.53316728  0.89206538  0.28833848  1
  Li  Li8  1  0.11574842  0.87697763  0.33914105  1
  Li  Li9  1  0.11604232  0.53800291  0.65885566  1
  Li  Li10  1  0.52313306  0.22108716  0.65818829  1
  Li  Li11  1  0.53737107  0.56589570  0.34514730  1
