# generated using pymatgen
data_Sc4Al5N9
_symmetry_space_group_name_H-M   'P 1'
_cell_length_a   10.57962472
_cell_length_b   10.45354725
_cell_length_c   9.05875655
_cell_angle_alpha   89.98341940
_cell_angle_beta   90.30399767
_cell_angle_gamma   59.98636561
_symmetry_Int_Tables_number   1
_chemical_formula_structural   Sc4Al5N9
_chemical_formula_sum   'Sc16 Al20 N36'
_cell_volume   867.49077175
_cell_formula_units_Z   4
loop_
 _symmetry_equiv_pos_site_id
 _symmetry_equiv_pos_as_xyz
  1  'x, y, z'
loop_
 _atom_site_type_symbol
 _atom_site_label
 _atom_site_symmetry_multiplicity
 _atom_site_fract_x
 _atom_site_fract_y
 _atom_site_fract_z
 _atom_site_occupancy
  Sc  Sc0  1  0.09956792  0.10517858  0.34582803  1
  Sc  Sc1  1  0.86765479  0.21477271  0.59571233  1
  Sc  Sc2  1  0.45627457  0.08992422  0.34126882  1
  Sc  Sc3  1  0.09941709  0.10711845  0.85150652  1
  Sc  Sc4  1  0.22627360  0.21396933  0.60141981  1
  Sc  Sc5  1  0.45187147  0.10009389  0.85374548  1
  Sc  Sc6  1  0.10423744  0.43746292  0.34391217  1
  Sc  Sc7  1  0.88610724  0.53959718  0.60555866  1
  Sc  Sc8  1  0.45238444  0.42783216  0.34883874  1
  Sc  Sc9  1  0.10010964  0.76002767  0.34832617  1
  Sc  Sc10  1  0.22255745  0.87125580  0.10098837  1
  Sc  Sc11  1  0.46179248  0.74705794  0.34906667  1
  Sc  Sc12  1  0.09622454  0.76034059  0.85245352  1
  Sc  Sc13  1  0.22205559  0.86692900  0.60029901  1
  Sc  Sc14  1  0.45241925  0.75424279  0.85579413  1
  Sc  Sc15  1  0.57106075  0.86556560  0.60200547  1
  Al  Al16  1  0.21980249  0.21181338  0.09938750  1
  Al  Al17  1  0.76979115  0.09501715  0.83633488  1
  Al  Al18  1  0.56418817  0.20561167  0.08786366  1
  Al  Al19  1  0.77537842  0.09559533  0.32656431  1
  Al  Al20  1  0.88001682  0.20748285  0.08432984  1
  Al  Al21  1  0.56237531  0.20417775  0.58266191  1
  Al  Al22  1  0.22419676  0.53571202  0.10616945  1
  Al  Al23  1  0.77279196  0.42419546  0.85632566  1
  Al  Al24  1  0.56200410  0.53202901  0.09614384  1
  Al  Al25  1  0.11218782  0.43141042  0.86971895  1
  Al  Al26  1  0.22871759  0.53326060  0.62827089  1
  Al  Al27  1  0.77864639  0.42900049  0.31035184  1
  Al  Al28  1  0.88848973  0.54127505  0.08139854  1
  Al  Al29  1  0.44789815  0.41978904  0.87062985  1
  Al  Al30  1  0.55372814  0.52843604  0.63940397  1
  Al  Al31  1  0.78509091  0.76377132  0.84377453  1
  Al  Al32  1  0.87873923  0.87599060  0.57795987  1
  Al  Al33  1  0.56806704  0.86554476  0.08409249  1
  Al  Al34  1  0.77808455  0.75867305  0.32182436  1
  Al  Al35  1  0.87869415  0.87771249  0.08673609  1
  N  N36  1  0.22581671  0.20715695  0.34026621  1
  N  N37  1  0.09739725  0.11440658  0.09895113  1
  N  N38  1  0.86765129  0.20891525  0.86336792  1
  N  N39  1  0.76765273  0.08392206  0.61987946  1
  N  N40  1  0.57595115  0.19843604  0.36189957  1
  N  N41  1  0.45138174  0.09135941  0.09941450  1
  N  N42  1  0.21722190  0.22276845  0.85847794  1
  N  N43  1  0.10152320  0.10405928  0.60105515  1
  N  N44  1  0.86576789  0.21945627  0.34820318  1
  N  N45  1  0.77792448  0.09453482  0.11491750  1
  N  N46  1  0.56765721  0.21258145  0.87155231  1
  N  N47  1  0.45670769  0.10264965  0.60463073  1
  N  N48  1  0.22765920  0.53716992  0.32306985  1
  N  N49  1  0.10871372  0.43165573  0.09150508  1
  N  N50  1  0.89442345  0.54131771  0.86362347  1
  N  N51  1  0.75542237  0.44040766  0.63659232  1
  N  N52  1  0.57929004  0.52336724  0.31517290  1
  N  N53  1  0.44385467  0.42527449  0.09280443  1
  N  N54  1  0.23475126  0.52036120  0.85049408  1
  N  N55  1  0.11707241  0.44265020  0.59430918  1
  N  N56  1  0.86979157  0.54554957  0.34671870  1
  N  N57  1  0.78391020  0.42633413  0.08815449  1
  N  N58  1  0.55874117  0.52028362  0.86492582  1
  N  N59  1  0.44614204  0.42620027  0.60625418  1
  N  N60  1  0.22382525  0.86988294  0.34850067  1
  N  N61  1  0.09589029  0.75707786  0.09834549  1
  N  N62  1  0.86610876  0.88813385  0.87529286  1
  N  N63  1  0.79381189  0.76518445  0.62799508  1
  N  N64  1  0.57853231  0.85945967  0.35763706  1
  N  N65  1  0.46237227  0.75575444  0.09795827  1
  N  N66  1  0.21951131  0.87171039  0.85291052  1
  N  N67  1  0.09874094  0.75309231  0.60251812  1
  N  N68  1  0.86595928  0.88201562  0.35984558  1
  N  N69  1  0.78079246  0.75951402  0.10689402  1
  N  N70  1  0.57725534  0.86206648  0.86089942  1
  N  N71  1  0.45660255  0.73693910  0.60570203  1
