# generated using pymatgen
data_Sc4Al5N9
_symmetry_space_group_name_H-M   'P 1'
_cell_length_a   10.62177235
_cell_length_b   10.50786852
_cell_length_c   8.93010300
_cell_angle_alpha   89.89506138
_cell_angle_beta   90.08222712
_cell_angle_gamma   59.98037742
_symmetry_Int_Tables_number   1
_chemical_formula_structural   Sc4Al5N9
_chemical_formula_sum   'Sc16 Al20 N36'
_cell_volume   862.99937686
_cell_formula_units_Z   4
loop_
 _symmetry_equiv_pos_site_id
 _symmetry_equiv_pos_as_xyz
  1  'x, y, z'
loop_
 _atom_site_type_symbol
 _atom_site_label
 _atom_site_symmetry_multiplicity
 _atom_site_fract_x
 _atom_site_fract_y
 _atom_site_fract_z
 _atom_site_occupancy
  Sc  Sc0  1  0.10075914  0.10495608  0.34508654  1
  Sc  Sc1  1  0.86799144  0.21315047  0.59574387  1
  Sc  Sc2  1  0.45622571  0.09229041  0.34283954  1
  Sc  Sc3  1  0.09906612  0.10751229  0.85113259  1
  Sc  Sc4  1  0.22642919  0.21400058  0.60017260  1
  Sc  Sc5  1  0.45070795  0.09812672  0.85603609  1
  Sc  Sc6  1  0.10482171  0.43767946  0.34095513  1
  Sc  Sc7  1  0.88547686  0.54069432  0.60363641  1
  Sc  Sc8  1  0.45262593  0.42511689  0.35071842  1
  Sc  Sc9  1  0.09680663  0.76099240  0.34993792  1
  Sc  Sc10  1  0.22249582  0.87102506  0.10021692  1
  Sc  Sc11  1  0.46045565  0.74666416  0.34702635  1
  Sc  Sc12  1  0.10104448  0.75771499  0.85360184  1
  Sc  Sc13  1  0.22199490  0.86768653  0.59893621  1
  Sc  Sc14  1  0.45337103  0.75343184  0.85346438  1
  Sc  Sc15  1  0.57154387  0.86624867  0.59906571  1
  Al  Al16  1  0.21998061  0.21225300  0.09758953  1
  Al  Al17  1  0.77305005  0.09919387  0.87564302  1
  Al  Al18  1  0.56189875  0.20728486  0.10635267  1
  Al  Al19  1  0.77266519  0.09117452  0.34860521  1
  Al  Al20  1  0.88058039  0.20990492  0.09753030  1
  Al  Al21  1  0.56312068  0.20554034  0.62187676  1
  Al  Al22  1  0.22579165  0.53456721  0.10177138  1
  Al  Al23  1  0.77386470  0.42439191  0.85392182  1
  Al  Al24  1  0.56223381  0.53053113  0.09416009  1
  Al  Al25  1  0.11204597  0.43105688  0.86309906  1
  Al  Al26  1  0.22768760  0.53405025  0.62337369  1
  Al  Al27  1  0.77653306  0.43024846  0.31378680  1
  Al  Al28  1  0.88858174  0.53877489  0.08292595  1
  Al  Al29  1  0.44877422  0.42094878  0.86595463  1
  Al  Al30  1  0.55520121  0.52948632  0.63157108  1
  Al  Al31  1  0.78240087  0.76197093  0.85263657  1
  Al  Al32  1  0.87888324  0.87885242  0.61884615  1
  Al  Al33  1  0.56553437  0.86571900  0.09064460  1
  Al  Al34  1  0.77925614  0.75891780  0.31855223  1
  Al  Al35  1  0.88090676  0.87577350  0.10055695  1
  N  N36  1  0.22554074  0.20835011  0.33844654  1
  N  N37  1  0.09849572  0.11421191  0.09756180  1
  N  N38  1  0.86855014  0.21112556  0.85627518  1
  N  N39  1  0.76653877  0.08466678  0.57845737  1
  N  N40  1  0.57269279  0.20005037  0.32361800  1
  N  N41  1  0.44802302  0.09232227  0.09624429  1
  N  N42  1  0.21716525  0.22233645  0.85566740  1
  N  N43  1  0.10165280  0.10420542  0.59808864  1
  N  N44  1  0.86637605  0.21794042  0.33554067  1
  N  N45  1  0.77842176  0.09497535  0.09352779  1
  N  N46  1  0.56887901  0.21228768  0.84670286  1
  N  N47  1  0.45783502  0.10344513  0.60044196  1
  N  N48  1  0.22792126  0.53763879  0.32408810  1
  N  N49  1  0.10932892  0.43163499  0.08821515  1
  N  N50  1  0.89392251  0.53816100  0.85981157  1
  N  N51  1  0.75620268  0.43984678  0.62474389  1
  N  N52  1  0.57767141  0.52287834  0.31796816  1
  N  N53  1  0.44434518  0.42524326  0.08610291  1
  N  N54  1  0.23551564  0.51969320  0.84798665  1
  N  N55  1  0.11638217  0.44259155  0.59579757  1
  N  N56  1  0.87017124  0.54642443  0.33688033  1
  N  N57  1  0.78211215  0.42690966  0.08639689  1
  N  N58  1  0.56097724  0.51995171  0.85949183  1
  N  N59  1  0.44656483  0.42663128  0.60486775  1
  N  N60  1  0.22246357  0.86992952  0.34742880  1
  N  N61  1  0.09815250  0.75532482  0.09472306  1
  N  N62  1  0.86775386  0.88956208  0.85193044  1
  N  N63  1  0.79239350  0.76474448  0.61963352  1
  N  N64  1  0.57800299  0.85974229  0.34394625  1
  N  N65  1  0.46150756  0.75354865  0.09647974  1
  N  N66  1  0.22044478  0.87201701  0.85064211  1
  N  N67  1  0.09760620  0.75425066  0.60218498  1
  N  N68  1  0.86698053  0.87938933  0.32663181  1
  N  N69  1  0.78073633  0.75823648  0.09136120  1
  N  N70  1  0.57462055  0.86318727  0.85707232  1
  N  N71  1  0.45692467  0.73814518  0.60152666  1
