# generated using pymatgen
data_Sc4Al5N9
_symmetry_space_group_name_H-M   'P 1'
_cell_length_a   10.43970714
_cell_length_b   10.33798407
_cell_length_c   9.40445529
_cell_angle_alpha   89.94347531
_cell_angle_beta   90.13998359
_cell_angle_gamma   60.10240312
_symmetry_Int_Tables_number   1
_chemical_formula_structural   Sc4Al5N9
_chemical_formula_sum   'Sc16 Al20 N36'
_cell_volume   879.89929233
_cell_formula_units_Z   4
loop_
 _symmetry_equiv_pos_site_id
 _symmetry_equiv_pos_as_xyz
  1  'x, y, z'
loop_
 _atom_site_type_symbol
 _atom_site_label
 _atom_site_symmetry_multiplicity
 _atom_site_fract_x
 _atom_site_fract_y
 _atom_site_fract_z
 _atom_site_occupancy
  Sc  Sc0  1  0.09937971  0.10599806  0.33997497  1
  Sc  Sc1  1  0.86954081  0.21208240  0.59084450  1
  Sc  Sc2  1  0.45635322  0.08935007  0.33200165  1
  Sc  Sc3  1  0.09864133  0.10635288  0.84764471  1
  Sc  Sc4  1  0.22686918  0.21382365  0.59716091  1
  Sc  Sc5  1  0.45198096  0.09964742  0.84999236  1
  Sc  Sc6  1  0.10294391  0.43524810  0.34355820  1
  Sc  Sc7  1  0.88751247  0.54065170  0.59933731  1
  Sc  Sc8  1  0.45214194  0.42329496  0.34684196  1
  Sc  Sc9  1  0.09842780  0.76249087  0.34652911  1
  Sc  Sc10  1  0.22397471  0.87055586  0.09656286  1
  Sc  Sc11  1  0.46079793  0.75151315  0.34092149  1
  Sc  Sc12  1  0.09781660  0.75877214  0.85239349  1
  Sc  Sc13  1  0.22196743  0.86758661  0.59636330  1
  Sc  Sc14  1  0.45554466  0.74582717  0.84484712  1
  Sc  Sc15  1  0.56966218  0.86806458  0.59843188  1
  Al  Al16  1  0.21992136  0.21141702  0.08159139  1
  Al  Al17  1  0.76970992  0.09522835  0.83168021  1
  Al  Al18  1  0.56233779  0.21256944  0.07522343  1
  Al  Al19  1  0.77454777  0.09614346  0.32271096  1
  Al  Al20  1  0.87690827  0.21206162  0.07746526  1
  Al  Al21  1  0.56489866  0.19994217  0.57880388  1
  Al  Al22  1  0.22737437  0.53570854  0.11593883  1
  Al  Al23  1  0.76849241  0.42623333  0.83853245  1
  Al  Al24  1  0.56206522  0.52716197  0.07656877  1
  Al  Al25  1  0.11188792  0.43353532  0.87728167  1
  Al  Al26  1  0.22455526  0.53594345  0.62794797  1
  Al  Al27  1  0.77620344  0.42942898  0.31779499  1
  Al  Al28  1  0.88317174  0.54204558  0.07804720  1
  Al  Al29  1  0.45360626  0.42004645  0.82870717  1
  Al  Al30  1  0.56151088  0.53115833  0.57911344  1
  Al  Al31  1  0.78523355  0.76339512  0.83582331  1
  Al  Al32  1  0.87946645  0.87606660  0.57422783  1
  Al  Al33  1  0.56952240  0.86207184  0.07138457  1
  Al  Al34  1  0.77673042  0.75969431  0.32066056  1
  Al  Al35  1  0.87721435  0.87785035  0.08197110  1
  N  N36  1  0.22792108  0.20479033  0.35693334  1
  N  N37  1  0.09657313  0.11649675  0.09867035  1
  N  N38  1  0.86510503  0.21307381  0.86878183  1
  N  N39  1  0.76911825  0.08169084  0.62880838  1
  N  N40  1  0.57753158  0.19463538  0.37561157  1
  N  N41  1  0.44914556  0.09200651  0.09663263  1
  N  N42  1  0.21539753  0.22452956  0.86285311  1
  N  N43  1  0.10190858  0.10256934  0.60805093  1
  N  N44  1  0.86563140  0.21766471  0.35917564  1
  N  N45  1  0.77568349  0.09681140  0.12001578  1
  N  N46  1  0.56681364  0.21590068  0.87394838  1
  N  N47  1  0.45701375  0.10312407  0.61605443  1
  N  N48  1  0.22522795  0.53860949  0.32270161  1
  N  N49  1  0.10931106  0.43175638  0.09240341  1
  N  N50  1  0.89117640  0.54011976  0.86839374  1
  N  N51  1  0.75771313  0.43900647  0.63835843  1
  N  N52  1  0.58023349  0.52343063  0.37466723  1
  N  N53  1  0.44866726  0.42586583  0.11161910  1
  N  N54  1  0.23670858  0.51870768  0.84178407  1
  N  N55  1  0.11698082  0.44327893  0.58567698  1
  N  N56  1  0.86743426  0.54791671  0.35785925  1
  N  N57  1  0.77713926  0.42852218  0.11048019  1
  N  N58  1  0.56313023  0.51560467  0.87575669  1
  N  N59  1  0.44826313  0.42579950  0.61265694  1
  N  N60  1  0.22381039  0.87117987  0.34671941  1
  N  N61  1  0.09665013  0.75604107  0.09815644  1
  N  N62  1  0.86457247  0.88863401  0.88179911  1
  N  N63  1  0.79484858  0.76625392  0.63479141  1
  N  N64  1  0.57833496  0.86154278  0.36914122  1
  N  N65  1  0.46802009  0.74707929  0.10112065  1
  N  N66  1  0.22120627  0.87012498  0.85656091  1
  N  N67  1  0.09806735  0.75435275  0.60288456  1
  N  N68  1  0.86428954  0.88365953  0.36671686  1
  N  N69  1  0.77930352  0.75947771  0.11543203  1
  N  N70  1  0.57779691  0.85915278  0.86379222  1
  N  N71  1  0.45497122  0.74113701  0.60841231  1
