# generated using pymatgen
data_Sc4Al5N9
_symmetry_space_group_name_H-M   'P 1'
_cell_length_a   10.60439957
_cell_length_b   10.48145609
_cell_length_c   8.96379813
_cell_angle_alpha   89.97572663
_cell_angle_beta   90.15482937
_cell_angle_gamma   60.07579280
_symmetry_Int_Tables_number   1
_chemical_formula_structural   Sc4Al5N9
_chemical_formula_sum   'Sc16 Al20 N36'
_cell_volume   863.49353351
_cell_formula_units_Z   4
loop_
 _symmetry_equiv_pos_site_id
 _symmetry_equiv_pos_as_xyz
  1  'x, y, z'
loop_
 _atom_site_type_symbol
 _atom_site_label
 _atom_site_symmetry_multiplicity
 _atom_site_fract_x
 _atom_site_fract_y
 _atom_site_fract_z
 _atom_site_occupancy
  Sc  Sc0  1  0.09981227  0.10550180  0.34555852  1
  Sc  Sc1  1  0.86881406  0.21295126  0.59645515  1
  Sc  Sc2  1  0.45600676  0.09110902  0.34153377  1
  Sc  Sc3  1  0.09886946  0.10751640  0.85238359  1
  Sc  Sc4  1  0.22635039  0.21380527  0.60156293  1
  Sc  Sc5  1  0.45160698  0.09862394  0.85418727  1
  Sc  Sc6  1  0.10432558  0.43775328  0.34304315  1
  Sc  Sc7  1  0.88654407  0.54020523  0.60651985  1
  Sc  Sc8  1  0.45046702  0.42551684  0.34730780  1
  Sc  Sc9  1  0.10021348  0.76004541  0.34767266  1
  Sc  Sc10  1  0.22302800  0.87118109  0.09990381  1
  Sc  Sc11  1  0.45966513  0.74985446  0.34755825  1
  Sc  Sc12  1  0.09617376  0.76103076  0.85246789  1
  Sc  Sc13  1  0.22197820  0.86789211  0.60004235  1
  Sc  Sc14  1  0.45492866  0.74955496  0.85230906  1
  Sc  Sc15  1  0.57171699  0.86601178  0.60134877  1
  Al  Al16  1  0.21922489  0.21298316  0.09807195  1
  Al  Al17  1  0.77071599  0.09494536  0.83989425  1
  Al  Al18  1  0.56353940  0.20703465  0.08541993  1
  Al  Al19  1  0.77446286  0.09525276  0.32753329  1
  Al  Al20  1  0.87824158  0.20967491  0.08918147  1
  Al  Al21  1  0.56283638  0.20343898  0.58756756  1
  Al  Al22  1  0.22513670  0.53529390  0.10091672  1
  Al  Al23  1  0.77045582  0.42538311  0.85255142  1
  Al  Al24  1  0.56243267  0.53028360  0.09214619  1
  Al  Al25  1  0.11140734  0.43135565  0.86645273  1
  Al  Al26  1  0.22807062  0.53448591  0.62767668  1
  Al  Al27  1  0.77717625  0.42950704  0.31810715  1
  Al  Al28  1  0.88723506  0.53991960  0.08490701  1
  Al  Al29  1  0.45128374  0.42074608  0.85853898  1
  Al  Al30  1  0.55708886  0.52994929  0.60720240  1
  Al  Al31  1  0.78408323  0.76321239  0.84836728  1
  Al  Al32  1  0.87901431  0.87581120  0.58025642  1
  Al  Al33  1  0.56805248  0.86433905  0.08797703  1
  Al  Al34  1  0.77890390  0.75865487  0.32182060  1
  Al  Al35  1  0.87891864  0.87772832  0.08862199  1
  N  N36  1  0.22567448  0.20817567  0.34065493  1
  N  N37  1  0.09721334  0.11472358  0.09909078  1
  N  N38  1  0.86712895  0.21088049  0.86369257  1
  N  N39  1  0.76872319  0.08312501  0.61897512  1
  N  N40  1  0.57598452  0.19816146  0.36330879  1
  N  N41  1  0.45104461  0.09260701  0.09899181  1
  N  N42  1  0.21737150  0.22240989  0.85909062  1
  N  N43  1  0.10159836  0.10420626  0.60084332  1
  N  N44  1  0.86635200  0.21772498  0.34537156  1
  N  N45  1  0.77619368  0.09510572  0.11198483  1
  N  N46  1  0.56691218  0.21273736  0.86625152  1
  N  N47  1  0.45639287  0.10187352  0.60399015  1
  N  N48  1  0.22686631  0.53757003  0.32340049  1
  N  N49  1  0.10789194  0.43193840  0.09089361  1
  N  N50  1  0.89235199  0.53909285  0.86418387  1
  N  N51  1  0.75748688  0.43911982  0.63046834  1
  N  N52  1  0.57858384  0.52288812  0.34415589  1
  N  N53  1  0.44732963  0.42492798  0.09382810  1
  N  N54  1  0.23503414  0.52128466  0.85411204  1
  N  N55  1  0.11713125  0.44265761  0.59932167  1
  N  N56  1  0.87044605  0.54621028  0.34485748  1
  N  N57  1  0.77934302  0.42787680  0.09543327  1
  N  N58  1  0.56185605  0.51934617  0.86568403  1
  N  N59  1  0.44523310  0.42692001  0.61037198  1
  N  N60  1  0.22292768  0.87095117  0.34814838  1
  N  N61  1  0.09617581  0.75792388  0.09830533  1
  N  N62  1  0.86671786  0.88749650  0.87378384  1
  N  N63  1  0.79362630  0.76493849  0.62708591  1
  N  N64  1  0.57856440  0.86037262  0.35148406  1
  N  N65  1  0.46408584  0.75080976  0.09985215  1
  N  N66  1  0.22067672  0.87157807  0.85235975  1
  N  N67  1  0.09888361  0.75310327  0.60223853  1
  N  N68  1  0.86631871  0.88182794  0.35719824  1
  N  N69  1  0.78144888  0.75869264  0.10372933  1
  N  N70  1  0.57628387  0.86132594  0.86134878  1
  N  N71  1  0.45599059  0.74037263  0.60286138  1
