# generated using pymatgen
data_Sc4Al5N9
_symmetry_space_group_name_H-M   'P 1'
_cell_length_a   10.33633812
_cell_length_b   10.24852648
_cell_length_c   9.69904669
_cell_angle_alpha   89.82723796
_cell_angle_beta   90.06522034
_cell_angle_gamma   60.09718097
_symmetry_Int_Tables_number   1
_chemical_formula_structural   Sc4Al5N9
_chemical_formula_sum   'Sc16 Al20 N36'
_cell_volume   890.65247888
_cell_formula_units_Z   4
loop_
 _symmetry_equiv_pos_site_id
 _symmetry_equiv_pos_as_xyz
  1  'x, y, z'
loop_
 _atom_site_type_symbol
 _atom_site_label
 _atom_site_symmetry_multiplicity
 _atom_site_fract_x
 _atom_site_fract_y
 _atom_site_fract_z
 _atom_site_occupancy
  Sc  Sc0  1  0.10079044  0.10651766  0.32947700  1
  Sc  Sc1  1  0.87149360  0.21063027  0.58445563  1
  Sc  Sc2  1  0.45316479  0.09193077  0.32214479  1
  Sc  Sc3  1  0.09814347  0.10421101  0.84457197  1
  Sc  Sc4  1  0.22850170  0.20883982  0.59566267  1
  Sc  Sc5  1  0.45288272  0.09939380  0.84901765  1
  Sc  Sc6  1  0.10056721  0.43146679  0.33621188  1
  Sc  Sc7  1  0.88178288  0.54375102  0.59341166  1
  Sc  Sc8  1  0.45378984  0.42211659  0.34479874  1
  Sc  Sc9  1  0.09702319  0.76335597  0.34280637  1
  Sc  Sc10  1  0.22499377  0.86967201  0.09220829  1
  Sc  Sc11  1  0.46214011  0.75146348  0.33342765  1
  Sc  Sc12  1  0.09981627  0.75703556  0.85273749  1
  Sc  Sc13  1  0.22245582  0.86693823  0.58867841  1
  Sc  Sc14  1  0.45599748  0.74554965  0.84092747  1
  Sc  Sc15  1  0.56694679  0.87133343  0.59228635  1
  Al  Al16  1  0.21406375  0.22007187  0.06356994  1
  Al  Al17  1  0.76996506  0.09601387  0.82816804  1
  Al  Al18  1  0.56156025  0.21409109  0.07088370  1
  Al  Al19  1  0.77416082  0.09561174  0.32072517  1
  Al  Al20  1  0.87643977  0.21350038  0.07357891  1
  Al  Al21  1  0.56521593  0.19884597  0.57651949  1
  Al  Al22  1  0.22464639  0.53350371  0.12127143  1
  Al  Al23  1  0.76912423  0.42554307  0.83279732  1
  Al  Al24  1  0.56341523  0.52653316  0.07305526  1
  Al  Al25  1  0.11091961  0.43450446  0.82861971  1
  Al  Al26  1  0.22725698  0.53837124  0.62812655  1
  Al  Al27  1  0.77663836  0.43003553  0.31625674  1
  Al  Al28  1  0.88937749  0.53933341  0.06774911  1
  Al  Al29  1  0.45586831  0.41970097  0.82250280  1
  Al  Al30  1  0.56160760  0.53164929  0.57543670  1
  Al  Al31  1  0.78423358  0.76423487  0.83024794  1
  Al  Al32  1  0.87983794  0.87634272  0.57258726  1
  Al  Al33  1  0.57103165  0.86058529  0.06718200  1
  Al  Al34  1  0.77649005  0.76047459  0.31892842  1
  Al  Al35  1  0.87654684  0.87731284  0.07744028  1
  N  N36  1  0.22814613  0.20380838  0.37493029  1
  N  N37  1  0.09765159  0.11788200  0.09848219  1
  N  N38  1  0.86429156  0.21396931  0.87368996  1
  N  N39  1  0.76978781  0.08209490  0.63226371  1
  N  N40  1  0.57719891  0.19241533  0.38087246  1
  N  N41  1  0.44605788  0.09524667  0.09441917  1
  N  N42  1  0.21312331  0.22632973  0.86329285  1
  N  N43  1  0.10228837  0.09928203  0.61788508  1
  N  N44  1  0.86714776  0.21671262  0.36203315  1
  N  N45  1  0.77543177  0.09652888  0.12389843  1
  N  N46  1  0.56767262  0.21722652  0.87714516  1
  N  N47  1  0.45801520  0.10378981  0.62620496  1
  N  N48  1  0.22356249  0.53620955  0.32816459  1
  N  N49  1  0.10706186  0.43106916  0.10578763  1
  N  N50  1  0.89074518  0.54029235  0.86702499  1
  N  N51  1  0.75720640  0.43705217  0.64039465  1
  N  N52  1  0.58094556  0.52427018  0.37960824  1
  N  N53  1  0.44843980  0.42622840  0.11801257  1
  N  N54  1  0.24031566  0.51969553  0.83721895  1
  N  N55  1  0.11440694  0.44201085  0.61833607  1
  N  N56  1  0.86633484  0.54947679  0.36846814  1
  N  N57  1  0.77868158  0.42921714  0.11609397  1
  N  N58  1  0.56485909  0.51450897  0.87928450  1
  N  N59  1  0.45027647  0.42489777  0.61315452  1
  N  N60  1  0.22449017  0.87137425  0.34784052  1
  N  N61  1  0.09657964  0.75421525  0.10060248  1
  N  N62  1  0.86389057  0.88888869  0.88386132  1
  N  N63  1  0.79230974  0.76908187  0.63728114  1
  N  N64  1  0.57655850  0.86489584  0.37105113  1
  N  N65  1  0.46940129  0.74608394  0.10300378  1
  N  N66  1  0.22228108  0.86844519  0.86436410  1
  N  N67  1  0.09816766  0.75442549  0.60284150  1
  N  N68  1  0.86337457  0.88427676  0.37244259  1
  N  N69  1  0.78071987  0.75779489  0.11987171  1
  N  N70  1  0.57849811  0.85834290  0.86855735  1
  N  N71  1  0.45563810  0.74099331  0.61324044  1
