# generated using pymatgen
data_Sc4Al5N9
_symmetry_space_group_name_H-M   'P 1'
_cell_length_a   10.45029941
_cell_length_b   10.34691474
_cell_length_c   9.37361871
_cell_angle_alpha   89.94957554
_cell_angle_beta   90.13834676
_cell_angle_gamma   60.10406399
_symmetry_Int_Tables_number   1
_chemical_formula_structural   Sc4Al5N9
_chemical_formula_sum   'Sc16 Al20 N36'
_cell_volume   878.67739430
_cell_formula_units_Z   4
loop_
 _symmetry_equiv_pos_site_id
 _symmetry_equiv_pos_as_xyz
  1  'x, y, z'
loop_
 _atom_site_type_symbol
 _atom_site_label
 _atom_site_symmetry_multiplicity
 _atom_site_fract_x
 _atom_site_fract_y
 _atom_site_fract_z
 _atom_site_occupancy
  Sc  Sc0  1  0.09917917  0.10596569  0.34069823  1
  Sc  Sc1  1  0.86944543  0.21215545  0.59150587  1
  Sc  Sc2  1  0.45662895  0.08924497  0.33292300  1
  Sc  Sc3  1  0.09877726  0.10654307  0.84818306  1
  Sc  Sc4  1  0.22678944  0.21395331  0.59728654  1
  Sc  Sc5  1  0.45172889  0.09969460  0.85030565  1
  Sc  Sc6  1  0.10289126  0.43571792  0.34335270  1
  Sc  Sc7  1  0.88765228  0.54051520  0.59997049  1
  Sc  Sc8  1  0.45197726  0.42340361  0.34683510  1
  Sc  Sc9  1  0.09857083  0.76240041  0.34662609  1
  Sc  Sc10  1  0.22392767  0.87063383  0.09688906  1
  Sc  Sc11  1  0.46067886  0.75149099  0.34149618  1
  Sc  Sc12  1  0.09766989  0.75892921  0.85245358  1
  Sc  Sc13  1  0.22194489  0.86763151  0.59681412  1
  Sc  Sc14  1  0.45552298  0.74587877  0.84520334  1
  Sc  Sc15  1  0.56988323  0.86781264  0.59885062  1
  Al  Al16  1  0.21998103  0.21137231  0.08425428  1
  Al  Al17  1  0.76973638  0.09511730  0.83211190  1
  Al  Al18  1  0.56239504  0.21227603  0.07567045  1
  Al  Al19  1  0.77455186  0.09619555  0.32292817  1
  Al  Al20  1  0.87693941  0.21191484  0.07795799  1
  Al  Al21  1  0.56482168  0.20012160  0.57919960  1
  Al  Al22  1  0.22740536  0.53576002  0.11492756  1
  Al  Al23  1  0.76850179  0.42625998  0.83923274  1
  Al  Al24  1  0.56201932  0.52726748  0.07702405  1
  Al  Al25  1  0.11198309  0.43318526  0.87728714  1
  Al  Al26  1  0.22471268  0.53588244  0.62786477  1
  Al  Al27  1  0.77620309  0.42940067  0.31789589  1
  Al  Al28  1  0.88328608  0.54194707  0.07855798  1
  Al  Al29  1  0.45344718  0.42011701  0.82985123  1
  Al  Al30  1  0.56144822  0.53108192  0.57950939  1
  Al  Al31  1  0.78526084  0.76334777  0.83651245  1
  Al  Al32  1  0.87943777  0.87603124  0.57440988  1
  Al  Al33  1  0.56945479  0.86218285  0.07202695  1
  Al  Al34  1  0.77680492  0.75958475  0.32073416  1
  Al  Al35  1  0.87729166  0.87787132  0.08249837  1
  N  N36  1  0.22769347  0.20514801  0.35421184  1
  N  N37  1  0.09641079  0.11635774  0.09864774  1
  N  N38  1  0.86523998  0.21294175  0.86825922  1
  N  N39  1  0.76908338  0.08166744  0.62835162  1
  N  N40  1  0.57752798  0.19488252  0.37504250  1
  N  N41  1  0.44955115  0.09181204  0.09683714  1
  N  N42  1  0.21554862  0.22442226  0.86252605  1
  N  N43  1  0.10194768  0.10278438  0.60706922  1
  N  N44  1  0.86553306  0.21773881  0.35869017  1
  N  N45  1  0.77567181  0.09682535  0.11953418  1
  N  N46  1  0.56675107  0.21568314  0.87346331  1
  N  N47  1  0.45683303  0.10306108  0.61484157  1
  N  N48  1  0.22534843  0.53871118  0.32269393  1
  N  N49  1  0.10917310  0.43185935  0.09247640  1
  N  N50  1  0.89133617  0.53997070  0.86813735  1
  N  N51  1  0.75770713  0.43910949  0.63806229  1
  N  N52  1  0.58016824  0.52334083  0.37397950  1
  N  N53  1  0.44861487  0.42580835  0.11073516  1
  N  N54  1  0.23660775  0.51882837  0.84271010  1
  N  N55  1  0.11712103  0.44317680  0.58595162  1
  N  N56  1  0.86755442  0.54780549  0.35712769  1
  N  N57  1  0.77712554  0.42847688  0.10974456  1
  N  N58  1  0.56305651  0.51576747  0.87539113  1
  N  N59  1  0.44806322  0.42589162  0.61265773  1
  N  N60  1  0.22375077  0.87121247  0.34671360  1
  N  N61  1  0.09665489  0.75621911  0.09813395  1
  N  N62  1  0.86469974  0.88855809  0.88152743  1
  N  N63  1  0.79493622  0.76608611  0.63445365  1
  N  N64  1  0.57844997  0.86131312  0.36853108  1
  N  N65  1  0.46788956  0.74717959  0.10100271  1
  N  N66  1  0.22116268  0.87027313  0.85603670  1
  N  N67  1  0.09807384  0.75430023  0.60283807  1
  N  N68  1  0.86439464  0.88357368  0.36602634  1
  N  N69  1  0.77936055  0.75941822  0.11477288  1
  N  N70  1  0.57768717  0.85926162  0.86342186  1
  N  N71  1  0.45493453  0.74115419  0.60788725  1
