# generated using pymatgen
data_Sc4Al5N9
_symmetry_space_group_name_H-M   'P 1'
_cell_length_a   10.59786926
_cell_length_b   10.47645891
_cell_length_c   8.97786470
_cell_angle_alpha   89.97817039
_cell_angle_beta   90.12491661
_cell_angle_gamma   60.07851040
_symmetry_Int_Tables_number   1
_chemical_formula_structural   Sc4Al5N9
_chemical_formula_sum   'Sc16 Al20 N36'
_cell_volume   863.92917549
_cell_formula_units_Z   4
loop_
 _symmetry_equiv_pos_site_id
 _symmetry_equiv_pos_as_xyz
  1  'x, y, z'
loop_
 _atom_site_type_symbol
 _atom_site_label
 _atom_site_symmetry_multiplicity
 _atom_site_fract_x
 _atom_site_fract_y
 _atom_site_fract_z
 _atom_site_occupancy
  Sc  Sc0  1  0.09965375  0.10558772  0.34548489  1
  Sc  Sc1  1  0.86891136  0.21285031  0.59650830  1
  Sc  Sc2  1  0.45601751  0.09108832  0.34132074  1
  Sc  Sc3  1  0.09885240  0.10751668  0.85243731  1
  Sc  Sc4  1  0.22633897  0.21384417  0.60156722  1
  Sc  Sc5  1  0.45154160  0.09859457  0.85411998  1
  Sc  Sc6  1  0.10408120  0.43780678  0.34306986  1
  Sc  Sc7  1  0.88671764  0.54023609  0.60668102  1
  Sc  Sc8  1  0.45000694  0.42503348  0.34640819  1
  Sc  Sc9  1  0.10012717  0.76018496  0.34760621  1
  Sc  Sc10  1  0.22317312  0.87104278  0.09952701  1
  Sc  Sc11  1  0.45926050  0.75072763  0.34678620  1
  Sc  Sc12  1  0.09624215  0.76100820  0.85242227  1
  Sc  Sc13  1  0.22203849  0.86794332  0.59988914  1
  Sc  Sc14  1  0.45555191  0.74814935  0.85054372  1
  Sc  Sc15  1  0.57166328  0.86619224  0.60118756  1
  Al  Al16  1  0.21921645  0.21294674  0.09805773  1
  Al  Al17  1  0.77066144  0.09501982  0.83969236  1
  Al  Al18  1  0.56354496  0.20732431  0.08467952  1
  Al  Al19  1  0.77444860  0.09521554  0.32743079  1
  Al  Al20  1  0.87789341  0.21001404  0.08919139  1
  Al  Al21  1  0.56280447  0.20353264  0.58722041  1
  Al  Al22  1  0.22523091  0.53536504  0.10079373  1
  Al  Al23  1  0.76961820  0.42568222  0.85068069  1
  Al  Al24  1  0.56232378  0.52988583  0.08726900  1
  Al  Al25  1  0.11140165  0.43130626  0.86690039  1
  Al  Al26  1  0.22819007  0.53449737  0.62776940  1
  Al  Al27  1  0.77668347  0.42969735  0.31895398  1
  Al  Al28  1  0.88681674  0.53992153  0.08504564  1
  Al  Al29  1  0.45209822  0.42098493  0.85489948  1
  Al  Al30  1  0.55883773  0.52996868  0.59318185  1
  Al  Al31  1  0.78400940  0.76318355  0.84822528  1
  Al  Al32  1  0.87903395  0.87579990  0.58019248  1
  Al  Al33  1  0.56815400  0.86400717  0.08726705  1
  Al  Al34  1  0.77888939  0.75871207  0.32169777  1
  Al  Al35  1  0.87886814  0.87778539  0.08839975  1
  N  N36  1  0.22565014  0.20818130  0.34080358  1
  N  N37  1  0.09708936  0.11481294  0.09914064  1
  N  N38  1  0.86693155  0.21125847  0.86424527  1
  N  N39  1  0.76870956  0.08308280  0.61950307  1
  N  N40  1  0.57603297  0.19800571  0.36399235  1
  N  N41  1  0.45094766  0.09259569  0.09893136  1
  N  N42  1  0.21731673  0.22243277  0.85910341  1
  N  N43  1  0.10159488  0.10417684  0.60100567  1
  N  N44  1  0.86619703  0.21765726  0.34602965  1
  N  N45  1  0.77609315  0.09515975  0.11234866  1
  N  N46  1  0.56679846  0.21294606  0.86658331  1
  N  N47  1  0.45636233  0.10195520  0.60423548  1
  N  N48  1  0.22654155  0.53771682  0.32326262  1
  N  N49  1  0.10780264  0.43191063  0.09103444  1
  N  N50  1  0.89209245  0.53884185  0.86470972  1
  N  N51  1  0.75777641  0.43903885  0.63146537  1
  N  N52  1  0.57886836  0.52264951  0.35697979  1
  N  N53  1  0.44798007  0.42505499  0.09550820  1
  N  N54  1  0.23531584  0.52116645  0.85445285  1
  N  N55  1  0.11721930  0.44271775  0.59927059  1
  N  N56  1  0.87018816  0.54643621  0.34550310  1
  N  N57  1  0.77809273  0.42835281  0.09828459  1
  N  N58  1  0.56243151  0.51891071  0.86874698  1
  N  N59  1  0.44541757  0.42706088  0.61107872  1
  N  N60  1  0.22287459  0.87108606  0.34795848  1
  N  N61  1  0.09618836  0.75801036  0.09831216  1
  N  N62  1  0.86664466  0.88755652  0.87414973  1
  N  N63  1  0.79368601  0.76497673  0.62770238  1
  N  N64  1  0.57857091  0.86050268  0.35185587  1
  N  N65  1  0.46488729  0.74935882  0.10047541  1
  N  N66  1  0.22095290  0.87139379  0.85246048  1
  N  N67  1  0.09891392  0.75309043  0.60232094  1
  N  N68  1  0.86624443  0.88186909  0.35760346  1
  N  N69  1  0.78141720  0.75867423  0.10405114  1
  N  N70  1  0.57613932  0.86107707  0.86160279  1
  N  N71  1  0.45575267  0.74113505  0.60259773  1
