# generated using pymatgen
data_Sc4Al5N9
_symmetry_space_group_name_H-M   'P 1'
_cell_length_a   10.47315351
_cell_length_b   10.36603761
_cell_length_c   9.30799771
_cell_angle_alpha   89.99120548
_cell_angle_beta   90.14708627
_cell_angle_gamma   60.11376701
_symmetry_Int_Tables_number   1
_chemical_formula_structural   Sc4Al5N9
_chemical_formula_sum   'Sc16 Al20 N36'
_cell_volume   876.13666587
_cell_formula_units_Z   4
loop_
 _symmetry_equiv_pos_site_id
 _symmetry_equiv_pos_as_xyz
  1  'x, y, z'
loop_
 _atom_site_type_symbol
 _atom_site_label
 _atom_site_symmetry_multiplicity
 _atom_site_fract_x
 _atom_site_fract_y
 _atom_site_fract_z
 _atom_site_occupancy
  Sc  Sc0  1  0.09801838  0.10544324  0.34407327  1
  Sc  Sc1  1  0.86914432  0.21227603  0.59358514  1
  Sc  Sc2  1  0.45859212  0.08836929  0.33695235  1
  Sc  Sc3  1  0.09968847  0.10779839  0.85100070  1
  Sc  Sc4  1  0.22590488  0.21545354  0.60135889  1
  Sc  Sc5  1  0.44957587  0.10037405  0.85212336  1
  Sc  Sc6  1  0.10237123  0.43829125  0.34364052  1
  Sc  Sc7  1  0.88827868  0.54011042  0.60157913  1
  Sc  Sc8  1  0.45161407  0.42377034  0.34649040  1
  Sc  Sc9  1  0.09893923  0.76235298  0.34680665  1
  Sc  Sc10  1  0.22374133  0.87097993  0.09777461  1
  Sc  Sc11  1  0.46050911  0.75124116  0.34279074  1
  Sc  Sc12  1  0.09723175  0.75944436  0.85259420  1
  Sc  Sc13  1  0.22194316  0.86779634  0.59832107  1
  Sc  Sc14  1  0.45542792  0.74598454  0.84616144  1
  Sc  Sc15  1  0.57047584  0.86699126  0.60034290  1
  Al  Al16  1  0.22065485  0.21045954  0.10718479  1
  Al  Al17  1  0.76964243  0.09477517  0.83315753  1
  Al  Al18  1  0.56252825  0.21122963  0.07658060  1
  Al  Al19  1  0.77460737  0.09637278  0.32335557  1
  Al  Al20  1  0.87701943  0.21148187  0.07895182  1
  Al  Al21  1  0.56449810  0.20076939  0.58043075  1
  Al  Al22  1  0.22761589  0.53591532  0.11212279  1
  Al  Al23  1  0.76871082  0.42637394  0.84074745  1
  Al  Al24  1  0.56207184  0.52740209  0.07783006  1
  Al  Al25  1  0.11302566  0.43072428  0.88003434  1
  Al  Al26  1  0.22498624  0.53569777  0.62802369  1
  Al  Al27  1  0.77613511  0.42922797  0.31815619  1
  Al  Al28  1  0.88348863  0.54150021  0.08000576  1
  Al  Al29  1  0.45297815  0.42016580  0.83291388  1
  Al  Al30  1  0.56123841  0.53087429  0.58061376  1
  Al  Al31  1  0.78534737  0.76308430  0.83842077  1
  Al  Al32  1  0.87935041  0.87588111  0.57493989  1
  Al  Al33  1  0.56926661  0.86263082  0.07353325  1
  Al  Al34  1  0.77697730  0.75927855  0.32073606  1
  Al  Al35  1  0.87750552  0.87792878  0.08352844  1
  N  N36  1  0.22683616  0.20627675  0.33594679  1
  N  N37  1  0.09571430  0.11591046  0.09856974  1
  N  N38  1  0.86568201  0.21260426  0.86676295  1
  N  N39  1  0.76888462  0.08155025  0.62743729  1
  N  N40  1  0.57775263  0.19575978  0.37385851  1
  N  N41  1  0.45113063  0.09104044  0.09779311  1
  N  N42  1  0.21539251  0.22503748  0.85230736  1
  N  N43  1  0.10222364  0.10354916  0.60221914  1
  N  N44  1  0.86498450  0.21797538  0.35780157  1
  N  N45  1  0.77562441  0.09682635  0.11832040  1
  N  N46  1  0.56626577  0.21491664  0.87201943  1
  N  N47  1  0.45596474  0.10292287  0.60994151  1
  N  N48  1  0.22585759  0.53944437  0.32137918  1
  N  N49  1  0.10935748  0.43127037  0.09245180  1
  N  N50  1  0.89194646  0.53931419  0.86774212  1
  N  N51  1  0.75778159  0.43946954  0.63724188  1
  N  N52  1  0.58001085  0.52308161  0.37257405  1
  N  N53  1  0.44878318  0.42544465  0.10813820  1
  N  N54  1  0.23592644  0.51896943  0.84481285  1
  N  N55  1  0.11774445  0.44343756  0.58232990  1
  N  N56  1  0.86763016  0.54762980  0.35494135  1
  N  N57  1  0.77705875  0.42818455  0.10811849  1
  N  N58  1  0.56299461  0.51605529  0.87436842  1
  N  N59  1  0.44743280  0.42615717  0.61281151  1
  N  N60  1  0.22376948  0.87116008  0.34660277  1
  N  N61  1  0.09658471  0.75684660  0.09780409  1
  N  N62  1  0.86496150  0.88834222  0.88086042  1
  N  N63  1  0.79531356  0.76546063  0.63394392  1
  N  N64  1  0.57896153  0.86034004  0.36742649  1
  N  N65  1  0.46767875  0.74736053  0.10071693  1
  N  N66  1  0.22097548  0.87105650  0.85461658  1
  N  N67  1  0.09814648  0.75415730  0.60282670  1
  N  N68  1  0.86458431  0.88338442  0.36453381  1
  N  N69  1  0.77950574  0.75927148  0.11311165  1
  N  N70  1  0.57722776  0.85973542  0.86245113  1
  N  N71  1  0.45482002  0.74111498  0.60684866  1
