# generated using pymatgen
data_Sc4Al5N9
_symmetry_space_group_name_H-M   'P 1'
_cell_length_a   10.60531726
_cell_length_b   10.48197398
_cell_length_c   8.96322899
_cell_angle_alpha   89.97507902
_cell_angle_beta   90.16772608
_cell_angle_gamma   60.07472425
_symmetry_Int_Tables_number   1
_chemical_formula_structural   Sc4Al5N9
_chemical_formula_sum   'Sc16 Al20 N36'
_cell_volume   863.54601724
_cell_formula_units_Z   4
loop_
 _symmetry_equiv_pos_site_id
 _symmetry_equiv_pos_as_xyz
  1  'x, y, z'
loop_
 _atom_site_type_symbol
 _atom_site_label
 _atom_site_symmetry_multiplicity
 _atom_site_fract_x
 _atom_site_fract_y
 _atom_site_fract_z
 _atom_site_occupancy
  Sc  Sc0  1  0.09986021  0.10546518  0.34557831  1
  Sc  Sc1  1  0.86874416  0.21302904  0.59638734  1
  Sc  Sc2  1  0.45600537  0.09111089  0.34158311  1
  Sc  Sc3  1  0.09887679  0.10750650  0.85234383  1
  Sc  Sc4  1  0.22634876  0.21380392  0.60155110  1
  Sc  Sc5  1  0.45162684  0.09865288  0.85418560  1
  Sc  Sc6  1  0.10440901  0.43774025  0.34303948  1
  Sc  Sc7  1  0.88646209  0.54019404  0.60641397  1
  Sc  Sc8  1  0.45075395  0.42580004  0.34775922  1
  Sc  Sc9  1  0.10026483  0.75998274  0.34768962  1
  Sc  Sc10  1  0.22297764  0.87123710  0.10007079  1
  Sc  Sc11  1  0.45993916  0.74931683  0.34789165  1
  Sc  Sc12  1  0.09614934  0.76103655  0.85248630  1
  Sc  Sc13  1  0.22199668  0.86783058  0.60008408  1
  Sc  Sc14  1  0.45457338  0.75033498  0.85309586  1
  Sc  Sc15  1  0.57172189  0.86592202  0.60138043  1
  Al  Al16  1  0.21923218  0.21297863  0.09808743  1
  Al  Al17  1  0.77072907  0.09490291  0.83983834  1
  Al  Al18  1  0.56351925  0.20696383  0.08562500  1
  Al  Al19  1  0.77445427  0.09528947  0.32750601  1
  Al  Al20  1  0.87838766  0.20954081  0.08906163  1
  Al  Al21  1  0.56284532  0.20340942  0.58758462  1
  Al  Al22  1  0.22513778  0.53525627  0.10106058  1
  Al  Al23  1  0.77098084  0.42519656  0.85331487  1
  Al  Al24  1  0.56252079  0.53040854  0.09423430  1
  Al  Al25  1  0.11140841  0.43137858  0.86639293  1
  Al  Al26  1  0.22802058  0.53448332  0.62766471  1
  Al  Al27  1  0.77730638  0.42945576  0.31765631  1
  Al  Al28  1  0.88739179  0.53991955  0.08476463  1
  Al  Al29  1  0.45085202  0.42057796  0.85996262  1
  Al  Al30  1  0.55640096  0.52987378  0.61461332  1
  Al  Al31  1  0.78412705  0.76323579  0.84830061  1
  Al  Al32  1  0.87900697  0.87581426  0.58018701  1
  Al  Al33  1  0.56799836  0.86448216  0.08813824  1
  Al  Al34  1  0.77887872  0.75863797  0.32180402  1
  Al  Al35  1  0.87892976  0.87771262  0.08863045  1
  N  N36  1  0.22567646  0.20816578  0.34061422  1
  N  N37  1  0.09725223  0.11469281  0.09907171  1
  N  N38  1  0.86719973  0.21070540  0.86348278  1
  N  N39  1  0.76871948  0.08313183  0.61886300  1
  N  N40  1  0.57595453  0.19825780  0.36316403  1
  N  N41  1  0.45107705  0.09260732  0.09901249  1
  N  N42  1  0.21737476  0.22241941  0.85906620  1
  N  N43  1  0.10160204  0.10420236  0.60078910  1
  N  N44  1  0.86636421  0.21780942  0.34522045  1
  N  N45  1  0.77622792  0.09510003  0.11194593  1
  N  N46  1  0.56697088  0.21265228  0.86621222  1
  N  N47  1  0.45640527  0.10184543  0.60393636  1
  N  N48  1  0.22705577  0.53748433  0.32339602  1
  N  N49  1  0.10793086  0.43194822  0.09085471  1
  N  N50  1  0.89246874  0.53921567  0.86397327  1
  N  N51  1  0.75730988  0.43918977  0.63012570  1
  N  N52  1  0.57847240  0.52300278  0.33767999  1
  N  N53  1  0.44702517  0.42488606  0.09314505  1
  N  N54  1  0.23490342  0.52132164  0.85389831  1
  N  N55  1  0.11709586  0.44264715  0.59920222  1
  N  N56  1  0.87048598  0.54612518  0.34469295  1
  N  N57  1  0.77995106  0.42763506  0.09412949  1
  N  N58  1  0.56156788  0.51950683  0.86405277  1
  N  N59  1  0.44520024  0.42688086  0.61009017  1
  N  N60  1  0.22301314  0.87086432  0.34821201  1
  N  N61  1  0.09617235  0.75787644  0.09829771  1
  N  N62  1  0.86672995  0.88748936  0.87374027  1
  N  N63  1  0.79360819  0.76494295  0.62695292  1
  N  N64  1  0.57853841  0.86029795  0.35147914  1
  N  N65  1  0.46372589  0.75147572  0.09949056  1
  N  N66  1  0.22054929  0.87166238  0.85232893  1
  N  N67  1  0.09887257  0.75311469  0.60221048  1
  N  N68  1  0.86633215  0.88181806  0.35713479  1
  N  N69  1  0.78144003  0.75870641  0.10368840  1
  N  N70  1  0.57635836  0.86144121  0.86125309  1
  N  N71  1  0.45615526  0.73990542  0.60304255  1
