# generated using pymatgen
data_Sc4Al5N9
_symmetry_space_group_name_H-M   'P 1'
_cell_length_a   10.53753294
_cell_length_b   10.42670285
_cell_length_c   9.13249320
_cell_angle_alpha   89.97787148
_cell_angle_beta   90.11104587
_cell_angle_gamma   60.03591546
_symmetry_Int_Tables_number   1
_chemical_formula_structural   Sc4Al5N9
_chemical_formula_sum   'Sc16 Al20 N36'
_cell_volume   869.28391925
_cell_formula_units_Z   4
loop_
 _symmetry_equiv_pos_site_id
 _symmetry_equiv_pos_as_xyz
  1  'x, y, z'
loop_
 _atom_site_type_symbol
 _atom_site_label
 _atom_site_symmetry_multiplicity
 _atom_site_fract_x
 _atom_site_fract_y
 _atom_site_fract_z
 _atom_site_occupancy
  Sc  Sc0  1  0.10040653  0.10398165  0.35403752  1
  Sc  Sc1  1  0.86855590  0.21412760  0.60614987  1
  Sc  Sc2  1  0.45565694  0.09454526  0.35363680  1
  Sc  Sc3  1  0.09905027  0.10798488  0.86019225  1
  Sc  Sc4  1  0.22580985  0.21581701  0.61023006  1
  Sc  Sc5  1  0.45149851  0.09462743  0.86587437  1
  Sc  Sc6  1  0.10538877  0.43806072  0.34915052  1
  Sc  Sc7  1  0.88878688  0.54047493  0.61741184  1
  Sc  Sc8  1  0.45328339  0.42431750  0.35928202  1
  Sc  Sc9  1  0.09854346  0.76042579  0.36051185  1
  Sc  Sc10  1  0.22219946  0.87056174  0.10766630  1
  Sc  Sc11  1  0.45899343  0.74561044  0.35694218  1
  Sc  Sc12  1  0.09846670  0.75840327  0.86119707  1
  Sc  Sc13  1  0.22211484  0.86751520  0.60879482  1
  Sc  Sc14  1  0.45533320  0.75439491  0.86320141  1
  Sc  Sc15  1  0.57119112  0.86582341  0.60738076  1
  Al  Al16  1  0.22107058  0.21002564  0.11337395  1
  Al  Al17  1  0.77315166  0.09693318  0.87956552  1
  Al  Al18  1  0.56457839  0.20453118  0.11577963  1
  Al  Al19  1  0.77198366  0.09250640  0.36820877  1
  Al  Al20  1  0.87993146  0.20815140  0.10840446  1
  Al  Al21  1  0.56083426  0.20766755  0.63424905  1
  Al  Al22  1  0.22546644  0.53577395  0.11219107  1
  Al  Al23  1  0.77424310  0.42427946  0.86315912  1
  Al  Al24  1  0.56320626  0.53032831  0.10348725  1
  Al  Al25  1  0.11216766  0.43075399  0.88301735  1
  Al  Al26  1  0.22880531  0.53292952  0.63561075  1
  Al  Al27  1  0.77665424  0.42930842  0.32307036  1
  Al  Al28  1  0.88582612  0.54172302  0.10299448  1
  Al  Al29  1  0.44876392  0.42015349  0.87927697  1
  Al  Al30  1  0.55391374  0.52966732  0.64262818  1
  Al  Al31  1  0.78037628  0.76366860  0.88417929  1
  Al  Al32  1  0.87771170  0.87751020  0.62733928  1
  Al  Al33  1  0.56716915  0.86524265  0.12352056  1
  Al  Al34  1  0.78223862  0.76072602  0.36254145  1
  Al  Al35  1  0.87923036  0.87720855  0.12219459  1
  N  N36  1  0.22540540  0.20760040  0.34096184  1
  N  N37  1  0.09757096  0.11405193  0.10464987  1
  N  N38  1  0.86846759  0.21094348  0.85566990  1
  N  N39  1  0.76452195  0.08618118  0.58346277  1
  N  N40  1  0.57514584  0.19896859  0.32398426  1
  N  N41  1  0.44866045  0.09018679  0.10336389  1
  N  N42  1  0.21669739  0.22371071  0.85752865  1
  N  N43  1  0.10239618  0.10407981  0.60357230  1
  N  N44  1  0.86517334  0.21678913  0.34144003  1
  N  N45  1  0.77962933  0.09240917  0.08877916  1
  N  N46  1  0.56727748  0.21233834  0.84885676  1
  N  N47  1  0.45734483  0.10400632  0.60424460  1
  N  N48  1  0.22912234  0.53848741  0.32286755  1
  N  N49  1  0.11007290  0.43024249  0.09638976  1
  N  N50  1  0.89380473  0.54310372  0.86546933  1
  N  N51  1  0.75589770  0.44244798  0.62773717  1
  N  N52  1  0.57724923  0.52278912  0.31924170  1
  N  N53  1  0.44551159  0.42427731  0.09113468  1
  N  N54  1  0.23545348  0.51855176  0.85242162  1
  N  N55  1  0.11775152  0.44381878  0.59051859  1
  N  N56  1  0.87044835  0.54577532  0.33253967  1
  N  N57  1  0.78213165  0.42513877  0.09029170  1
  N  N58  1  0.56087862  0.51972995  0.86306286  1
  N  N59  1  0.44605246  0.42689008  0.60578604  1
  N  N60  1  0.22259713  0.86949900  0.35337325  1
  N  N61  1  0.09492614  0.75687740  0.09888771  1
  N  N62  1  0.86363771  0.88677314  0.84050657  1
  N  N63  1  0.79473501  0.76383611  0.57610392  1
  N  N64  1  0.57595573  0.86087302  0.34423248  1
  N  N65  1  0.46319090  0.75369200  0.10265484  1
  N  N66  1  0.22071311  0.87180605  0.85825498  1
  N  N67  1  0.09930812  0.75261419  0.60938265  1
  N  N68  1  0.86836387  0.88404321  0.33080488  1
  N  N69  1  0.77888992  0.76275265  0.09489550  1
  N  N70  1  0.57920227  0.86042106  0.84600966  1
  N  N71  1  0.45606973  0.73791514  0.60687045  1
