# generated using pymatgen
data_Sc4Al5N9
_symmetry_space_group_name_H-M   'P 1'
_cell_length_a   10.62325558
_cell_length_b   10.50071719
_cell_length_c   8.93488427
_cell_angle_alpha   89.97137280
_cell_angle_beta   90.33519736
_cell_angle_gamma   59.99326936
_symmetry_Int_Tables_number   1
_chemical_formula_structural   Sc4Al5N9
_chemical_formula_sum   'Sc16 Al20 N36'
_cell_volume   863.08956627
_cell_formula_units_Z   4
loop_
 _symmetry_equiv_pos_site_id
 _symmetry_equiv_pos_as_xyz
  1  'x, y, z'
loop_
 _atom_site_type_symbol
 _atom_site_label
 _atom_site_symmetry_multiplicity
 _atom_site_fract_x
 _atom_site_fract_y
 _atom_site_fract_z
 _atom_site_occupancy
  Sc  Sc0  1  0.10082673  0.10497050  0.34433097  1
  Sc  Sc1  1  0.86730878  0.21300689  0.59469935  1
  Sc  Sc2  1  0.45690545  0.09256061  0.34292574  1
  Sc  Sc3  1  0.09931605  0.10743918  0.84990585  1
  Sc  Sc4  1  0.22619207  0.21408621  0.59998657  1
  Sc  Sc5  1  0.44963504  0.09733120  0.85709518  1
  Sc  Sc6  1  0.10485017  0.43744662  0.34132120  1
  Sc  Sc7  1  0.88518314  0.54021636  0.60330759  1
  Sc  Sc8  1  0.45433194  0.42371303  0.35037855  1
  Sc  Sc9  1  0.10107050  0.75916828  0.34613210  1
  Sc  Sc10  1  0.22267060  0.87107740  0.09865657  1
  Sc  Sc11  1  0.46109481  0.74651033  0.34724822  1
  Sc  Sc12  1  0.09666656  0.75980014  0.84941222  1
  Sc  Sc13  1  0.22194353  0.86744568  0.59823298  1
  Sc  Sc14  1  0.45315396  0.75341570  0.85357287  1
  Sc  Sc15  1  0.57095995  0.86653770  0.59992735  1
  Al  Al16  1  0.21984660  0.21215845  0.09769929  1
  Al  Al17  1  0.77416404  0.09468239  0.85617299  1
  Al  Al18  1  0.56159249  0.20751019  0.09986352  1
  Al  Al19  1  0.77459694  0.09518379  0.32445152  1
  Al  Al20  1  0.88153996  0.20954505  0.08910001  1
  Al  Al21  1  0.56126240  0.20665848  0.62561975  1
  Al  Al22  1  0.22542853  0.53496835  0.10177970  1
  Al  Al23  1  0.77346033  0.42490350  0.85403405  1
  Al  Al24  1  0.56185254  0.53115582  0.09442216  1
  Al  Al25  1  0.11157879  0.43191064  0.86293560  1
  Al  Al26  1  0.22736923  0.53431968  0.62223625  1
  Al  Al27  1  0.77730046  0.42973181  0.31212795  1
  Al  Al28  1  0.88839436  0.54033034  0.08219508  1
  Al  Al29  1  0.44675851  0.42275196  0.86732341  1
  Al  Al30  1  0.55515743  0.52911014  0.63293371  1
  Al  Al31  1  0.78403775  0.76319811  0.84597994  1
  Al  Al32  1  0.87717541  0.87785572  0.57809263  1
  Al  Al33  1  0.56661682  0.86508033  0.09003105  1
  Al  Al34  1  0.77845065  0.75857432  0.32020088  1
  Al  Al35  1  0.88109264  0.87453547  0.08787995  1
  N  N36  1  0.22583060  0.20816926  0.33897107  1
  N  N37  1  0.09880661  0.11419061  0.09709867  1
  N  N38  1  0.86883294  0.21112515  0.85972596  1
  N  N39  1  0.76598237  0.08558318  0.60846150  1
  N  N40  1  0.57467938  0.19884742  0.32298230  1
  N  N41  1  0.44733207  0.09111808  0.09687010  1
  N  N42  1  0.21651818  0.22298437  0.85584295  1
  N  N43  1  0.10147770  0.10411344  0.59787883  1
  N  N44  1  0.86650238  0.21782778  0.33810377  1
  N  N45  1  0.78096663  0.09309905  0.09834922  1
  N  N46  1  0.56588736  0.21326415  0.85529965  1
  N  N47  1  0.45746799  0.10393760  0.60187243  1
  N  N48  1  0.22942678  0.53583996  0.32525281  1
  N  N49  1  0.10905574  0.43199963  0.08859832  1
  N  N50  1  0.89320213  0.54031672  0.86045722  1
  N  N51  1  0.75604833  0.43952106  0.62760723  1
  N  N52  1  0.57856493  0.52243995  0.31801197  1
  N  N53  1  0.44304888  0.42723659  0.08716989  1
  N  N54  1  0.23407857  0.52129213  0.84781122  1
  N  N55  1  0.11592444  0.44262114  0.59624076  1
  N  N56  1  0.87052218  0.54559639  0.34067957  1
  N  N57  1  0.78258207  0.42745472  0.08684072  1
  N  N58  1  0.56046205  0.52010292  0.86050285  1
  N  N59  1  0.44674094  0.42586152  0.60619125  1
  N  N60  1  0.22357429  0.87002129  0.34649333  1
  N  N61  1  0.09766925  0.75538306  0.09618917  1
  N  N62  1  0.86778221  0.88563419  0.86912446  1
  N  N63  1  0.79269951  0.76540992  0.62134549  1
  N  N64  1  0.57767738  0.86025349  0.34771060  1
  N  N65  1  0.46186464  0.75380130  0.09667570  1
  N  N66  1  0.21979029  0.87172879  0.85001422  1
  N  N67  1  0.09790218  0.75401289  0.59886677  1
  N  N68  1  0.86666839  0.88170632  0.35030376  1
  N  N69  1  0.78099575  0.75869158  0.10053563  1
  N  N70  1  0.57634974  0.86169153  0.85821345  1
  N  N71  1  0.45688342  0.73777278  0.60205680  1
