# generated using pymatgen
data_Sc4Al5N9
_symmetry_space_group_name_H-M   'P 1'
_cell_length_a   10.54212206
_cell_length_b   10.43110160
_cell_length_c   9.12886890
_cell_angle_alpha   89.98423537
_cell_angle_beta   90.14569591
_cell_angle_gamma   60.01361577
_symmetry_Int_Tables_number   1
_chemical_formula_structural   Sc4Al5N9
_chemical_formula_sum   'Sc16 Al20 N36'
_cell_volume   869.48739637
_cell_formula_units_Z   4
loop_
 _symmetry_equiv_pos_site_id
 _symmetry_equiv_pos_as_xyz
  1  'x, y, z'
loop_
 _atom_site_type_symbol
 _atom_site_label
 _atom_site_symmetry_multiplicity
 _atom_site_fract_x
 _atom_site_fract_y
 _atom_site_fract_z
 _atom_site_occupancy
  Sc  Sc0  1  0.09993615  0.10425058  0.35355550  1
  Sc  Sc1  1  0.86815994  0.21484174  0.60583092  1
  Sc  Sc2  1  0.45557288  0.09454949  0.35378324  1
  Sc  Sc3  1  0.09958018  0.10771845  0.85968539  1
  Sc  Sc4  1  0.22575596  0.21576852  0.60993912  1
  Sc  Sc5  1  0.45156415  0.09471209  0.86573790  1
  Sc  Sc6  1  0.10512728  0.43806034  0.34921622  1
  Sc  Sc7  1  0.88857198  0.54040906  0.61791390  1
  Sc  Sc8  1  0.45373269  0.42436500  0.35918992  1
  Sc  Sc9  1  0.09869267  0.76041115  0.36056116  1
  Sc  Sc10  1  0.22217468  0.87055717  0.10770773  1
  Sc  Sc11  1  0.45942550  0.74515735  0.35685336  1
  Sc  Sc12  1  0.09846436  0.75827699  0.86108731  1
  Sc  Sc13  1  0.22212085  0.86750319  0.60855959  1
  Sc  Sc14  1  0.45502414  0.75501223  0.86338660  1
  Sc  Sc15  1  0.57129164  0.86574024  0.60737801  1
  Al  Al16  1  0.22127905  0.20995484  0.11318246  1
  Al  Al17  1  0.77292795  0.09637343  0.87945372  1
  Al  Al18  1  0.56436538  0.20430934  0.11616883  1
  Al  Al19  1  0.77215200  0.09286844  0.36781140  1
  Al  Al20  1  0.88049501  0.20721264  0.10398968  1
  Al  Al21  1  0.56087802  0.20771572  0.63403809  1
  Al  Al22  1  0.22542997  0.53561459  0.11291065  1
  Al  Al23  1  0.77348061  0.42429177  0.86222774  1
  Al  Al24  1  0.56206369  0.53076886  0.10191295  1
  Al  Al25  1  0.11266516  0.43084849  0.88266700  1
  Al  Al26  1  0.22877097  0.53297815  0.63509608  1
  Al  Al27  1  0.77732957  0.42874415  0.31597885  1
  Al  Al28  1  0.88666880  0.54215600  0.10110968  1
  Al  Al29  1  0.44805515  0.42003391  0.87968323  1
  Al  Al30  1  0.55361278  0.52971475  0.64421758  1
  Al  Al31  1  0.78052841  0.76411088  0.88413251  1
  Al  Al32  1  0.87776791  0.87751826  0.62671335  1
  Al  Al33  1  0.56707245  0.86545170  0.12355576  1
  Al  Al34  1  0.78224384  0.76042870  0.36229408  1
  Al  Al35  1  0.87923505  0.87713640  0.12271774  1
  N  N36  1  0.22526153  0.20755978  0.34126657  1
  N  N37  1  0.09802423  0.11383124  0.10437093  1
  N  N38  1  0.86884841  0.21012117  0.85842767  1
  N  N39  1  0.76470355  0.08650642  0.58370004  1
  N  N40  1  0.57507719  0.19890845  0.32448810  1
  N  N41  1  0.44866187  0.09026058  0.10347493  1
  N  N42  1  0.21685065  0.22370892  0.85757017  1
  N  N43  1  0.10196487  0.10431317  0.60386718  1
  N  N44  1  0.86496765  0.21729248  0.34169571  1
  N  N45  1  0.77930588  0.09196617  0.08908772  1
  N  N46  1  0.56719425  0.21239583  0.84881760  1
  N  N47  1  0.45738034  0.10399873  0.60431784  1
  N  N48  1  0.22919126  0.53830803  0.32378022  1
  N  N49  1  0.11064392  0.43006382  0.09645443  1
  N  N50  1  0.89469976  0.54400042  0.86635294  1
  N  N51  1  0.75592345  0.44239825  0.63522667  1
  N  N52  1  0.57782606  0.52249024  0.31824823  1
  N  N53  1  0.44489584  0.42387441  0.09163127  1
  N  N54  1  0.23548972  0.51857774  0.85198001  1
  N  N55  1  0.11749553  0.44381679  0.59087670  1
  N  N56  1  0.87033261  0.54547591  0.33222407  1
  N  N57  1  0.78243846  0.42520651  0.08963911  1
  N  N58  1  0.55931709  0.52038515  0.86540144  1
  N  N59  1  0.44634676  0.42693148  0.60592608  1
  N  N60  1  0.22271735  0.86951796  0.35350649  1
  N  N61  1  0.09492890  0.75670593  0.09909290  1
  N  N62  1  0.86372050  0.88676224  0.84008252  1
  N  N63  1  0.79478243  0.76361282  0.57611950  1
  N  N64  1  0.57589656  0.86086007  0.34438884  1
  N  N65  1  0.46285200  0.75428689  0.10274578  1
  N  N66  1  0.22064343  0.87172820  0.85816954  1
  N  N67  1  0.09939524  0.75265923  0.60924675  1
  N  N68  1  0.86844220  0.88400618  0.33146048  1
  N  N69  1  0.77880151  0.76317938  0.09516505  1
  N  N70  1  0.57929214  0.86052540  0.84617561  1
  N  N71  1  0.45632704  0.73758144  0.60714768  1
