# generated using pymatgen
data_Sc4Al5N9
_symmetry_space_group_name_H-M   'P 1'
_cell_length_a   10.62254508
_cell_length_b   10.50554178
_cell_length_c   8.93002823
_cell_angle_alpha   89.91744950
_cell_angle_beta   90.09380889
_cell_angle_gamma   59.96727817
_symmetry_Int_Tables_number   1
_chemical_formula_structural   Sc4Al5N9
_chemical_formula_sum   'Sc16 Al20 N36'
_cell_volume   862.75035230
_cell_formula_units_Z   4
loop_
 _symmetry_equiv_pos_site_id
 _symmetry_equiv_pos_as_xyz
  1  'x, y, z'
loop_
 _atom_site_type_symbol
 _atom_site_label
 _atom_site_symmetry_multiplicity
 _atom_site_fract_x
 _atom_site_fract_y
 _atom_site_fract_z
 _atom_site_occupancy
  Sc  Sc0  1  0.10059842  0.10507396  0.34583469  1
  Sc  Sc1  1  0.86801680  0.21347580  0.59685314  1
  Sc  Sc2  1  0.45595227  0.09289657  0.34381609  1
  Sc  Sc3  1  0.09917898  0.10754700  0.85193537  1
  Sc  Sc4  1  0.22646527  0.21411219  0.60118995  1
  Sc  Sc5  1  0.45106589  0.09744382  0.85717488  1
  Sc  Sc6  1  0.10516201  0.43758948  0.34179357  1
  Sc  Sc7  1  0.88596423  0.54002788  0.60485637  1
  Sc  Sc8  1  0.45282486  0.42501788  0.35123780  1
  Sc  Sc9  1  0.09728736  0.76095851  0.35118740  1
  Sc  Sc10  1  0.22231119  0.87105551  0.10095184  1
  Sc  Sc11  1  0.46014531  0.74641999  0.34792243  1
  Sc  Sc12  1  0.10046814  0.75793523  0.85431321  1
  Sc  Sc13  1  0.22202227  0.86771045  0.59999120  1
  Sc  Sc14  1  0.45362455  0.75371758  0.85473809  1
  Sc  Sc15  1  0.57091453  0.86634530  0.60001309  1
  Al  Al16  1  0.22005195  0.21218893  0.09858219  1
  Al  Al17  1  0.77307850  0.09824152  0.87499978  1
  Al  Al18  1  0.56240839  0.20675571  0.10683394  1
  Al  Al19  1  0.77265974  0.09167805  0.35105489  1
  Al  Al20  1  0.88054654  0.20919332  0.09748725  1
  Al  Al21  1  0.56277408  0.20586714  0.62291734  1
  Al  Al22  1  0.22571888  0.53467455  0.10250566  1
  Al  Al23  1  0.77344631  0.42436874  0.85506205  1
  Al  Al24  1  0.56205575  0.53053191  0.09469126  1
  Al  Al25  1  0.11207857  0.43137975  0.86477746  1
  Al  Al26  1  0.22784376  0.53410935  0.62437732  1
  Al  Al27  1  0.77670689  0.42976664  0.31345040  1
  Al  Al28  1  0.88820743  0.53993694  0.08632029  1
  Al  Al29  1  0.44862455  0.42087299  0.86699533  1
  Al  Al30  1  0.55499182  0.52954449  0.63277733  1
  Al  Al31  1  0.78242804  0.76166878  0.85834735  1
  Al  Al32  1  0.87861506  0.87884955  0.61939987  1
  Al  Al33  1  0.56651505  0.86526828  0.09638305  1
  Al  Al34  1  0.77994006  0.75935428  0.33046958  1
  Al  Al35  1  0.88031177  0.87559542  0.10508532  1
  N  N36  1  0.22548495  0.20830638  0.33890519  1
  N  N37  1  0.09843672  0.11415937  0.09822277  1
  N  N38  1  0.86864395  0.21067891  0.85673187  1
  N  N39  1  0.76626319  0.08538131  0.57956687  1
  N  N40  1  0.57312062  0.19989835  0.32389402  1
  N  N41  1  0.44817174  0.09222687  0.09702926  1
  N  N42  1  0.21720143  0.22247788  0.85641950  1
  N  N43  1  0.10163443  0.10441977  0.59879439  1
  N  N44  1  0.86615217  0.21774245  0.33595532  1
  N  N45  1  0.77872910  0.09390211  0.09242624  1
  N  N46  1  0.56860968  0.21219636  0.84717687  1
  N  N47  1  0.45779271  0.10352372  0.60091192  1
  N  N48  1  0.22814795  0.53771269  0.32429114  1
  N  N49  1  0.10938306  0.43166225  0.08902992  1
  N  N50  1  0.89383039  0.54016341  0.86034020  1
  N  N51  1  0.75602943  0.44009092  0.62635596  1
  N  N52  1  0.57791168  0.52264867  0.31822489  1
  N  N53  1  0.44447145  0.42502767  0.08678884  1
  N  N54  1  0.23547869  0.51985519  0.84889468  1
  N  N55  1  0.11667335  0.44261929  0.59603569  1
  N  N56  1  0.87068776  0.54533498  0.33591976  1
  N  N57  1  0.78220798  0.42673632  0.08619800  1
  N  N58  1  0.56052404  0.52015420  0.86030093  1
  N  N59  1  0.44648732  0.42670493  0.60538615  1
  N  N60  1  0.22242067  0.87003305  0.34815189  1
  N  N61  1  0.09725470  0.75589186  0.09530922  1
  N  N62  1  0.86678467  0.88844634  0.84781010  1
  N  N63  1  0.79250796  0.76455517  0.60561690  1
  N  N64  1  0.57687905  0.86029860  0.34230165  1
  N  N65  1  0.46151490  0.75362113  0.09722551  1
  N  N66  1  0.22043185  0.87201642  0.85146211  1
  N  N67  1  0.09819997  0.75395619  0.60293461  1
  N  N68  1  0.86752565  0.88046813  0.32779206  1
  N  N69  1  0.78092214  0.75896164  0.09275769  1
  N  N70  1  0.57590766  0.86239274  0.85571145  1
  N  N71  1  0.45677244  0.73805845  0.60212412  1
