# generated using pymatgen
data_Sc4Al5N9
_symmetry_space_group_name_H-M   'P 1'
_cell_length_a   10.14455289
_cell_length_b   10.09703338
_cell_length_c   10.13127306
_cell_angle_alpha   89.95255060
_cell_angle_beta   90.08074131
_cell_angle_gamma   60.12485279
_symmetry_Int_Tables_number   1
_chemical_formula_structural   Sc4Al5N9
_chemical_formula_sum   'Sc16 Al20 N36'
_cell_volume   899.83992780
_cell_formula_units_Z   4
loop_
 _symmetry_equiv_pos_site_id
 _symmetry_equiv_pos_as_xyz
  1  'x, y, z'
loop_
 _atom_site_type_symbol
 _atom_site_label
 _atom_site_symmetry_multiplicity
 _atom_site_fract_x
 _atom_site_fract_y
 _atom_site_fract_z
 _atom_site_occupancy
  Sc  Sc0  1  0.10115859  0.10725633  0.29808768  1
  Sc  Sc1  1  0.87289172  0.21085748  0.55887345  1
  Sc  Sc2  1  0.45306539  0.09292579  0.29665522  1
  Sc  Sc3  1  0.09854577  0.10310304  0.82128950  1
  Sc  Sc4  1  0.22682908  0.21241030  0.57055448  1
  Sc  Sc5  1  0.45219497  0.09762251  0.82689554  1
  Sc  Sc6  1  0.10529557  0.43317527  0.30240452  1
  Sc  Sc7  1  0.88512965  0.54332221  0.56699663  1
  Sc  Sc8  1  0.45210330  0.42321102  0.31608515  1
  Sc  Sc9  1  0.09859073  0.75956277  0.30826945  1
  Sc  Sc10  1  0.22420635  0.86725782  0.06436009  1
  Sc  Sc11  1  0.46276032  0.74957104  0.30609779  1
  Sc  Sc12  1  0.10043734  0.75652862  0.81240378  1
  Sc  Sc13  1  0.22140518  0.86933283  0.55474431  1
  Sc  Sc14  1  0.45478009  0.74644075  0.81421244  1
  Sc  Sc15  1  0.56541275  0.87279744  0.56461716  1
  Al  Al16  1  0.21521813  0.21813694  0.04084260  1
  Al  Al17  1  0.76969517  0.09740893  0.80703015  1
  Al  Al18  1  0.56088631  0.21180314  0.04830471  1
  Al  Al19  1  0.77423174  0.09500880  0.30140772  1
  Al  Al20  1  0.87569976  0.21385578  0.05133271  1
  Al  Al21  1  0.56193779  0.20279762  0.55833772  1
  Al  Al22  1  0.22684126  0.52986788  0.04537371  1
  Al  Al23  1  0.77044086  0.42665029  0.81042064  1
  Al  Al24  1  0.56339111  0.52752213  0.04978680  1
  Al  Al25  1  0.11163175  0.43458502  0.80773134  1
  Al  Al26  1  0.22453475  0.53954803  0.56002312  1
  Al  Al27  1  0.77671561  0.42917811  0.29712090  1
  Al  Al28  1  0.88800123  0.53983526  0.04786955  1
  Al  Al29  1  0.45179359  0.42129559  0.80197712  1
  Al  Al30  1  0.55956770  0.53151584  0.55702603  1
  Al  Al31  1  0.78345055  0.76224798  0.80878620  1
  Al  Al32  1  0.88066335  0.87679025  0.55348920  1
  Al  Al33  1  0.57036462  0.86079307  0.04629308  1
  Al  Al34  1  0.77748343  0.76132825  0.29821475  1
  Al  Al35  1  0.87871750  0.87459739  0.05293108  1
  N  N36  1  0.22658483  0.20675014  0.35923169  1
  N  N37  1  0.09783644  0.11691365  0.08181796  1
  N  N38  1  0.86329294  0.21569439  0.86167245  1
  N  N39  1  0.76941395  0.08417492  0.61832312  1
  N  N40  1  0.57554957  0.19404862  0.36949186  1
  N  N41  1  0.44578365  0.09471601  0.07750444  1
  N  N42  1  0.21207375  0.22643420  0.85256013  1
  N  N43  1  0.10355749  0.09936460  0.60756651  1
  N  N44  1  0.86885330  0.21550258  0.34654598  1
  N  N45  1  0.77540555  0.09466860  0.11032047  1
  N  N46  1  0.56666867  0.21769248  0.86321804  1
  N  N47  1  0.45695257  0.10406355  0.61442178  1
  N  N48  1  0.22398849  0.53607774  0.37319776  1
  N  N49  1  0.10965638  0.43026333  0.09118016  1
  N  N50  1  0.88937877  0.54011579  0.85590347  1
  N  N51  1  0.75860212  0.43746863  0.62534327  1
  N  N52  1  0.58038682  0.52348692  0.36918529  1
  N  N53  1  0.44464697  0.42736444  0.10321134  1
  N  N54  1  0.23943480  0.51824189  0.85809254  1
  N  N55  1  0.11644808  0.44424391  0.61931507  1
  N  N56  1  0.87075778  0.54804872  0.35161173  1
  N  N57  1  0.77757883  0.42902029  0.10471746  1
  N  N58  1  0.56447239  0.51531978  0.86453716  1
  N  N59  1  0.44728239  0.42652181  0.60682661  1
  N  N60  1  0.22344079  0.87172514  0.33284910  1
  N  N61  1  0.09816907  0.74748522  0.09151656  1
  N  N62  1  0.86538792  0.88772118  0.86750745  1
  N  N63  1  0.79129450  0.76899448  0.62332459  1
  N  N64  1  0.57532714  0.86606845  0.35419544  1
  N  N65  1  0.46940985  0.74539607  0.08960399  1
  N  N66  1  0.22172435  0.86709247  0.85493479  1
  N  N67  1  0.09785050  0.75782449  0.59566231  1
  N  N68  1  0.86580066  0.88352463  0.36145296  1
  N  N69  1  0.78065193  0.75843619  0.10674203  1
  N  N70  1  0.57871225  0.85665684  0.85833339  1
  N  N71  1  0.45417451  0.74259200  0.59939953  1
