# generated using pymatgen
data_Sc4Al5N9
_symmetry_space_group_name_H-M   'P 1'
_cell_length_a   10.45308053
_cell_length_b   10.35410409
_cell_length_c   9.32804890
_cell_angle_alpha   89.94497748
_cell_angle_beta   89.92407389
_cell_angle_gamma   60.10518868
_symmetry_Int_Tables_number   1
_chemical_formula_structural   Sc4Al5N9
_chemical_formula_sum   'Sc16 Al20 N36'
_cell_volume   875.26027291
_cell_formula_units_Z   4
loop_
 _symmetry_equiv_pos_site_id
 _symmetry_equiv_pos_as_xyz
  1  'x, y, z'
loop_
 _atom_site_type_symbol
 _atom_site_label
 _atom_site_symmetry_multiplicity
 _atom_site_fract_x
 _atom_site_fract_y
 _atom_site_fract_z
 _atom_site_occupancy
  Sc  Sc0  1  0.10152474  0.10285495  0.35724476  1
  Sc  Sc1  1  0.87029976  0.21107003  0.60764607  1
  Sc  Sc2  1  0.45597268  0.09475325  0.35511092  1
  Sc  Sc3  1  0.09665873  0.10967537  0.86392792  1
  Sc  Sc4  1  0.22539087  0.21684194  0.61333355  1
  Sc  Sc5  1  0.45084863  0.09439431  0.86822747  1
  Sc  Sc6  1  0.10527190  0.43845943  0.35040898  1
  Sc  Sc7  1  0.89056125  0.54062730  0.61978950  1
  Sc  Sc8  1  0.45191900  0.42402940  0.36219620  1
  Sc  Sc9  1  0.09813178  0.76046774  0.36296663  1
  Sc  Sc10  1  0.22215562  0.87061166  0.10815476  1
  Sc  Sc11  1  0.45734576  0.74712680  0.35882596  1
  Sc  Sc12  1  0.09900396  0.75815989  0.86225578  1
  Sc  Sc13  1  0.22272582  0.86729895  0.61153314  1
  Sc  Sc14  1  0.45795784  0.75088983  0.86370533  1
  Sc  Sc15  1  0.57046507  0.86672773  0.60869242  1
  Al  Al16  1  0.22025643  0.20994795  0.11991892  1
  Al  Al17  1  0.77375122  0.09963417  0.88095809  1
  Al  Al18  1  0.56562731  0.20508849  0.11757679  1
  Al  Al19  1  0.77149082  0.09107018  0.37296162  1
  Al  Al20  1  0.87653807  0.21340052  0.13053660  1
  Al  Al21  1  0.56034843  0.20789463  0.63639912  1
  Al  Al22  1  0.22520537  0.53689155  0.11310271  1
  Al  Al23  1  0.77706839  0.42219473  0.88049672  1
  Al  Al24  1  0.56774987  0.52904736  0.11632635  1
  Al  Al25  1  0.11006807  0.43038637  0.88822170  1
  Al  Al26  1  0.22958897  0.53199575  0.63863032  1
  Al  Al27  1  0.77001443  0.43415359  0.37326757  1
  Al  Al28  1  0.88106604  0.54063692  0.11765921  1
  Al  Al29  1  0.45208390  0.42043464  0.88019443  1
  Al  Al30  1  0.55655115  0.52831728  0.63741725  1
  Al  Al31  1  0.77980675  0.76174132  0.88580441  1
  Al  Al32  1  0.87778364  0.87709790  0.63192701  1
  Al  Al33  1  0.56787615  0.86441732  0.12781929  1
  Al  Al34  1  0.78282556  0.76100334  0.36710142  1
  Al  Al35  1  0.87930135  0.87733925  0.12270600  1
  N  N36  1  0.22568811  0.20762532  0.33701925  1
  N  N37  1  0.09481292  0.11585212  0.10547650  1
  N  N38  1  0.86618553  0.21519102  0.83901324  1
  N  N39  1  0.76397610  0.08421840  0.58018085  1
  N  N40  1  0.57611106  0.19894256  0.31963512  1
  N  N41  1  0.44847216  0.09010644  0.10240780  1
  N  N42  1  0.21534314  0.22467495  0.85220233  1
  N  N43  1  0.10418828  0.10279484  0.60022850  1
  N  N44  1  0.86467085  0.21617447  0.34271077  1
  N  N45  1  0.78119894  0.09491909  0.08451849  1
  N  N46  1  0.56734252  0.21239975  0.84493539  1
  N  N47  1  0.45690394  0.10454293  0.60110652  1
  N  N48  1  0.22895302  0.53931928  0.31698279  1
  N  N49  1  0.10787559  0.43061983  0.09591078  1
  N  N50  1  0.89141445  0.53983513  0.85630475  1
  N  N51  1  0.75494268  0.44319403  0.58039080  1
  N  N52  1  0.57582029  0.52348203  0.31890286  1
  N  N53  1  0.44817600  0.42613209  0.08706657  1
  N  N54  1  0.23604196  0.51718090  0.84987918  1
  N  N55  1  0.11851086  0.44478191  0.58341126  1
  N  N56  1  0.86902526  0.54682310  0.33080756  1
  N  N57  1  0.78094184  0.42449440  0.08411130  1
  N  N58  1  0.56834705  0.51557759  0.84571504  1
  N  N59  1  0.44576924  0.42635356  0.60043031  1
  N  N60  1  0.22224789  0.86914486  0.35114660  1
  N  N61  1  0.09508286  0.75690839  0.09596594  1
  N  N62  1  0.86301845  0.88719244  0.83891475  1
  N  N63  1  0.79552804  0.76407075  0.57301962  1
  N  N64  1  0.57654834  0.86082419  0.34196413  1
  N  N65  1  0.46544729  0.75094290  0.10079576  1
  N  N66  1  0.22153781  0.87225565  0.85820291  1
  N  N67  1  0.09937129  0.75238678  0.60978684  1
  N  N68  1  0.86773317  0.88421461  0.32575248  1
  N  N69  1  0.77891424  0.76113878  0.09045153  1
  N  N70  1  0.57922664  0.86006856  0.84029966  1
  N  N71  1  0.45625392  0.73831658  0.60371021  1
