# generated using pymatgen
data_Sc4Al5N9
_symmetry_space_group_name_H-M   'P 1'
_cell_length_a   10.14485768
_cell_length_b   10.08773705
_cell_length_c   10.11644550
_cell_angle_alpha   89.85228015
_cell_angle_beta   89.75081406
_cell_angle_gamma   60.22127206
_symmetry_Int_Tables_number   1
_chemical_formula_structural   Sc4Al5N9
_chemical_formula_sum   'Sc16 Al20 N36'
_cell_volume   898.58292161
_cell_formula_units_Z   4
loop_
 _symmetry_equiv_pos_site_id
 _symmetry_equiv_pos_as_xyz
  1  'x, y, z'
loop_
 _atom_site_type_symbol
 _atom_site_label
 _atom_site_symmetry_multiplicity
 _atom_site_fract_x
 _atom_site_fract_y
 _atom_site_fract_z
 _atom_site_occupancy
  Sc  Sc0  1  0.10170253  0.10055230  0.37264712  1
  Sc  Sc1  1  0.87394755  0.21081722  0.63061685  1
  Sc  Sc2  1  0.45546208  0.09378745  0.37564485  1
  Sc  Sc3  1  0.09709027  0.11045131  0.89778211  1
  Sc  Sc4  1  0.22409418  0.21700471  0.63671690  1
  Sc  Sc5  1  0.45030001  0.09545098  0.89141314  1
  Sc  Sc6  1  0.10441697  0.43752811  0.37090625  1
  Sc  Sc7  1  0.89088515  0.54211313  0.63884258  1
  Sc  Sc8  1  0.45026589  0.42387270  0.38619015  1
  Sc  Sc9  1  0.09842888  0.75949745  0.39622424  1
  Sc  Sc10  1  0.22131270  0.86572622  0.13056299  1
  Sc  Sc11  1  0.45545303  0.74868174  0.37995827  1
  Sc  Sc12  1  0.10016121  0.75609731  0.87590375  1
  Sc  Sc13  1  0.22382631  0.87117929  0.64127300  1
  Sc  Sc14  1  0.46035828  0.74837128  0.88929570  1
  Sc  Sc15  1  0.56854081  0.86868704  0.63085069  1
  Al  Al16  1  0.22147533  0.21055622  0.14308706  1
  Al  Al17  1  0.77212430  0.09999435  0.89432502  1
  Al  Al18  1  0.56334725  0.20533090  0.13816253  1
  Al  Al19  1  0.77288099  0.09210552  0.38743892  1
  Al  Al20  1  0.87505357  0.21381764  0.14693238  1
  Al  Al21  1  0.55997068  0.20810276  0.64738450  1
  Al  Al22  1  0.22253638  0.53801152  0.13311923  1
  Al  Al23  1  0.77696901  0.42429909  0.89699733  1
  Al  Al24  1  0.56608554  0.52903601  0.13848727  1
  Al  Al25  1  0.11062783  0.43033644  0.90395899  1
  Al  Al26  1  0.23106816  0.53070218  0.65306036  1
  Al  Al27  1  0.77058465  0.43251559  0.38650794  1
  Al  Al28  1  0.88103467  0.54191555  0.13724004  1
  Al  Al29  1  0.45318599  0.41979945  0.89216841  1
  Al  Al30  1  0.55793980  0.52954405  0.64758605  1
  Al  Al31  1  0.77988972  0.76162729  0.89953936  1
  Al  Al32  1  0.87743035  0.87804274  0.64578823  1
  Al  Al33  1  0.56798950  0.86476995  0.14633805  1
  Al  Al34  1  0.78173244  0.76151355  0.38324689  1
  Al  Al35  1  0.88200047  0.87387315  0.13946571  1
  N  N36  1  0.22559985  0.20787539  0.33075586  1
  N  N37  1  0.09589943  0.11464719  0.11280157  1
  N  N38  1  0.86844496  0.21559145  0.84190868  1
  N  N39  1  0.76621561  0.08458290  0.57835024  1
  N  N40  1  0.57608400  0.20002607  0.32216277  1
  N  N41  1  0.44804437  0.09176195  0.10637924  1
  N  N42  1  0.21406697  0.22514304  0.84880725  1
  N  N43  1  0.10649709  0.10178692  0.58786097  1
  N  N44  1  0.86339428  0.21715057  0.33865623  1
  N  N45  1  0.77910002  0.09418617  0.08418243  1
  N  N46  1  0.56695743  0.21222727  0.83745423  1
  N  N47  1  0.45584763  0.10544841  0.59381962  1
  N  N48  1  0.22683102  0.54268267  0.31848978  1
  N  N49  1  0.10872392  0.42952463  0.09672646  1
  N  N50  1  0.89184767  0.53989536  0.85482814  1
  N  N51  1  0.75765594  0.44245220  0.57544075  1
  N  N52  1  0.57409227  0.52333521  0.32250639  1
  N  N53  1  0.44746632  0.42621086  0.08473268  1
  N  N54  1  0.23782433  0.51362671  0.84338753  1
  N  N55  1  0.11967556  0.44485761  0.58062969  1
  N  N56  1  0.86725214  0.54860820  0.32867345  1
  N  N57  1  0.77880797  0.42565546  0.08574857  1
  N  N58  1  0.57023075  0.51523072  0.83752047  1
  N  N59  1  0.44632271  0.42688767  0.60077355  1
  N  N60  1  0.22060667  0.86557522  0.34380957  1
  N  N61  1  0.09484263  0.75255887  0.08867338  1
  N  N62  1  0.86096502  0.88847925  0.83508604  1
  N  N63  1  0.79520799  0.76541575  0.57052007  1
  N  N64  1  0.57686894  0.86054900  0.33638100  1
  N  N65  1  0.46688758  0.74871251  0.10363598  1
  N  N66  1  0.22318899  0.87453019  0.85914603  1
  N  N67  1  0.10097414  0.75320780  0.61923842  1
  N  N68  1  0.87092112  0.88281436  0.32681820  1
  N  N69  1  0.77847513  0.76151145  0.08841588  1
  N  N70  1  0.57833147  0.86115715  0.83978874  1
  N  N71  1  0.45620346  0.73959251  0.59839518  1
