# generated using pymatgen
data_Sc4Al5N9
_symmetry_space_group_name_H-M   'P 1'
_cell_length_a   10.31725241
_cell_length_b   10.23287960
_cell_length_c   9.74827710
_cell_angle_alpha   89.83267888
_cell_angle_beta   90.06222658
_cell_angle_gamma   60.11034919
_symmetry_Int_Tables_number   1
_chemical_formula_structural   Sc4Al5N9
_chemical_formula_sum   'Sc16 Al20 N36'
_cell_volume   892.27462195
_cell_formula_units_Z   4
loop_
 _symmetry_equiv_pos_site_id
 _symmetry_equiv_pos_as_xyz
  1  'x, y, z'
loop_
 _atom_site_type_symbol
 _atom_site_label
 _atom_site_symmetry_multiplicity
 _atom_site_fract_x
 _atom_site_fract_y
 _atom_site_fract_z
 _atom_site_occupancy
  Sc  Sc0  1  0.10077058  0.10668051  0.32669239  1
  Sc  Sc1  1  0.87173677  0.21052402  0.58238250  1
  Sc  Sc2  1  0.45299826  0.09205128  0.31993801  1
  Sc  Sc3  1  0.09812231  0.10415585  0.84278789  1
  Sc  Sc4  1  0.22836518  0.20909387  0.59387369  1
  Sc  Sc5  1  0.45285351  0.09910614  0.84752449  1
  Sc  Sc6  1  0.10056943  0.43122798  0.33259411  1
  Sc  Sc7  1  0.88214912  0.54368378  0.59113250  1
  Sc  Sc8  1  0.45386865  0.42199943  0.34240154  1
  Sc  Sc9  1  0.09678339  0.76344861  0.33942665  1
  Sc  Sc10  1  0.22515159  0.86980157  0.08997939  1
  Sc  Sc11  1  0.46230502  0.75117973  0.33099820  1
  Sc  Sc12  1  0.09973257  0.75760086  0.85085805  1
  Sc  Sc13  1  0.22237835  0.86706747  0.58536029  1
  Sc  Sc14  1  0.45585428  0.74563858  0.83884754  1
  Sc  Sc15  1  0.56666236  0.87149514  0.59004817  1
  Al  Al16  1  0.21411027  0.21991354  0.06147509  1
  Al  Al17  1  0.76992211  0.09617647  0.82640833  1
  Al  Al18  1  0.56174600  0.21369129  0.06910191  1
  Al  Al19  1  0.77406800  0.09546279  0.31959333  1
  Al  Al20  1  0.87627729  0.21364210  0.07190006  1
  Al  Al21  1  0.56489588  0.19905129  0.57532098  1
  Al  Al22  1  0.22481735  0.53350110  0.11856426  1
  Al  Al23  1  0.76944536  0.42564276  0.83074515  1
  Al  Al24  1  0.56382788  0.52648408  0.07113778  1
  Al  Al25  1  0.11069578  0.43446285  0.82736018  1
  Al  Al26  1  0.22748573  0.53844520  0.62845313  1
  Al  Al27  1  0.77650025  0.42999354  0.31516353  1
  Al  Al28  1  0.88896146  0.53947350  0.06618612  1
  Al  Al29  1  0.45620186  0.41954032  0.82161502  1
  Al  Al30  1  0.56138622  0.53164736  0.57421758  1
  Al  Al31  1  0.78404002  0.76403497  0.82839839  1
  Al  Al32  1  0.88016324  0.87611319  0.57149545  1
  Al  Al33  1  0.57111099  0.86047220  0.06555293  1
  Al  Al34  1  0.77647247  0.76067313  0.31761854  1
  Al  Al35  1  0.87628535  0.87742054  0.07533014  1
  N  N36  1  0.22807398  0.20393019  0.37445069  1
  N  N37  1  0.09755545  0.11803976  0.09757786  1
  N  N38  1  0.86410481  0.21421064  0.87331927  1
  N  N39  1  0.76980149  0.08220419  0.63156234  1
  N  N40  1  0.57699140  0.19233530  0.38066110  1
  N  N41  1  0.44599620  0.09519681  0.09323016  1
  N  N42  1  0.21304199  0.22630201  0.86285383  1
  N  N43  1  0.10241409  0.09914014  0.61790552  1
  N  N44  1  0.86727072  0.21654949  0.36136206  1
  N  N45  1  0.77541621  0.09630235  0.12351049  1
  N  N46  1  0.56778771  0.21705060  0.87651919  1
  N  N47  1  0.45793355  0.10376359  0.62612888  1
  N  N48  1  0.22352867  0.53616982  0.32580039  1
  N  N49  1  0.10695782  0.43090722  0.10446717  1
  N  N50  1  0.89034437  0.54030620  0.86658171  1
  N  N51  1  0.75737628  0.43698462  0.63938903  1
  N  N52  1  0.58084161  0.52428038  0.37957876  1
  N  N53  1  0.44898455  0.42593509  0.11688332  1
  N  N54  1  0.24040779  0.51987152  0.83766376  1
  N  N55  1  0.11451567  0.44204453  0.61956849  1
  N  N56  1  0.86649818  0.54952073  0.36766733  1
  N  N57  1  0.77865019  0.42917865  0.11603864  1
  N  N58  1  0.56527089  0.51451544  0.87848264  1
  N  N59  1  0.45017719  0.42486230  0.61326609  1
  N  N60  1  0.22446341  0.87148110  0.34717915  1
  N  N61  1  0.09627727  0.75455801  0.09951191  1
  N  N62  1  0.86352163  0.88900543  0.88284981  1
  N  N63  1  0.79212017  0.76903976  0.63653478  1
  N  N64  1  0.57630545  0.86510072  0.37019803  1
  N  N65  1  0.46967191  0.74582564  0.10236619  1
  N  N66  1  0.22243461  0.86866671  0.86489708  1
  N  N67  1  0.09838025  0.75435800  0.60328828  1
  N  N68  1  0.86343638  0.88422600  0.37248132  1
  N  N69  1  0.78069695  0.75792309  0.11948195  1
  N  N70  1  0.57856841  0.85807059  0.86828157  1
  N  N71  1  0.45542412  0.74105449  0.61287569  1
