# generated using pymatgen
data_Sc4Al5N9
_symmetry_space_group_name_H-M   'P 1'
_cell_length_a   10.14484591
_cell_length_b   10.08772458
_cell_length_c   10.11647909
_cell_angle_alpha   89.85229464
_cell_angle_beta   89.75079697
_cell_angle_gamma   60.22127897
_symmetry_Int_Tables_number   1
_chemical_formula_structural   Sc4Al5N9
_chemical_formula_sum   'Sc16 Al20 N36'
_cell_volume   898.58381257
_cell_formula_units_Z   4
loop_
 _symmetry_equiv_pos_site_id
 _symmetry_equiv_pos_as_xyz
  1  'x, y, z'
loop_
 _atom_site_type_symbol
 _atom_site_label
 _atom_site_symmetry_multiplicity
 _atom_site_fract_x
 _atom_site_fract_y
 _atom_site_fract_z
 _atom_site_occupancy
  Sc  Sc0  1  0.10169214  0.10055275  0.37085606  1
  Sc  Sc1  1  0.87393836  0.21081673  0.62882938  1
  Sc  Sc2  1  0.45545082  0.09378806  0.37385737  1
  Sc  Sc3  1  0.09707993  0.11045207  0.89599384  1
  Sc  Sc4  1  0.22408408  0.21700429  0.63493039  1
  Sc  Sc5  1  0.45029073  0.09545110  0.88962594  1
  Sc  Sc6  1  0.10440740  0.43752829  0.36912061  1
  Sc  Sc7  1  0.89087453  0.54211397  0.63705233  1
  Sc  Sc8  1  0.45025348  0.42387436  0.38440380  1
  Sc  Sc9  1  0.09841893  0.75949817  0.39443421  1
  Sc  Sc10  1  0.22130293  0.86572678  0.12877161  1
  Sc  Sc11  1  0.45544155  0.74868343  0.37816905  1
  Sc  Sc12  1  0.10015061  0.75609813  0.87411691  1
  Sc  Sc13  1  0.22381570  0.87117978  0.63948586  1
  Sc  Sc14  1  0.46034911  0.74837083  0.88750633  1
  Sc  Sc15  1  0.56853048  0.86868746  0.62906115  1
  Al  Al16  1  0.22146466  0.21055757  0.14129783  1
  Al  Al17  1  0.77211317  0.09999550  0.89253877  1
  Al  Al18  1  0.56333647  0.20533192  0.13637811  1
  Al  Al19  1  0.77287091  0.09210591  0.38565313  1
  Al  Al20  1  0.87504277  0.21381861  0.14514373  1
  Al  Al21  1  0.55996032  0.20810314  0.64559534  1
  Al  Al22  1  0.22252583  0.53801163  0.13132849  1
  Al  Al23  1  0.77695842  0.42430013  0.89520934  1
  Al  Al24  1  0.56607523  0.52903660  0.13670221  1
  Al  Al25  1  0.11061640  0.43033705  0.90217079  1
  Al  Al26  1  0.23105759  0.53070292  0.65127523  1
  Al  Al27  1  0.77057436  0.43251535  0.38472215  1
  Al  Al28  1  0.88102432  0.54191587  0.13545449  1
  Al  Al29  1  0.45317691  0.41979938  0.89037981  1
  Al  Al30  1  0.55792914  0.52954459  0.64579597  1
  Al  Al31  1  0.77987947  0.76162681  0.89774916  1
  Al  Al32  1  0.87742046  0.87804272  0.64400173  1
  Al  Al33  1  0.56797926  0.86477037  0.14454980  1
  Al  Al34  1  0.78172224  0.76151470  0.38145654  1
  Al  Al35  1  0.88198969  0.87387389  0.13767724  1
  N  N36  1  0.22558909  0.20787664  0.32896584  1
  N  N37  1  0.09588862  0.11464829  0.11101239  1
  N  N38  1  0.86843459  0.21559186  0.84012063  1
  N  N39  1  0.76620594  0.08458292  0.57656281  1
  N  N40  1  0.57607328  0.20002717  0.32037743  1
  N  N41  1  0.44803447  0.09176282  0.10459138  1
  N  N42  1  0.21405754  0.22514314  0.84701936  1
  N  N43  1  0.10648730  0.10178678  0.58607050  1
  N  N44  1  0.86338366  0.21715114  0.33686741  1
  N  N45  1  0.77908850  0.09418743  0.08239516  1
  N  N46  1  0.56694738  0.21222751  0.83566429  1
  N  N47  1  0.45583710  0.10544893  0.59203041  1
  N  N48  1  0.22681986  0.54268316  0.31669898  1
  N  N49  1  0.10871250  0.42952550  0.09493701  1
  N  N50  1  0.89183709  0.53989559  0.85303745  1
  N  N51  1  0.75764596  0.44245172  0.57365289  1
  N  N52  1  0.57408166  0.52333565  0.32072047  1
  N  N53  1  0.44745692  0.42621091  0.08294440  1
  N  N54  1  0.23781396  0.51362742  0.84160123  1
  N  N55  1  0.11966628  0.44485738  0.57884300  1
  N  N56  1  0.86724228  0.54860817  0.32688658  1
  N  N57  1  0.77879700  0.42565670  0.08396045  1
  N  N58  1  0.57022081  0.51523094  0.83572972  1
  N  N59  1  0.44631144  0.42688841  0.59898582  1
  N  N60  1  0.22059610  0.86557576  0.34201694  1
  N  N61  1  0.09483184  0.75255973  0.08688469  1
  N  N62  1  0.86095457  0.88847984  0.83329860  1
  N  N63  1  0.79519774  0.76541702  0.56872980  1
  N  N64  1  0.57685860  0.86054967  0.33459158  1
  N  N65  1  0.46687825  0.74871215  0.10184668  1
  N  N66  1  0.22317907  0.87453049  0.85735823  1
  N  N67  1  0.10096398  0.75320810  0.61745019  1
  N  N68  1  0.87091083  0.88281539  0.32502896  1
  N  N69  1  0.77846489  0.76151133  0.08662633  1
  N  N70  1  0.57832132  0.86115762  0.83799823  1
  N  N71  1  0.45619259  0.73959317  0.59660493  1
