# generated using pymatgen
data_Sc4Al5N9
_symmetry_space_group_name_H-M   'P 1'
_cell_length_a   10.36591193
_cell_length_b   10.27689346
_cell_length_c   9.61523743
_cell_angle_alpha   89.89386889
_cell_angle_beta   90.13762323
_cell_angle_gamma   60.09275226
_symmetry_Int_Tables_number   1
_chemical_formula_structural   Sc4Al5N9
_chemical_formula_sum   'Sc16 Al20 N36'
_cell_volume   887.89420260
_cell_formula_units_Z   4
loop_
 _symmetry_equiv_pos_site_id
 _symmetry_equiv_pos_as_xyz
  1  'x, y, z'
loop_
 _atom_site_type_symbol
 _atom_site_label
 _atom_site_symmetry_multiplicity
 _atom_site_fract_x
 _atom_site_fract_y
 _atom_site_fract_z
 _atom_site_occupancy
  Sc  Sc0  1  0.10063962  0.10587818  0.33300912  1
  Sc  Sc1  1  0.87077922  0.21115555  0.58550138  1
  Sc  Sc2  1  0.45471853  0.09065567  0.32506898  1
  Sc  Sc3  1  0.09807091  0.10484191  0.84463158  1
  Sc  Sc4  1  0.22737579  0.21223424  0.59697752  1
  Sc  Sc5  1  0.45310764  0.09927843  0.84852402  1
  Sc  Sc6  1  0.10236625  0.43318270  0.34577505  1
  Sc  Sc7  1  0.88556008  0.54203537  0.59610870  1
  Sc  Sc8  1  0.45311054  0.42268198  0.34555547  1
  Sc  Sc9  1  0.09745282  0.76299881  0.34426504  1
  Sc  Sc10  1  0.22462808  0.86957909  0.09322854  1
  Sc  Sc11  1  0.46192399  0.75137301  0.33555547  1
  Sc  Sc12  1  0.09875161  0.75810208  0.85138519  1
  Sc  Sc13  1  0.22248548  0.86703778  0.59113749  1
  Sc  Sc14  1  0.45594171  0.74562383  0.84179954  1
  Sc  Sc15  1  0.56783666  0.87027697  0.59410847  1
  Al  Al16  1  0.21880400  0.21279065  0.06990517  1
  Al  Al17  1  0.76973436  0.09611418  0.82873651  1
  Al  Al18  1  0.56205016  0.21402712  0.07175657  1
  Al  Al19  1  0.77425643  0.09578559  0.32112896  1
  Al  Al20  1  0.87662097  0.21302037  0.07470504  1
  Al  Al21  1  0.56502450  0.19936358  0.57681896  1
  Al  Al22  1  0.22626682  0.53499409  0.12070945  1
  Al  Al23  1  0.76858761  0.42552187  0.83381879  1
  Al  Al24  1  0.56279644  0.52658471  0.07349733  1
  Al  Al25  1  0.11138516  0.43498210  0.87301273  1
  Al  Al26  1  0.22421098  0.53627975  0.62882688  1
  Al  Al27  1  0.77630328  0.42994110  0.31691290  1
  Al  Al28  1  0.88354614  0.54218959  0.07293945  1
  Al  Al29  1  0.45490313  0.41969371  0.82273054  1
  Al  Al30  1  0.56167786  0.53152038  0.57645053  1
  Al  Al31  1  0.78442556  0.76432477  0.83139153  1
  Al  Al32  1  0.87978428  0.87630373  0.57297313  1
  Al  Al33  1  0.57030532  0.86123703  0.06788768  1
  Al  Al34  1  0.77646955  0.76028511  0.31971925  1
  Al  Al35  1  0.87675129  0.87768213  0.07824599  1
  N  N36  1  0.22892781  0.20285129  0.36828964  1
  N  N37  1  0.09755016  0.11700139  0.09865530  1
  N  N38  1  0.86441389  0.21380722  0.87260098  1
  N  N39  1  0.76954892  0.08209727  0.63120591  1
  N  N40  1  0.57736048  0.19332841  0.37932219  1
  N  N41  1  0.44715422  0.09363831  0.09494462  1
  N  N42  1  0.21437208  0.22486075  0.86298770  1
  N  N43  1  0.10208005  0.10056580  0.61458782  1
  N  N44  1  0.86659427  0.21703805  0.36090602  1
  N  N45  1  0.77551256  0.09658827  0.12278458  1
  N  N46  1  0.56725777  0.21711778  0.87616447  1
  N  N47  1  0.45784327  0.10375005  0.62331259  1
  N  N48  1  0.22417824  0.53752488  0.32205544  1
  N  N49  1  0.10920624  0.43163927  0.09091226  1
  N  N50  1  0.88981332  0.54109258  0.86853674  1
  N  N51  1  0.75775026  0.43747358  0.63966311  1
  N  N52  1  0.58057461  0.52399631  0.37845263  1
  N  N53  1  0.44906271  0.42606817  0.11591154  1
  N  N54  1  0.23747711  0.51836511  0.83639128  1
  N  N55  1  0.11603974  0.44331906  0.58694553  1
  N  N56  1  0.86619431  0.54911071  0.36359268  1
  N  N57  1  0.77772159  0.42902517  0.11478677  1
  N  N58  1  0.56392691  0.51476684  0.87785520  1
  N  N59  1  0.44933297  0.42544683  0.61286410  1
  N  N60  1  0.22448261  0.87073402  0.34714587  1
  N  N61  1  0.09641650  0.75504300  0.09844655  1
  N  N62  1  0.86379757  0.88920537  0.88304326  1
  N  N63  1  0.79343249  0.76808788  0.63656997  1
  N  N64  1  0.57721514  0.86369693  0.37107910  1
  N  N65  1  0.46914701  0.74626150  0.10204924  1
  N  N66  1  0.22193782  0.86890465  0.86137896  1
  N  N67  1  0.09822239  0.75452058  0.60319411  1
  N  N68  1  0.86363983  0.88417779  0.37087403  1
  N  N69  1  0.77964713  0.75919785  0.11896310  1
  N  N70  1  0.57834278  0.85861398  0.86692040  1
  N  N71  1  0.45562045  0.74100572  0.61190271  1
