# generated using pymatgen
data_Sc4Al5N9
_symmetry_space_group_name_H-M   'P 1'
_cell_length_a   10.14487219
_cell_length_b   10.09722717
_cell_length_c   10.13110041
_cell_angle_alpha   89.95280402
_cell_angle_beta   90.08080258
_cell_angle_gamma   60.12542868
_symmetry_Int_Tables_number   1
_chemical_formula_structural   Sc4Al5N9
_chemical_formula_sum   'Sc16 Al20 N36'
_cell_volume   899.87538683
_cell_formula_units_Z   4
loop_
 _symmetry_equiv_pos_site_id
 _symmetry_equiv_pos_as_xyz
  1  'x, y, z'
loop_
 _atom_site_type_symbol
 _atom_site_label
 _atom_site_symmetry_multiplicity
 _atom_site_fract_x
 _atom_site_fract_y
 _atom_site_fract_z
 _atom_site_occupancy
  Sc  Sc0  1  0.10124642  0.10727449  0.31541238  1
  Sc  Sc1  1  0.87298260  0.21084874  0.57619128  1
  Sc  Sc2  1  0.45316147  0.09290622  0.31396400  1
  Sc  Sc3  1  0.09864625  0.10310922  0.83859744  1
  Sc  Sc4  1  0.22693945  0.21239832  0.58787631  1
  Sc  Sc5  1  0.45230398  0.09760666  0.84420739  1
  Sc  Sc6  1  0.10539593  0.43317475  0.31972502  1
  Sc  Sc7  1  0.88523304  0.54330229  0.58431060  1
  Sc  Sc8  1  0.45219834  0.42320035  0.33340218  1
  Sc  Sc9  1  0.09868825  0.75957295  0.32555347  1
  Sc  Sc10  1  0.22431318  0.86727811  0.08168208  1
  Sc  Sc11  1  0.46285669  0.74957000  0.32341341  1
  Sc  Sc12  1  0.10054816  0.75653342  0.82974100  1
  Sc  Sc13  1  0.22149805  0.86933412  0.57205390  1
  Sc  Sc14  1  0.45487913  0.74643066  0.83152526  1
  Sc  Sc15  1  0.56551881  0.87277604  0.58193919  1
  Al  Al16  1  0.21531797  0.21814489  0.05814003  1
  Al  Al17  1  0.76978922  0.09739874  0.82432557  1
  Al  Al18  1  0.56098648  0.21180313  0.06560515  1
  Al  Al19  1  0.77432700  0.09500302  0.31870597  1
  Al  Al20  1  0.87579965  0.21385516  0.06862824  1
  Al  Al21  1  0.56203826  0.20277249  0.57562952  1
  Al  Al22  1  0.22695325  0.52986314  0.06267331  1
  Al  Al23  1  0.77053128  0.42664421  0.82772071  1
  Al  Al24  1  0.56348901  0.52751714  0.06708924  1
  Al  Al25  1  0.11174499  0.43458343  0.82502156  1
  Al  Al26  1  0.22462684  0.53955819  0.57731985  1
  Al  Al27  1  0.77681099  0.42917402  0.31442268  1
  Al  Al28  1  0.88811123  0.53982702  0.06516819  1
  Al  Al29  1  0.45189675  0.42128246  0.81926435  1
  Al  Al30  1  0.55966191  0.53151060  0.57432154  1
  Al  Al31  1  0.78356217  0.76223503  0.82607682  1
  Al  Al32  1  0.88077098  0.87677480  0.57078745  1
  Al  Al33  1  0.57047799  0.86077449  0.06358801  1
  Al  Al34  1  0.77758164  0.76131872  0.31552342  1
  Al  Al35  1  0.87881553  0.87459774  0.07022781  1
  N  N36  1  0.22668621  0.20675571  0.37653710  1
  N  N37  1  0.09792873  0.11693327  0.09911627  1
  N  N38  1  0.86339170  0.21568542  0.87895485  1
  N  N39  1  0.76950804  0.08416007  0.63561213  1
  N  N40  1  0.57564651  0.19403313  0.38677350  1
  N  N41  1  0.44588866  0.09470575  0.09479528  1
  N  N42  1  0.21218242  0.22643405  0.86984173  1
  N  N43  1  0.10364767  0.09936850  0.62485420  1
  N  N44  1  0.86893863  0.21550322  0.36384968  1
  N  N45  1  0.77550673  0.09466838  0.12760916  1
  N  N46  1  0.56676875  0.21768495  0.88051113  1
  N  N47  1  0.45705967  0.10404266  0.63171755  1
  N  N48  1  0.22407979  0.53609904  0.39048345  1
  N  N49  1  0.10976259  0.43026792  0.10848111  1
  N  N50  1  0.88949115  0.54010348  0.87319063  1
  N  N51  1  0.75868806  0.43746541  0.64263884  1
  N  N52  1  0.58048144  0.52348016  0.38646984  1
  N  N53  1  0.44475079  0.42735884  0.12051528  1
  N  N54  1  0.23954461  0.51823878  0.87538267  1
  N  N55  1  0.11655230  0.44424116  0.63659430  1
  N  N56  1  0.87085649  0.54803786  0.36891180  1
  N  N57  1  0.77767948  0.42901741  0.12200488  1
  N  N58  1  0.56456904  0.51530921  0.88183184  1
  N  N59  1  0.44738261  0.42650689  0.62410235  1
  N  N60  1  0.22353342  0.87173695  0.35012152  1
  N  N61  1  0.09827617  0.74749508  0.10878214  1
  N  N62  1  0.86548751  0.88771505  0.88479941  1
  N  N63  1  0.79140791  0.76897216  0.64061038  1
  N  N64  1  0.57543482  0.86605188  0.37150023  1
  N  N65  1  0.46951659  0.74538955  0.10689627  1
  N  N66  1  0.22182964  0.86710800  0.87223591  1
  N  N67  1  0.09795056  0.75782608  0.61297486  1
  N  N68  1  0.86590715  0.88351452  0.37873803  1
  N  N69  1  0.78076047  0.75842691  0.12403534  1
  N  N70  1  0.57882686  0.85663663  0.87561328  1
  N  N71  1  0.45426492  0.74258048  0.61668938  1
