# generated using pymatgen
data_Sc4Al5N9
_symmetry_space_group_name_H-M   'P 1'
_cell_length_a   10.14487173
_cell_length_b   10.08774599
_cell_length_c   10.11640867
_cell_angle_alpha   89.85226495
_cell_angle_beta   89.75078032
_cell_angle_gamma   60.22131738
_symmetry_Int_Tables_number   1
_chemical_formula_structural   Sc4Al5N9
_chemical_formula_sum   'Sc16 Al20 N36'
_cell_volume   898.58209446
_cell_formula_units_Z   4
loop_
 _symmetry_equiv_pos_site_id
 _symmetry_equiv_pos_as_xyz
  1  'x, y, z'
loop_
 _atom_site_type_symbol
 _atom_site_label
 _atom_site_symmetry_multiplicity
 _atom_site_fract_x
 _atom_site_fract_y
 _atom_site_fract_z
 _atom_site_occupancy
  Sc  Sc0  1  0.10168191  0.10055422  0.36906160  1
  Sc  Sc1  1  0.87392716  0.21081829  0.62703400  1
  Sc  Sc2  1  0.45543887  0.09378991  0.37205885  1
  Sc  Sc3  1  0.09706914  0.11045164  0.89419501  1
  Sc  Sc4  1  0.22407397  0.21700590  0.63313729  1
  Sc  Sc5  1  0.45028146  0.09545026  0.88782941  1
  Sc  Sc6  1  0.10439816  0.43752784  0.36732360  1
  Sc  Sc7  1  0.89086459  0.54211383  0.63525634  1
  Sc  Sc8  1  0.45024383  0.42387407  0.38261046  1
  Sc  Sc9  1  0.09840821  0.75949776  0.39263783  1
  Sc  Sc10  1  0.22129211  0.86572772  0.12697671  1
  Sc  Sc11  1  0.45543141  0.74868256  0.37637349  1
  Sc  Sc12  1  0.10014043  0.75609882  0.87231907  1
  Sc  Sc13  1  0.22380536  0.87117995  0.63768676  1
  Sc  Sc14  1  0.46033820  0.74837196  0.88570990  1
  Sc  Sc15  1  0.56852017  0.86868803  0.62726471  1
  Al  Al16  1  0.22145359  0.21055784  0.13949709  1
  Al  Al17  1  0.77210300  0.09999600  0.89074320  1
  Al  Al18  1  0.56332638  0.20533291  0.13458214  1
  Al  Al19  1  0.77285985  0.09210643  0.38385982  1
  Al  Al20  1  0.87503256  0.21381837  0.14335004  1
  Al  Al21  1  0.55995005  0.20810308  0.64380188  1
  Al  Al22  1  0.22251646  0.53801254  0.12953419  1
  Al  Al23  1  0.77694825  0.42430060  0.89341699  1
  Al  Al24  1  0.56606395  0.52903692  0.13490690  1
  Al  Al25  1  0.11060533  0.43033868  0.90037794  1
  Al  Al26  1  0.23104684  0.53070329  0.64948022  1
  Al  Al27  1  0.77056376  0.43251586  0.38292630  1
  Al  Al28  1  0.88101339  0.54191717  0.13366061  1
  Al  Al29  1  0.45316608  0.41980010  0.88858251  1
  Al  Al30  1  0.55791960  0.52954485  0.64400278  1
  Al  Al31  1  0.77986933  0.76162692  0.89595315  1
  Al  Al32  1  0.87740970  0.87804325  0.64220765  1
  Al  Al33  1  0.56796940  0.86477019  0.14275635  1
  Al  Al34  1  0.78171213  0.76151507  0.37966246  1
  Al  Al35  1  0.88197907  0.87387476  0.13588330  1
  N  N36  1  0.22557816  0.20787688  0.32716719  1
  N  N37  1  0.09587732  0.11464844  0.10921496  1
  N  N38  1  0.86842314  0.21559338  0.83832611  1
  N  N39  1  0.76619523  0.08458352  0.57477019  1
  N  N40  1  0.57606300  0.20002775  0.31858307  1
  N  N41  1  0.44802514  0.09176231  0.10279629  1
  N  N42  1  0.21404736  0.22514409  0.84522819  1
  N  N43  1  0.10647692  0.10178896  0.58427762  1
  N  N44  1  0.86337367  0.21715103  0.33507453  1
  N  N45  1  0.77907837  0.09418797  0.08060086  1
  N  N46  1  0.56693710  0.21222767  0.83387092  1
  N  N47  1  0.45582597  0.10545018  0.59023576  1
  N  N48  1  0.22681101  0.54268291  0.31490571  1
  N  N49  1  0.10870143  0.42952755  0.09314381  1
  N  N50  1  0.89182700  0.53989567  0.85124291  1
  N  N51  1  0.75763509  0.44245243  0.57185850  1
  N  N52  1  0.57407107  0.52333556  0.31892621  1
  N  N53  1  0.44744628  0.42621153  0.08114875  1
  N  N54  1  0.23780297  0.51362812  0.83980686  1
  N  N55  1  0.11965644  0.44485725  0.57704784  1
  N  N56  1  0.86723211  0.54860883  0.32509368  1
  N  N57  1  0.77878677  0.42565710  0.08216845  1
  N  N58  1  0.57021098  0.51523151  0.83393709  1
  N  N59  1  0.44630146  0.42688875  0.59719365  1
  N  N60  1  0.22058538  0.86557720  0.34022465  1
  N  N61  1  0.09482158  0.75256072  0.08509017  1
  N  N62  1  0.86094434  0.88848042  0.83150481  1
  N  N63  1  0.79518763  0.76541723  0.56693650  1
  N  N64  1  0.57684823  0.86055000  0.33279945  1
  N  N65  1  0.46686738  0.74871303  0.10005237  1
  N  N66  1  0.22316902  0.87453055  0.85556073  1
  N  N67  1  0.10095319  0.75320848  0.61565498  1
  N  N68  1  0.87089973  0.88281627  0.32323573  1
  N  N69  1  0.77845439  0.76151185  0.08483190  1
  N  N70  1  0.57831153  0.86115737  0.83620279  1
  N  N71  1  0.45618264  0.73959291  0.59481076  1
