# generated using pymatgen
data_Sc4Al5N9
_symmetry_space_group_name_H-M   'P 1'
_cell_length_a   10.14505228
_cell_length_b   10.09757584
_cell_length_c   10.13009733
_cell_angle_alpha   89.95372753
_cell_angle_beta   90.08131861
_cell_angle_gamma   60.12467676
_symmetry_Int_Tables_number   1
_chemical_formula_structural   Sc4Al5N9
_chemical_formula_sum   'Sc16 Al20 N36'
_cell_volume   899.82656088
_cell_formula_units_Z   4
loop_
 _symmetry_equiv_pos_site_id
 _symmetry_equiv_pos_as_xyz
  1  'x, y, z'
loop_
 _atom_site_type_symbol
 _atom_site_label
 _atom_site_symmetry_multiplicity
 _atom_site_fract_x
 _atom_site_fract_y
 _atom_site_fract_z
 _atom_site_occupancy
  Sc  Sc0  1  0.10119691  0.10726954  0.30591130  1
  Sc  Sc1  1  0.87293383  0.21085099  0.56668128  1
  Sc  Sc2  1  0.45312655  0.09289191  0.30446225  1
  Sc  Sc3  1  0.09859805  0.10310799  0.82907610  1
  Sc  Sc4  1  0.22688839  0.21238722  0.57836303  1
  Sc  Sc5  1  0.45225126  0.09762197  0.83469305  1
  Sc  Sc6  1  0.10534936  0.43316791  0.31022225  1
  Sc  Sc7  1  0.88517141  0.54330217  0.57477899  1
  Sc  Sc8  1  0.45213027  0.42321300  0.32389746  1
  Sc  Sc9  1  0.09862071  0.75956646  0.31599395  1
  Sc  Sc10  1  0.22425681  0.86729412  0.07218093  1
  Sc  Sc11  1  0.46280257  0.74956838  0.31389524  1
  Sc  Sc12  1  0.10048444  0.75653910  0.82027514  1
  Sc  Sc13  1  0.22142799  0.86930804  0.56253839  1
  Sc  Sc14  1  0.45480934  0.74643426  0.82202439  1
  Sc  Sc15  1  0.56544738  0.87276725  0.57245713  1
  Al  Al16  1  0.21526646  0.21815080  0.04863425  1
  Al  Al17  1  0.76973958  0.09740755  0.81480568  1
  Al  Al18  1  0.56094034  0.21181256  0.05610551  1
  Al  Al19  1  0.77428441  0.09500949  0.30919263  1
  Al  Al20  1  0.87575248  0.21386393  0.05911388  1
  Al  Al21  1  0.56199102  0.20277323  0.56610625  1
  Al  Al22  1  0.22690557  0.52985426  0.05315429  1
  Al  Al23  1  0.77048114  0.42665145  0.81820501  1
  Al  Al24  1  0.56343711  0.52751887  0.05758198  1
  Al  Al25  1  0.11168315  0.43458533  0.81549810  1
  Al  Al26  1  0.22455515  0.53956696  0.56781844  1
  Al  Al27  1  0.77675640  0.42917595  0.30490131  1
  Al  Al28  1  0.88805813  0.53983760  0.05565821  1
  Al  Al29  1  0.45184629  0.42128444  0.80974265  1
  Al  Al30  1  0.55960353  0.53150618  0.56480494  1
  Al  Al31  1  0.78350701  0.76223916  0.81655728  1
  Al  Al32  1  0.88071914  0.87677040  0.56127714  1
  Al  Al33  1  0.57042245  0.86078541  0.05405719  1
  Al  Al34  1  0.77752816  0.76132020  0.30601094  1
  Al  Al35  1  0.87873904  0.87462009  0.06070809  1
  N  N36  1  0.22665357  0.20673886  0.36702114  1
  N  N37  1  0.09787478  0.11695048  0.08960801  1
  N  N38  1  0.86334260  0.21569198  0.86942659  1
  N  N39  1  0.76945514  0.08416111  0.62608566  1
  N  N40  1  0.57559859  0.19403806  0.37724676  1
  N  N41  1  0.44584446  0.09470846  0.08527988  1
  N  N42  1  0.21212940  0.22643979  0.86032085  1
  N  N43  1  0.10360879  0.09934568  0.61532207  1
  N  N44  1  0.86888697  0.21551218  0.35433491  1
  N  N45  1  0.77546121  0.09467933  0.11808909  1
  N  N46  1  0.56672135  0.21769778  0.87099382  1
  N  N47  1  0.45701590  0.10404443  0.62219672  1
  N  N48  1  0.22400723  0.53611800  0.38096929  1
  N  N49  1  0.10971164  0.43027349  0.09896872  1
  N  N50  1  0.88943669  0.54011336  0.86367049  1
  N  N51  1  0.75863102  0.43747117  0.63311252  1
  N  N52  1  0.58042507  0.52348495  0.37694524  1
  N  N53  1  0.44469326  0.42736977  0.11099860  1
  N  N54  1  0.23949906  0.51822204  0.86585168  1
  N  N55  1  0.11649029  0.44422990  0.62706119  1
  N  N56  1  0.87080330  0.54803760  0.35937603  1
  N  N57  1  0.77762575  0.42902499  0.11248027  1
  N  N58  1  0.56451696  0.51530497  0.87231057  1
  N  N59  1  0.44732630  0.42650179  0.61457513  1
  N  N60  1  0.22347223  0.87172167  0.34057828  1
  N  N61  1  0.09821299  0.74750051  0.09921390  1
  N  N62  1  0.86540437  0.88773655  0.87526945  1
  N  N63  1  0.79134660  0.76897415  0.63107973  1
  N  N64  1  0.57538482  0.86604027  0.36201333  1
  N  N65  1  0.46946808  0.74539808  0.09736568  1
  N  N66  1  0.22176645  0.86711962  0.86273421  1
  N  N67  1  0.09787904  0.75781716  0.60350146  1
  N  N68  1  0.86585259  0.88352021  0.36921709  1
  N  N69  1  0.78069477  0.75844345  0.11451503  1
  N  N70  1  0.57876049  0.85664866  0.86606867  1
  N  N71  1  0.45418812  0.74257061  0.60718395  1
