# generated using pymatgen
data_Sc4Al5N9
_symmetry_space_group_name_H-M   'P 1'
_cell_length_a   10.39003191
_cell_length_b   10.29832867
_cell_length_c   9.48946299
_cell_angle_alpha   89.93068666
_cell_angle_beta   89.87996718
_cell_angle_gamma   60.14317253
_symmetry_Int_Tables_number   1
_chemical_formula_structural   Sc4Al5N9
_chemical_formula_sum   'Sc16 Al20 N36'
_cell_volume   880.60204067
_cell_formula_units_Z   4
loop_
 _symmetry_equiv_pos_site_id
 _symmetry_equiv_pos_as_xyz
  1  'x, y, z'
loop_
 _atom_site_type_symbol
 _atom_site_label
 _atom_site_symmetry_multiplicity
 _atom_site_fract_x
 _atom_site_fract_y
 _atom_site_fract_z
 _atom_site_occupancy
  Sc  Sc0  1  0.10154769  0.10225838  0.35927979  1
  Sc  Sc1  1  0.87059987  0.21124507  0.60946409  1
  Sc  Sc2  1  0.45605242  0.09470965  0.35776271  1
  Sc  Sc3  1  0.09638072  0.11036703  0.86771272  1
  Sc  Sc4  1  0.22499096  0.21753451  0.61580920  1
  Sc  Sc5  1  0.45044825  0.09443064  0.87073178  1
  Sc  Sc6  1  0.10500983  0.43864487  0.35188266  1
  Sc  Sc7  1  0.89125835  0.54054219  0.62228831  1
  Sc  Sc8  1  0.45171585  0.42383775  0.36541762  1
  Sc  Sc9  1  0.09806113  0.76039091  0.36710642  1
  Sc  Sc10  1  0.22208369  0.87008576  0.10983999  1
  Sc  Sc11  1  0.45681005  0.74726718  0.36144598  1
  Sc  Sc12  1  0.09925572  0.75758600  0.86318596  1
  Sc  Sc13  1  0.22277673  0.86775516  0.61507944  1
  Sc  Sc14  1  0.45877963  0.75018548  0.86601951  1
  Sc  Sc15  1  0.57008944  0.86700627  0.61052650  1
  Al  Al16  1  0.22057349  0.20958954  0.12542802  1
  Al  Al17  1  0.77335016  0.10011912  0.88198936  1
  Al  Al18  1  0.56552207  0.20489464  0.12070004  1
  Al  Al19  1  0.77155779  0.09080629  0.37540929  1
  Al  Al20  1  0.87611411  0.21358671  0.13393505  1
  Al  Al21  1  0.56011179  0.20806143  0.63727170  1
  Al  Al22  1  0.22490277  0.53735699  0.11589272  1
  Al  Al23  1  0.77701174  0.42227475  0.88252148  1
  Al  Al24  1  0.56763838  0.52917637  0.12025819  1
  Al  Al25  1  0.11016284  0.43009668  0.89115670  1
  Al  Al26  1  0.22997519  0.53142095  0.64002575  1
  Al  Al27  1  0.76991419  0.43432205  0.37535637  1
  Al  Al28  1  0.88032166  0.54128901  0.12102056  1
  Al  Al29  1  0.45249827  0.42015007  0.88189862  1
  Al  Al30  1  0.55682095  0.52814380  0.63775958  1
  Al  Al31  1  0.77955451  0.76170668  0.88678653  1
  Al  Al32  1  0.87773159  0.87716278  0.63396783  1
  Al  Al33  1  0.56818074  0.86422940  0.13164021  1
  Al  Al34  1  0.78300685  0.76104583  0.37009070  1
  Al  Al35  1  0.87950373  0.87689148  0.12448573  1
  N  N36  1  0.22568445  0.20749622  0.33404135  1
  N  N37  1  0.09461288  0.11614415  0.10520160  1
  N  N38  1  0.86605643  0.21565122  0.83585320  1
  N  N39  1  0.76410582  0.08382556  0.57787425  1
  N  N40  1  0.57659540  0.19888528  0.31799300  1
  N  N41  1  0.44835916  0.09025758  0.10183312  1
  N  N42  1  0.21485066  0.22547314  0.84738069  1
  N  N43  1  0.10453994  0.10263788  0.59664875  1
  N  N44  1  0.86423149  0.21633360  0.34140567  1
  N  N45  1  0.78090929  0.09514710  0.08204391  1
  N  N46  1  0.56706868  0.21247206  0.84105422  1
  N  N47  1  0.45671253  0.10477412  0.59747255  1
  N  N48  1  0.22896071  0.53996682  0.31471635  1
  N  N49  1  0.10816686  0.43014079  0.09529006  1
  N  N50  1  0.89184001  0.53953605  0.85351714  1
  N  N51  1  0.75521253  0.44366513  0.57700681  1
  N  N52  1  0.57579032  0.52330699  0.31791903  1
  N  N53  1  0.44839059  0.42611804  0.08506837  1
  N  N54  1  0.23654558  0.51611094  0.84644215  1
  N  N55  1  0.11881675  0.44535059  0.57862082  1
  N  N56  1  0.86823036  0.54760186  0.32822473  1
  N  N57  1  0.78046991  0.42448559  0.08247481  1
  N  N58  1  0.56881678  0.51498867  0.84126212  1
  N  N59  1  0.44583792  0.42628310  0.59732871  1
  N  N60  1  0.22203137  0.86870844  0.34858758  1
  N  N61  1  0.09501387  0.75623272  0.09319590  1
  N  N62  1  0.86258641  0.88756435  0.83630835  1
  N  N63  1  0.79599679  0.76409452  0.57062160  1
  N  N64  1  0.57686419  0.86059120  0.34002999  1
  N  N65  1  0.46620594  0.75028947  0.09973829  1
  N  N66  1  0.22185233  0.87265090  0.85761089  1
  N  N67  1  0.09952156  0.75240881  0.60996340  1
  N  N68  1  0.86772272  0.88418019  0.32342421  1
  N  N69  1  0.77847682  0.76133164  0.08741410  1
  N  N70  1  0.57934559  0.86018499  0.83630699  1
  N  N71  1  0.45612135  0.73832097  0.60138149  1
