# generated using pymatgen
data_Sc4Al5N9
_symmetry_space_group_name_H-M   'P 1'
_cell_length_a   10.14435364
_cell_length_b   10.09681684
_cell_length_c   10.13174347
_cell_angle_alpha   89.95208245
_cell_angle_beta   90.08051118
_cell_angle_gamma   60.12492299
_symmetry_Int_Tables_number   1
_chemical_formula_structural   Sc4Al5N9
_chemical_formula_sum   'Sc16 Al20 N36'
_cell_volume   899.84536327
_cell_formula_units_Z   4
loop_
 _symmetry_equiv_pos_site_id
 _symmetry_equiv_pos_as_xyz
  1  'x, y, z'
loop_
 _atom_site_type_symbol
 _atom_site_label
 _atom_site_symmetry_multiplicity
 _atom_site_fract_x
 _atom_site_fract_y
 _atom_site_fract_z
 _atom_site_occupancy
  Sc  Sc0  1  0.10114326  0.10725105  0.29495823  1
  Sc  Sc1  1  0.87287487  0.21086008  0.55575032  1
  Sc  Sc2  1  0.45304093  0.09293934  0.29353241  1
  Sc  Sc3  1  0.09852485  0.10310106  0.81817485  1
  Sc  Sc4  1  0.22680536  0.21241953  0.56743107  1
  Sc  Sc5  1  0.45217245  0.09762273  0.82377654  1
  Sc  Sc6  1  0.10527406  0.43317822  0.29927742  1
  Sc  Sc7  1  0.88511295  0.54333023  0.56388368  1
  Sc  Sc8  1  0.45209251  0.42321023  0.31296022  1
  Sc  Sc9  1  0.09857874  0.75956130  0.30517965  1
  Sc  Sc10  1  0.22418616  0.86724331  0.06123175  1
  Sc  Sc11  1  0.46274342  0.74957211  0.30297880  1
  Sc  Sc12  1  0.10041850  0.75652443  0.80925524  1
  Sc  Sc13  1  0.22139606  0.86934274  0.55162668  1
  Sc  Sc14  1  0.45476839  0.74644335  0.81108766  1
  Sc  Sc15  1  0.56539890  0.87280951  0.56148117  1
  Al  Al16  1  0.21519879  0.21813139  0.03772593  1
  Al  Al17  1  0.76967740  0.09740948  0.80391994  1
  Al  Al18  1  0.56086470  0.21179937  0.04518439  1
  Al  Al19  1  0.77421066  0.09500853  0.29829376  1
  Al  Al20  1  0.87567866  0.21385252  0.04822025  1
  Al  Al21  1  0.56191650  0.20280737  0.55523031  1
  Al  Al22  1  0.22681553  0.52987333  0.04226148  1
  Al  Al23  1  0.77042475  0.42664983  0.80730690  1
  Al  Al24  1  0.56337271  0.52752343  0.04666873  1
  Al  Al25  1  0.11161119  0.43458490  0.80462464  1
  Al  Al26  1  0.22452659  0.53954046  0.55690499  1
  Al  Al27  1  0.77669930  0.42917897  0.29400873  1
  Al  Al28  1  0.88797847  0.53983432  0.04475409  1
  Al  Al29  1  0.45177250  0.42130005  0.79887091  1
  Al  Al30  1  0.55955337  0.53151971  0.55391447  1
  Al  Al31  1  0.78342797  0.76225150  0.80567777  1
  Al  Al32  1  0.88064103  0.87679820  0.55037402  1
  Al  Al33  1  0.57034149  0.86079614  0.04318743  1
  Al  Al34  1  0.77746553  0.76133147  0.29509627  1
  Al  Al35  1  0.87870889  0.87458830  0.04982027  1
  N  N36  1  0.22655733  0.20675466  0.35611591  1
  N  N37  1  0.09782111  0.11689892  0.07870195  1
  N  N38  1  0.86327307  0.21569535  0.85857080  1
  N  N39  1  0.76939747  0.08418045  0.61521810  1
  N  N40  1  0.57552997  0.19405284  0.36638990  1
  N  N41  1  0.44575933  0.09471903  0.07439426  1
  N  N42  1  0.21205149  0.22643196  0.84945585  1
  N  N43  1  0.10353696  0.09937216  0.60446429  1
  N  N44  1  0.86883983  0.21549873  0.34343041  1
  N  N45  1  0.77538328  0.09466431  0.10721302  1
  N  N46  1  0.56664760  0.21769036  0.86010773  1
  N  N47  1  0.45692723  0.10407120  0.61131180  1
  N  N48  1  0.22398099  0.53606164  0.37008915  1
  N  N49  1  0.10963428  0.43025926  0.08806473  1
  N  N50  1  0.88935559  0.54011676  0.85279666  1
  N  N51  1  0.75859055  0.43746762  0.62223556  1
  N  N52  1  0.58037152  0.52348771  0.36608131  1
  N  N53  1  0.44462845  0.42736231  0.10009644  1
  N  N54  1  0.23940910  0.51824983  0.85498889  1
  N  N55  1  0.11643119  0.44424951  0.61621661  1
  N  N56  1  0.87073957  0.54805317  0.34850601  1
  N  N57  1  0.77756006  0.42901840  0.10161233  1
  N  N58  1  0.56445456  0.51532570  0.86142779  1
  N  N59  1  0.44726482  0.42652982  0.60372721  1
  N  N60  1  0.22342821  0.87172652  0.32975743  1
  N  N61  1  0.09815150  0.74747911  0.08843763  1
  N  N62  1  0.86538134  0.88771504  0.86440265  1
  N  N63  1  0.79127367  0.76900261  0.62022253  1
  N  N64  1  0.57530407  0.86607973  0.35106829  1
  N  N65  1  0.46938655  0.74539527  0.08649931  1
  N  N66  1  0.22170751  0.86708162  0.85181502  1
  N  N67  1  0.09783909  0.75782742  0.59252665  1
  N  N68  1  0.86577989  0.88352640  0.35834730  1
  N  N69  1  0.78063479  0.75843328  0.10363283  1
  N  N70  1  0.57869296  0.85666012  0.85523928  1
  N  N71  1  0.45416907  0.74260055  0.59628576  1
