# generated using pymatgen
data_Sc4Al5N9
_symmetry_space_group_name_H-M   'P 1'
_cell_length_a   10.32204142
_cell_length_b   10.23597682
_cell_length_c   9.73948080
_cell_angle_alpha   89.81680491
_cell_angle_beta   90.06361846
_cell_angle_gamma   60.10447129
_symmetry_Int_Tables_number   1
_chemical_formula_structural   Sc4Al5N9
_chemical_formula_sum   'Sc16 Al20 N36'
_cell_volume   892.09935695
_cell_formula_units_Z   4
loop_
 _symmetry_equiv_pos_site_id
 _symmetry_equiv_pos_as_xyz
  1  'x, y, z'
loop_
 _atom_site_type_symbol
 _atom_site_label
 _atom_site_symmetry_multiplicity
 _atom_site_fract_x
 _atom_site_fract_y
 _atom_site_fract_z
 _atom_site_occupancy
  Sc  Sc0  1  0.10082487  0.10655266  0.32798347  1
  Sc  Sc1  1  0.87177690  0.21049077  0.58372427  1
  Sc  Sc2  1  0.45303667  0.09207002  0.32106671  1
  Sc  Sc3  1  0.09815902  0.10408589  0.84433579  1
  Sc  Sc4  1  0.22853019  0.20859479  0.59515995  1
  Sc  Sc5  1  0.45276907  0.09937857  0.84889617  1
  Sc  Sc6  1  0.10049602  0.43121264  0.33581987  1
  Sc  Sc7  1  0.88153209  0.54396444  0.59251385  1
  Sc  Sc8  1  0.45410547  0.42196275  0.34452365  1
  Sc  Sc9  1  0.09679850  0.76356382  0.34221393  1
  Sc  Sc10  1  0.22510695  0.86952722  0.09152485  1
  Sc  Sc11  1  0.46229968  0.75136699  0.33239622  1
  Sc  Sc12  1  0.09999710  0.75693667  0.85246668  1
  Sc  Sc13  1  0.22251465  0.86700188  0.58734919  1
  Sc  Sc14  1  0.45596461  0.74560276  0.84034533  1
  Sc  Sc15  1  0.56667667  0.87164530  0.59148978  1
  Al  Al16  1  0.21387086  0.22040347  0.06289567  1
  Al  Al17  1  0.76997416  0.09612912  0.82778714  1
  Al  Al18  1  0.56150158  0.21413015  0.07036833  1
  Al  Al19  1  0.77408727  0.09553314  0.32059294  1
  Al  Al20  1  0.87631462  0.21361025  0.07314723  1
  Al  Al21  1  0.56516360  0.19880362  0.57637864  1
  Al  Al22  1  0.22456689  0.53348737  0.12226574  1
  Al  Al23  1  0.76932529  0.42551959  0.83226052  1
  Al  Al24  1  0.56353503  0.52647466  0.07250371  1
  Al  Al25  1  0.11072315  0.43452093  0.82732581  1
  Al  Al26  1  0.22733471  0.53841072  0.62842836  1
  Al  Al27  1  0.77656577  0.43004894  0.31609554  1
  Al  Al28  1  0.88948494  0.53933735  0.06751812  1
  Al  Al29  1  0.45608587  0.41959627  0.82187296  1
  Al  Al30  1  0.56163265  0.53171986  0.57527092  1
  Al  Al31  1  0.78412623  0.76419939  0.82979653  1
  Al  Al32  1  0.87992803  0.87631730  0.57256262  1
  Al  Al33  1  0.57112224  0.86050703  0.06675659  1
  Al  Al34  1  0.77638904  0.76070176  0.31871183  1
  Al  Al35  1  0.87648027  0.87730337  0.07684496  1
  N  N36  1  0.22827032  0.20347622  0.37560489  1
  N  N37  1  0.09766036  0.11791982  0.09855407  1
  N  N38  1  0.86419985  0.21409445  0.87437341  1
  N  N39  1  0.76985981  0.08218333  0.63271524  1
  N  N40  1  0.57714979  0.19217415  0.38158734  1
  N  N41  1  0.44592507  0.09538574  0.09427271  1
  N  N42  1  0.21282358  0.22666067  0.86382540  1
  N  N43  1  0.10238785  0.09903040  0.61915299  1
  N  N44  1  0.86729101  0.21659270  0.36237569  1
  N  N45  1  0.77536760  0.09644205  0.12442426  1
  N  N46  1  0.56771334  0.21729697  0.87753041  1
  N  N47  1  0.45798166  0.10388041  0.62728012  1
  N  N48  1  0.22359701  0.53615889  0.32812888  1
  N  N49  1  0.10700230  0.43097631  0.10681197  1
  N  N50  1  0.89078445  0.54030814  0.86751142  1
  N  N51  1  0.75734501  0.43687657  0.64072077  1
  N  N52  1  0.58102596  0.52440591  0.38043930  1
  N  N53  1  0.44855910  0.42618270  0.11856377  1
  N  N54  1  0.24038107  0.51963310  0.83630317  1
  N  N55  1  0.11423365  0.44190905  0.61867507  1
  N  N56  1  0.86617229  0.54967559  0.36884002  1
  N  N57  1  0.77865904  0.42922183  0.11678207  1
  N  N58  1  0.56503521  0.51444037  0.87958381  1
  N  N59  1  0.45050382  0.42475896  0.61339552  1
  N  N60  1  0.22455830  0.87143572  0.34826009  1
  N  N61  1  0.09650579  0.75410944  0.10090691  1
  N  N62  1  0.86382656  0.88891301  0.88408894  1
  N  N63  1  0.79208151  0.76923151  0.63772435  1
  N  N64  1  0.57633397  0.86518714  0.37132252  1
  N  N65  1  0.46959459  0.74590992  0.10336783  1
  N  N66  1  0.22240461  0.86833895  0.86565620  1
  N  N67  1  0.09823090  0.75447789  0.60310433  1
  N  N68  1  0.86324843  0.88434724  0.37327835  1
  N  N69  1  0.78071381  0.75788947  0.12044233  1
  N  N70  1  0.57857002  0.85822888  0.86928852  1
  N  N71  1  0.45564956  0.74103458  0.61399327  1
