# generated using pymatgen
data_Sc4Al5N9
_symmetry_space_group_name_H-M   'P 1'
_cell_length_a   10.14465262
_cell_length_b   10.09714174
_cell_length_c   10.13103788
_cell_angle_alpha   89.95278524
_cell_angle_beta   90.08085655
_cell_angle_gamma   60.12481765
_symmetry_Int_Tables_number   1
_chemical_formula_structural   Sc4Al5N9
_chemical_formula_sum   'Sc16 Al20 N36'
_cell_volume   899.83722908
_cell_formula_units_Z   4
loop_
 _symmetry_equiv_pos_site_id
 _symmetry_equiv_pos_as_xyz
  1  'x, y, z'
loop_
 _atom_site_type_symbol
 _atom_site_label
 _atom_site_symmetry_multiplicity
 _atom_site_fract_x
 _atom_site_fract_y
 _atom_site_fract_z
 _atom_site_occupancy
  Sc  Sc0  1  0.10116625  0.10725897  0.29965240  1
  Sc  Sc1  1  0.87290014  0.21085619  0.56043501  1
  Sc  Sc2  1  0.45307762  0.09291901  0.29821663  1
  Sc  Sc3  1  0.09855622  0.10310403  0.82284682  1
  Sc  Sc4  1  0.22684094  0.21240568  0.57211619  1
  Sc  Sc5  1  0.45220622  0.09762240  0.82845505  1
  Sc  Sc6  1  0.10530633  0.43317380  0.30396806  1
  Sc  Sc7  1  0.88513800  0.54331820  0.56855310  1
  Sc  Sc8  1  0.45210869  0.42321142  0.31764761  1
  Sc  Sc9  1  0.09859673  0.75956351  0.30981435  1
  Sc  Sc10  1  0.22421644  0.86726508  0.06592426  1
  Sc  Sc11  1  0.46276877  0.74957051  0.30765728  1
  Sc  Sc12  1  0.10044676  0.75653072  0.81397805  1
  Sc  Sc13  1  0.22140974  0.86932787  0.55630312  1
  Sc  Sc14  1  0.45478594  0.74643945  0.81577483  1
  Sc  Sc15  1  0.56541968  0.87279140  0.56618516  1
  Al  Al16  1  0.21522779  0.21813971  0.04240093  1
  Al  Al17  1  0.76970405  0.09740866  0.80858526  1
  Al  Al18  1  0.56089712  0.21180503  0.04986487  1
  Al  Al19  1  0.77424227  0.09500894  0.30296471  1
  Al  Al20  1  0.87571030  0.21385741  0.05288895  1
  Al  Al21  1  0.56194844  0.20279274  0.55989143  1
  Al  Al22  1  0.22685412  0.52986516  0.04692982  1
  Al  Al23  1  0.77044892  0.42665052  0.81197752  1
  Al  Al24  1  0.56340031  0.52752148  0.05134583  1
  Al  Al25  1  0.11164203  0.43458508  0.80928469  1
  Al  Al26  1  0.22453883  0.53955182  0.56158219  1
  Al  Al27  1  0.77672377  0.42917768  0.29867698  1
  Al  Al28  1  0.88801261  0.53983573  0.04942728  1
  Al  Al29  1  0.45180413  0.42129336  0.80353023  1
  Al  Al30  1  0.55957486  0.53151391  0.55858181  1
  Al  Al31  1  0.78346184  0.76224621  0.81034042  1
  Al  Al32  1  0.88067451  0.87678628  0.55504679  1
  Al  Al33  1  0.57037619  0.86079154  0.04784590  1
  Al  Al34  1  0.77749237  0.76132664  0.29977399  1
  Al  Al35  1  0.87872181  0.87460193  0.05448648  1
  N  N36  1  0.22659858  0.20674789  0.36078958  1
  N  N37  1  0.09784411  0.11692102  0.08337597  1
  N  N38  1  0.86330287  0.21569391  0.86322328  1
  N  N39  1  0.76942219  0.08417216  0.61987562  1
  N  N40  1  0.57555938  0.19404651  0.37104284  1
  N  N41  1  0.44579581  0.09471450  0.07905953  1
  N  N42  1  0.21208488  0.22643532  0.85411228  1
  N  N43  1  0.10356775  0.09936081  0.60911762  1
  N  N44  1  0.86886003  0.21550450  0.34810376  1
  N  N45  1  0.77541668  0.09467075  0.11187419  1
  N  N46  1  0.56667921  0.21769354  0.86477320  1
  N  N47  1  0.45696524  0.10405973  0.61597677  1
  N  N48  1  0.22399223  0.53608579  0.37475207  1
  N  N49  1  0.10966743  0.43026536  0.09273787  1
  N  N50  1  0.88939035  0.54011530  0.85745687  1
  N  N51  1  0.75860790  0.43746914  0.62689712  1
  N  N52  1  0.58039447  0.52348652  0.37073728  1
  N  N53  1  0.44465622  0.42736551  0.10476879  1
  N  N54  1  0.23944766  0.51823792  0.85964437  1
  N  N55  1  0.11645652  0.44424111  0.62086429  1
  N  N56  1  0.87076688  0.54804650  0.35316459  1
  N  N57  1  0.77758821  0.42902123  0.10627002  1
  N  N58  1  0.56448131  0.51531681  0.86609184  1
  N  N59  1  0.44729117  0.42651781  0.60837632  1
  N  N60  1  0.22344708  0.87172444  0.33439494  1
  N  N61  1  0.09817785  0.74748828  0.09305603  1
  N  N62  1  0.86539121  0.88772426  0.86905985  1
  N  N63  1  0.79130492  0.76899041  0.62487561  1
  N  N64  1  0.57533868  0.86606282  0.35575902  1
  N  N65  1  0.46942150  0.74539647  0.09115633  1
  N  N66  1  0.22173277  0.86709790  0.85649468  1
  N  N67  1  0.09785621  0.75782303  0.59723014  1
  N  N68  1  0.86581105  0.88352375  0.36300578  1
  N  N69  1  0.78066050  0.75843764  0.10829663  1
  N  N70  1  0.57872190  0.85665521  0.85988045  1
  N  N71  1  0.45417723  0.74258772  0.60095641  1
