# generated using pymatgen
data_Sc4Al5N9
_symmetry_space_group_name_H-M   'P 1'
_cell_length_a   10.19082083
_cell_length_b   10.13437507
_cell_length_c   10.01957895
_cell_angle_alpha   89.97747211
_cell_angle_beta   90.08887652
_cell_angle_gamma   60.12500455
_symmetry_Int_Tables_number   1
_chemical_formula_structural   Sc4Al5N9
_chemical_formula_sum   'Sc16 Al20 N36'
_cell_volume   897.28622473
_cell_formula_units_Z   4
loop_
 _symmetry_equiv_pos_site_id
 _symmetry_equiv_pos_as_xyz
  1  'x, y, z'
loop_
 _atom_site_type_symbol
 _atom_site_label
 _atom_site_symmetry_multiplicity
 _atom_site_fract_x
 _atom_site_fract_y
 _atom_site_fract_z
 _atom_site_occupancy
  Sc  Sc0  1  0.10091095  0.10764289  0.31869599  1
  Sc  Sc1  1  0.87249278  0.21080214  0.57837747  1
  Sc  Sc2  1  0.45317078  0.09234808  0.31631078  1
  Sc  Sc3  1  0.09856480  0.10337544  0.83998519  1
  Sc  Sc4  1  0.22720773  0.21209674  0.59025567  1
  Sc  Sc5  1  0.45257552  0.09796368  0.84544877  1
  Sc  Sc6  1  0.10504534  0.43326401  0.32208096  1
  Sc  Sc7  1  0.88512138  0.54288029  0.58658747  1
  Sc  Sc8  1  0.45196898  0.42318572  0.33552761  1
  Sc  Sc9  1  0.09850132  0.75992194  0.32689615  1
  Sc  Sc10  1  0.22434682  0.86791115  0.08396001  1
  Sc  Sc11  1  0.46265165  0.74997680  0.32578174  1
  Sc  Sc12  1  0.10038298  0.75658275  0.83267133  1
  Sc  Sc13  1  0.22138639  0.86895575  0.57506395  1
  Sc  Sc14  1  0.45489284  0.74603992  0.83383463  1
  Sc  Sc15  1  0.56588754  0.87201067  0.58504527  1
  Al  Al16  1  0.21516263  0.21849146  0.05916824  1
  Al  Al17  1  0.76958009  0.09712156  0.82491803  1
  Al  Al18  1  0.56115218  0.21230842  0.06691528  1
  Al  Al19  1  0.77440957  0.09513544  0.31900516  1
  Al  Al20  1  0.87584535  0.21390286  0.06937632  1
  Al  Al21  1  0.56255940  0.20202121  0.57557053  1
  Al  Al22  1  0.22750569  0.52954807  0.06386169  1
  Al  Al23  1  0.76988653  0.42653075  0.82861207  1
  Al  Al24  1  0.56339407  0.52729034  0.06845409  1
  Al  Al25  1  0.11217842  0.43477139  0.82543716  1
  Al  Al26  1  0.22430332  0.53994319  0.57774609  1
  Al  Al27  1  0.77690579  0.42928059  0.31496050  1
  Al  Al28  1  0.88830879  0.53978351  0.06560662  1
  Al  Al29  1  0.45201564  0.42109264  0.81913883  1
  Al  Al30  1  0.55980205  0.53138134  0.57447870  1
  Al  Al31  1  0.78405491  0.76244702  0.82662611  1
  Al  Al32  1  0.88065932  0.87669537  0.57084045  1
  Al  Al33  1  0.57079747  0.86057354  0.06398637  1
  Al  Al34  1  0.77747635  0.76096944  0.31649252  1
  Al  Al35  1  0.87847677  0.87497004  0.07141068  1
  N  N36  1  0.22676179  0.20688301  0.37639716  1
  N  N37  1  0.09770225  0.11750924  0.09882148  1
  N  N38  1  0.86346461  0.21537350  0.87728073  1
  N  N39  1  0.76922442  0.08369323  0.63455964  1
  N  N40  1  0.57599567  0.19376023  0.38503990  1
  N  N41  1  0.44608004  0.09465619  0.09463278  1
  N  N42  1  0.21255631  0.22637861  0.86805250  1
  N  N43  1  0.10333898  0.09957911  0.62312056  1
  N  N44  1  0.86836400  0.21588953  0.36370140  1
  N  N45  1  0.77568269  0.09507086  0.12656725  1
  N  N46  1  0.56681766  0.21783197  0.87979364  1
  N  N47  1  0.45736957  0.10389469  0.63029762  1
  N  N48  1  0.22381760  0.53666887  0.38892790  1
  N  N49  1  0.10970261  0.43058833  0.10814868  1
  N  N50  1  0.88985822  0.54006782  0.87171459  1
  N  N51  1  0.75802031  0.43767535  0.64185419  1
  N  N52  1  0.58049663  0.52350085  0.38468164  1
  N  N53  1  0.44477305  0.42748580  0.12064845  1
  N  N54  1  0.24013626  0.51785721  0.87443372  1
  N  N55  1  0.11665139  0.44428014  0.63471274  1
  N  N56  1  0.87059065  0.54792214  0.36882033  1
  N  N57  1  0.77786890  0.42909018  0.12068883  1
  N  N58  1  0.56434798  0.51485772  0.88125950  1
  N  N59  1  0.44750844  0.42625182  0.62210135  1
  N  N60  1  0.22339901  0.87179928  0.34876980  1
  N  N61  1  0.09835097  0.74790465  0.10698060  1
  N  N62  1  0.86519276  0.88798261  0.88429535  1
  N  N63  1  0.79204434  0.76867364  0.63940392  1
  N  N64  1  0.57596349  0.86541684  0.37195734  1
  N  N65  1  0.46950702  0.74562536  0.10567342  1
  N  N66  1  0.22172352  0.86756345  0.87075783  1
  N  N67  1  0.09745436  0.75788215  0.61248556  1
  N  N68  1  0.86577160  0.88355033  0.37702781  1
  N  N69  1  0.78075768  0.75824945  0.12307049  1
  N  N70  1  0.57891891  0.85685137  0.87328314  1
  N  N71  1  0.45416041  0.74202649  0.61580752  1
