# generated using pymatgen
data_Sc4Al5N9
_symmetry_space_group_name_H-M   'P 1'
_cell_length_a   10.25675179
_cell_length_b   10.18230543
_cell_length_c   9.83424092
_cell_angle_alpha   89.89541616
_cell_angle_beta   89.81551760
_cell_angle_gamma   60.20350676
_symmetry_Int_Tables_number   1
_chemical_formula_structural   Sc4Al5N9
_chemical_formula_sum   'Sc16 Al20 N36'
_cell_volume   891.27581471
_cell_formula_units_Z   4
loop_
 _symmetry_equiv_pos_site_id
 _symmetry_equiv_pos_as_xyz
  1  'x, y, z'
loop_
 _atom_site_type_symbol
 _atom_site_label
 _atom_site_symmetry_multiplicity
 _atom_site_fract_x
 _atom_site_fract_y
 _atom_site_fract_z
 _atom_site_occupancy
  Sc  Sc0  1  0.10163172  0.10112632  0.36227940  1
  Sc  Sc1  1  0.87211322  0.21122063  0.61557935  1
  Sc  Sc2  1  0.45583879  0.09425644  0.36288605  1
  Sc  Sc3  1  0.09625708  0.11122653  0.87967127  1
  Sc  Sc4  1  0.22438994  0.21767644  0.62199355  1
  Sc  Sc5  1  0.45018276  0.09475077  0.87725778  1
  Sc  Sc6  1  0.10459002  0.43832066  0.35651971  1
  Sc  Sc7  1  0.89160071  0.54105022  0.62702777  1
  Sc  Sc8  1  0.45118647  0.42367004  0.37244439  1
  Sc  Sc9  1  0.09831638  0.76005042  0.37918359  1
  Sc  Sc10  1  0.22162480  0.86786837  0.11565146  1
  Sc  Sc11  1  0.45560344  0.74790911  0.36716289  1
  Sc  Sc12  1  0.09962674  0.75643786  0.86522065  1
  Sc  Sc13  1  0.22310891  0.86974076  0.62582396  1
  Sc  Sc14  1  0.46001563  0.74909661  0.87365918  1
  Sc  Sc15  1  0.56917026  0.86772504  0.61606521  1
  Al  Al16  1  0.22119336  0.20985073  0.13188152  1
  Al  Al17  1  0.77248427  0.10025240  0.88413216  1
  Al  Al18  1  0.56454160  0.20497006  0.12626706  1
  Al  Al19  1  0.77221863  0.09121834  0.37810877  1
  Al  Al20  1  0.87530058  0.21388938  0.13742068  1
  Al  Al21  1  0.55994150  0.20799890  0.63821595  1
  Al  Al22  1  0.22376994  0.53809509  0.12150892  1
  Al  Al23  1  0.77678386  0.42323600  0.88598418  1
  Al  Al24  1  0.56689994  0.52916231  0.12630666  1
  Al  Al25  1  0.11060739  0.43014614  0.89435475  1
  Al  Al26  1  0.23069313  0.53062037  0.64228591  1
  Al  Al27  1  0.77014704  0.43370845  0.37747999  1
  Al  Al28  1  0.88016420  0.54199197  0.12585572  1
  Al  Al29  1  0.45280585  0.41977937  0.88332864  1
  Al  Al30  1  0.55735424  0.52861504  0.63858293  1
  Al  Al31  1  0.77957161  0.76178900  0.88905927  1
  Al  Al32  1  0.87730914  0.87768355  0.63629125  1
  Al  Al33  1  0.56836838  0.86417772  0.13631326  1
  Al  Al34  1  0.78263887  0.76111275  0.37358079  1
  Al  Al35  1  0.88089845  0.87519999  0.12845472  1
  N  N36  1  0.22564506  0.20749239  0.32748980  1
  N  N37  1  0.09488507  0.11596458  0.10422935  1
  N  N38  1  0.86679449  0.21592456  0.83307925  1
  N  N39  1  0.76496687  0.08391501  0.57320258  1
  N  N40  1  0.57677851  0.19926609  0.31540241  1
  N  N41  1  0.44826593  0.09091422  0.09987192  1
  N  N42  1  0.21427118  0.22591247  0.84182577  1
  N  N43  1  0.10551582  0.10219973  0.58653126  1
  N  N44  1  0.86359275  0.21684712  0.33590642  1
  N  N45  1  0.77995013  0.09477812  0.07809895  1
  N  N46  1  0.56679222  0.21234005  0.83370931  1
  N  N47  1  0.45627535  0.10511709  0.58983889  1
  N  N48  1  0.22822463  0.54163276  0.31193854  1
  N  N49  1  0.10872196  0.42976936  0.09219347  1
  N  N50  1  0.89216068  0.53958003  0.84906565  1
  N  N51  1  0.75618071  0.44364856  0.57108743  1
  N  N52  1  0.57516835  0.52320847  0.31564316  1
  N  N53  1  0.44794602  0.42614036  0.08009274  1
  N  N54  1  0.23739866  0.51438947  0.83911995  1
  N  N55  1  0.11927158  0.44545860  0.57304776  1
  N  N56  1  0.86729268  0.54847349  0.32332455  1
  N  N57  1  0.77946053  0.42502855  0.07928351  1
  N  N58  1  0.56950625  0.51473262  0.83379310  1
  N  N59  1  0.44618896  0.42635506  0.59355875  1
  N  N60  1  0.22120115  0.86727627  0.33985942  1
  N  N61  1  0.09482887  0.75408485  0.08547225  1
  N  N62  1  0.86159194  0.88821261  0.83059350  1
  N  N63  1  0.79599626  0.76451763  0.56574151  1
  N  N64  1  0.57704962  0.86022279  0.33404938  1
  N  N65  1  0.46701348  0.74920708  0.09684259  1
  N  N66  1  0.22241387  0.87378794  0.85444895  1
  N  N67  1  0.10020452  0.75286182  0.61032212  1
  N  N68  1  0.86918689  0.88348101  0.32028493  1
  N  N69  1  0.77823642  0.76161843  0.08270499  1
  N  N70  1  0.57915203  0.86062312  0.83183676  1
  N  N71  1  0.45577886  0.73877602  0.59507305  1
