# generated using pymatgen
data_Sc4Al5N9
_symmetry_space_group_name_H-M   'P 1'
_cell_length_a   10.49750026
_cell_length_b   10.38788580
_cell_length_c   9.23865930
_cell_angle_alpha   89.98577824
_cell_angle_beta   90.13020070
_cell_angle_gamma   60.10851380
_symmetry_Int_Tables_number   1
_chemical_formula_structural   Sc4Al5N9
_chemical_formula_sum   'Sc16 Al20 N36'
_cell_volume   873.42338646
_cell_formula_units_Z   4
loop_
 _symmetry_equiv_pos_site_id
 _symmetry_equiv_pos_as_xyz
  1  'x, y, z'
loop_
 _atom_site_type_symbol
 _atom_site_label
 _atom_site_symmetry_multiplicity
 _atom_site_fract_x
 _atom_site_fract_y
 _atom_site_fract_z
 _atom_site_occupancy
  Sc  Sc0  1  0.09836449  0.10557438  0.34411845  1
  Sc  Sc1  1  0.86912816  0.21241397  0.59423590  1
  Sc  Sc2  1  0.45788238  0.08897261  0.33771707  1
  Sc  Sc3  1  0.09944692  0.10757265  0.85116103  1
  Sc  Sc4  1  0.22604207  0.21501481  0.60067828  1
  Sc  Sc5  1  0.45016334  0.09992177  0.85234731  1
  Sc  Sc6  1  0.10281096  0.43804587  0.34326080  1
  Sc  Sc7  1  0.88810803  0.54011510  0.60285041  1
  Sc  Sc8  1  0.45120524  0.42398410  0.34617523  1
  Sc  Sc9  1  0.09933243  0.76174862  0.34683974  1
  Sc  Sc10  1  0.22373215  0.87093758  0.09819276  1
  Sc  Sc11  1  0.46027270  0.75121357  0.34381585  1
  Sc  Sc12  1  0.09686421  0.75997450  0.85266015  1
  Sc  Sc13  1  0.22195054  0.86784311  0.59859640  1
  Sc  Sc14  1  0.45548743  0.74629480  0.84677890  1
  Sc  Sc15  1  0.57080785  0.86684803  0.60051680  1
  Al  Al16  1  0.22026323  0.21100112  0.10272733  1
  Al  Al17  1  0.76989574  0.09473343  0.83412276  1
  Al  Al18  1  0.56282553  0.21045367  0.07778439  1
  Al  Al19  1  0.77450546  0.09627586  0.32414059  1
  Al  Al20  1  0.87711877  0.21119426  0.08084964  1
  Al  Al21  1  0.56411105  0.20137346  0.58156734  1
  Al  Al22  1  0.22723739  0.53581274  0.10915942  1
  Al  Al23  1  0.76884782  0.42625208  0.84251426  1
  Al  Al24  1  0.56211346  0.52786170  0.07901755  1
  Al  Al25  1  0.11233014  0.43107670  0.87769351  1
  Al  Al26  1  0.22569964  0.53546465  0.62831420  1
  Al  Al27  1  0.77618540  0.42931838  0.31837716  1
  Al  Al28  1  0.88403316  0.54122175  0.08119928  1
  Al  Al29  1  0.45284223  0.42039591  0.83694032  1
  Al  Al30  1  0.56098126  0.53064514  0.58185061  1
  Al  Al31  1  0.78514548  0.76317024  0.84023556  1
  Al  Al32  1  0.87934662  0.87581362  0.57558676  1
  Al  Al33  1  0.56903267  0.86284318  0.07569417  1
  Al  Al34  1  0.77727694  0.75915598  0.32079990  1
  Al  Al35  1  0.87769657  0.87802906  0.08471480  1
  N  N36  1  0.22660613  0.20662246  0.33834362  1
  N  N37  1  0.09586520  0.11564695  0.09869005  1
  N  N38  1  0.86587407  0.21233561  0.86626876  1
  N  N39  1  0.76890235  0.08175047  0.62600714  1
  N  N40  1  0.57734060  0.19625311  0.37236875  1
  N  N41  1  0.45124953  0.09117331  0.09793709  1
  N  N42  1  0.21589401  0.22431204  0.85590608  1
  N  N43  1  0.10210122  0.10367390  0.60237483  1
  N  N44  1  0.86524738  0.21793145  0.35576362  1
  N  N45  1  0.77560238  0.09666062  0.11738721  1
  N  N46  1  0.56647889  0.21442729  0.87099559  1
  N  N47  1  0.45595345  0.10279068  0.60893389  1
  N  N48  1  0.22603214  0.53901402  0.32132738  1
  N  N49  1  0.10867306  0.43162094  0.09237372  1
  N  N50  1  0.89194715  0.53920064  0.86707546  1
  N  N51  1  0.75783314  0.43939460  0.63641225  1
  N  N52  1  0.57983202  0.52286463  0.37079880  1
  N  N53  1  0.44870752  0.42536335  0.10544504  1
  N  N54  1  0.23580933  0.51948762  0.84768521  1
  N  N55  1  0.11771751  0.44323192  0.58615717  1
  N  N56  1  0.86816787  0.54737782  0.35317753  1
  N  N57  1  0.77709933  0.42825967  0.10638346  1
  N  N58  1  0.56296359  0.51667146  0.87346329  1
  N  N59  1  0.44690257  0.42646181  0.61301942  1
  N  N60  1  0.22357550  0.87117935  0.34685197  1
  N  N61  1  0.09647640  0.75725094  0.09792441  1
  N  N62  1  0.86522968  0.88830290  0.87996521  1
  N  N63  1  0.79511633  0.76540826  0.63304015  1
  N  N64  1  0.57889974  0.86042567  0.36485799  1
  N  N65  1  0.46731483  0.74756933  0.10067064  1
  N  N66  1  0.22105134  0.87103382  0.85407481  1
  N  N67  1  0.09833532  0.75387877  0.60280251  1
  N  N68  1  0.86497398  0.88304897  0.36304327  1
  N  N69  1  0.77977915  0.75914961  0.11135680  1
  N  N70  1  0.57702452  0.85992887  0.86216285  1
  N  N71  1  0.45495829  0.74123866  0.60568528  1
