# generated using pymatgen
data_Sc4Al5N9
_symmetry_space_group_name_H-M   'P 1'
_cell_length_a   10.61271970
_cell_length_b   10.48533347
_cell_length_c   8.96454046
_cell_angle_alpha   90.00132898
_cell_angle_beta   90.37355686
_cell_angle_gamma   60.02370675
_symmetry_Int_Tables_number   1
_chemical_formula_structural   Sc4Al5N9
_chemical_formula_sum   'Sc16 Al20 N36'
_cell_volume   864.09012706
_cell_formula_units_Z   4
loop_
 _symmetry_equiv_pos_site_id
 _symmetry_equiv_pos_as_xyz
  1  'x, y, z'
loop_
 _atom_site_type_symbol
 _atom_site_label
 _atom_site_symmetry_multiplicity
 _atom_site_fract_x
 _atom_site_fract_y
 _atom_site_fract_z
 _atom_site_occupancy
  Sc  Sc0  1  0.10028532  0.10508507  0.34476520  1
  Sc  Sc1  1  0.86697928  0.21339157  0.59481494  1
  Sc  Sc2  1  0.45703093  0.09217803  0.34355092  1
  Sc  Sc3  1  0.09937313  0.10737926  0.85020153  1
  Sc  Sc4  1  0.22602079  0.21415186  0.60053167  1
  Sc  Sc5  1  0.44958650  0.09760803  0.85753808  1
  Sc  Sc6  1  0.10482140  0.43748407  0.34220207  1
  Sc  Sc7  1  0.88541620  0.53974034  0.60363353  1
  Sc  Sc8  1  0.45427975  0.42414512  0.35073362  1
  Sc  Sc9  1  0.10044638  0.75981497  0.34710630  1
  Sc  Sc10  1  0.22275837  0.87118497  0.09946248  1
  Sc  Sc11  1  0.46137873  0.74648783  0.34793052  1
  Sc  Sc12  1  0.09728729  0.75952722  0.85007944  1
  Sc  Sc13  1  0.22218466  0.86737190  0.59887773  1
  Sc  Sc14  1  0.45318403  0.75361348  0.85455397  1
  Sc  Sc15  1  0.57098047  0.86630688  0.60065875  1
  Al  Al16  1  0.21980789  0.21201604  0.09881306  1
  Al  Al17  1  0.77331529  0.09422098  0.84915702  1
  Al  Al18  1  0.56177752  0.20698093  0.09988517  1
  Al  Al19  1  0.77548238  0.09489655  0.32048644  1
  Al  Al20  1  0.88144842  0.20888340  0.08619673  1
  Al  Al21  1  0.56023695  0.20734155  0.62366504  1
  Al  Al22  1  0.22502429  0.53535077  0.10359034  1
  Al  Al23  1  0.77335796  0.42486747  0.85467609  1
  Al  Al24  1  0.56184660  0.53137834  0.09517578  1
  Al  Al25  1  0.11162504  0.43186657  0.86499337  1
  Al  Al26  1  0.22754841  0.53423479  0.62374201  1
  Al  Al27  1  0.77768950  0.42919979  0.31130985  1
  Al  Al28  1  0.88843919  0.54077169  0.08267147  1
  Al  Al29  1  0.44650482  0.42243695  0.86965510  1
  Al  Al30  1  0.55471572  0.52900006  0.63508606  1
  Al  Al31  1  0.78456635  0.76263300  0.84476259  1
  Al  Al32  1  0.87715210  0.87815829  0.57929025  1
  Al  Al33  1  0.56730753  0.86508790  0.08960537  1
  Al  Al34  1  0.77860426  0.75916661  0.32163428  1
  Al  Al35  1  0.88095032  0.87477626  0.08543080  1
  N  N36  1  0.22582022  0.20793488  0.33932763  1
  N  N37  1  0.09839001  0.11425405  0.09758969  1
  N  N38  1  0.86879313  0.21084030  0.86065107  1
  N  N39  1  0.76594503  0.08537387  0.61767014  1
  N  N40  1  0.57552811  0.19848645  0.32654919  1
  N  N41  1  0.44795819  0.09097870  0.09772122  1
  N  N42  1  0.21647192  0.22309236  0.85649059  1
  N  N43  1  0.10117908  0.10423609  0.59862110  1
  N  N44  1  0.86608563  0.21772220  0.34082850  1
  N  N45  1  0.78099149  0.09260815  0.09996751  1
  N  N46  1  0.56501238  0.21369388  0.85711545  1
  N  N47  1  0.45711549  0.10378015  0.60254397  1
  N  N48  1  0.22907813  0.53641182  0.32508805  1
  N  N49  1  0.10899806  0.43197448  0.08957265  1
  N  N50  1  0.89342131  0.54056542  0.86149881  1
  N  N51  1  0.75570254  0.43966401  0.63012164  1
  N  N52  1  0.57888257  0.52250830  0.31740320  1
  N  N53  1  0.44292814  0.42704392  0.08862943  1
  N  N54  1  0.23420981  0.52103627  0.84849359  1
  N  N55  1  0.11609874  0.44265979  0.59583525  1
  N  N56  1  0.87047393  0.54548398  0.34207710  1
  N  N57  1  0.78296133  0.42707233  0.08727142  1
  N  N58  1  0.55997388  0.52012055  0.86186208  1
  N  N59  1  0.44636669  0.42617760  0.60591091  1
  N  N60  1  0.22369040  0.87007364  0.34716565  1
  N  N61  1  0.09707516  0.75597845  0.09695367  1
  N  N62  1  0.86826678  0.88484761  0.86974113  1
  N  N63  1  0.79295752  0.76504817  0.62251037  1
  N  N64  1  0.57795443  0.86011537  0.35018516  1
  N  N65  1  0.46212969  0.75423443  0.09732064  1
  N  N66  1  0.22008911  0.87176231  0.85090524  1
  N  N67  1  0.09842341  0.75378047  0.60007935  1
  N  N68  1  0.86615692  0.88309146  0.35489749  1
  N  N69  1  0.78130453  0.75915515  0.10303356  1
  N  N70  1  0.57707284  0.86149040  0.85917755  1
  N  N71  1  0.45692764  0.73751669  0.60316110  1
