# generated using pymatgen
data_Sc4Al5N9
_symmetry_space_group_name_H-M   'P 1'
_cell_length_a   10.59380716
_cell_length_b   10.47606889
_cell_length_c   9.00734921
_cell_angle_alpha   89.97747100
_cell_angle_beta   90.15202204
_cell_angle_gamma   59.96696091
_symmetry_Int_Tables_number   1
_chemical_formula_structural   Sc4Al5N9
_chemical_formula_sum   'Sc16 Al20 N36'
_cell_volume   865.42805631
_cell_formula_units_Z   4
loop_
 _symmetry_equiv_pos_site_id
 _symmetry_equiv_pos_as_xyz
  1  'x, y, z'
loop_
 _atom_site_type_symbol
 _atom_site_label
 _atom_site_symmetry_multiplicity
 _atom_site_fract_x
 _atom_site_fract_y
 _atom_site_fract_z
 _atom_site_occupancy
  Sc  Sc0  1  0.10019738  0.10489179  0.34595999  1
  Sc  Sc1  1  0.86801366  0.21424657  0.59789709  1
  Sc  Sc2  1  0.45541468  0.09425338  0.34528212  1
  Sc  Sc3  1  0.09944392  0.10737837  0.85213230  1
  Sc  Sc4  1  0.22617996  0.21463505  0.60214327  1
  Sc  Sc5  1  0.45169333  0.09547420  0.85828277  1
  Sc  Sc6  1  0.10528568  0.43761613  0.34244505  1
  Sc  Sc7  1  0.88683410  0.54022178  0.60806146  1
  Sc  Sc8  1  0.45339272  0.42465113  0.35142584  1
  Sc  Sc9  1  0.09874832  0.76049435  0.35245569  1
  Sc  Sc10  1  0.22222256  0.87077945  0.10084880  1
  Sc  Sc11  1  0.45992523  0.74569300  0.34906507  1
  Sc  Sc12  1  0.09846526  0.75862919  0.85401269  1
  Sc  Sc13  1  0.22223099  0.86745417  0.60082775  1
  Sc  Sc14  1  0.45452512  0.75462571  0.85597359  1
  Sc  Sc15  1  0.57129069  0.86600148  0.60082438  1
  Al  Al16  1  0.22041497  0.21140416  0.10048326  1
  Al  Al17  1  0.77317247  0.09600178  0.87276478  1
  Al  Al18  1  0.56353307  0.20541208  0.10717369  1
  Al  Al19  1  0.77233835  0.09309851  0.35624858  1
  Al  Al20  1  0.88059913  0.20757841  0.09564457  1
  Al  Al21  1  0.56167143  0.20689311  0.62555731  1
  Al  Al22  1  0.22537251  0.53507542  0.10382343  1
  Al  Al23  1  0.77289188  0.42426477  0.85573364  1
  Al  Al24  1  0.56170858  0.53071519  0.09459817  1
  Al  Al25  1  0.11196652  0.43180222  0.86949893  1
  Al  Al26  1  0.22821866  0.53376261  0.62643007  1
  Al  Al27  1  0.77725208  0.42878425  0.31018456  1
  Al  Al28  1  0.88769699  0.54124362  0.09258799  1
  Al  Al29  1  0.44801216  0.42073128  0.86961367  1
  Al  Al30  1  0.55433613  0.52970427  0.63536597  1
  Al  Al31  1  0.78153783  0.76299497  0.87568483  1
  Al  Al32  1  0.87762523  0.87773020  0.61749863  1
  Al  Al33  1  0.56712099  0.86528526  0.11044521  1
  Al  Al34  1  0.78151500  0.76049306  0.35235589  1
  Al  Al35  1  0.87972919  0.87639663  0.11426102  1
  N  N36  1  0.22525291  0.20802976  0.33791177  1
  N  N37  1  0.09830932  0.11385776  0.09790320  1
  N  N38  1  0.86878722  0.20978117  0.85524116  1
  N  N39  1  0.76508224  0.08661137  0.57891373  1
  N  N40  1  0.57411926  0.19945864  0.32060890  1
  N  N41  1  0.44834937  0.09115792  0.09706785  1
  N  N42  1  0.21704125  0.22298833  0.85528141  1
  N  N43  1  0.10167676  0.10438920  0.59849630  1
  N  N44  1  0.86550739  0.21748800  0.33560526  1
  N  N45  1  0.77938978  0.09189330  0.08691626  1
  N  N46  1  0.56771004  0.21217181  0.84571990  1
  N  N47  1  0.45764680  0.10368461  0.59993737  1
  N  N48  1  0.22876044  0.53767595  0.32104378  1
  N  N49  1  0.10978248  0.43112393  0.08939465  1
  N  N50  1  0.89384730  0.54409622  0.86007432  1
  N  N51  1  0.75599554  0.44109407  0.62906973  1
  N  N52  1  0.57823131  0.52228932  0.31527941  1
  N  N53  1  0.44453228  0.42461585  0.08610361  1
  N  N54  1  0.23518442  0.51981537  0.84791152  1
  N  N55  1  0.11683854  0.44308472  0.59210316  1
  N  N56  1  0.87097394  0.54419220  0.33018345  1
  N  N57  1  0.78236295  0.42591183  0.08399288  1
  N  N58  1  0.55940530  0.52061380  0.86013225  1
  N  N59  1  0.44636948  0.42681891  0.60329374  1
  N  N60  1  0.22282112  0.86983249  0.34769329  1
  N  N61  1  0.09542050  0.75679714  0.09413732  1
  N  N62  1  0.86417634  0.88646216  0.83680178  1
  N  N63  1  0.79372115  0.76387865  0.57342295  1
  N  N64  1  0.57566861  0.86112168  0.33839318  1
  N  N65  1  0.46217983  0.75405936  0.09692932  1
  N  N66  1  0.22051914  0.87167259  0.85151100  1
  N  N67  1  0.09922950  0.75297543  0.60253015  1
  N  N68  1  0.86885389  0.88322815  0.32771134  1
  N  N69  1  0.78023112  0.76161784  0.09176756  1
  N  N70  1  0.57882703  0.86068853  0.84665836  1
  N  N71  1  0.45682656  0.73790131  0.60154981  1
