# generated using pymatgen
data_Sc4Al5N9
_symmetry_space_group_name_H-M   'P 1'
_cell_length_a   10.21315400
_cell_length_b   10.15268493
_cell_length_c   9.96449172
_cell_angle_alpha   89.97982125
_cell_angle_beta   90.08943314
_cell_angle_gamma   60.12241843
_symmetry_Int_Tables_number   1
_chemical_formula_structural   Sc4Al5N9
_chemical_formula_sum   'Sc16 Al20 N36'
_cell_volume   895.90113199
_cell_formula_units_Z   4
loop_
 _symmetry_equiv_pos_site_id
 _symmetry_equiv_pos_as_xyz
  1  'x, y, z'
loop_
 _atom_site_type_symbol
 _atom_site_label
 _atom_site_symmetry_multiplicity
 _atom_site_fract_x
 _atom_site_fract_y
 _atom_site_fract_z
 _atom_site_occupancy
  Sc  Sc0  1  0.10079452  0.10768252  0.32035936  1
  Sc  Sc1  1  0.87221990  0.21081859  0.57936092  1
  Sc  Sc2  1  0.45316252  0.09217141  0.31743496  1
  Sc  Sc3  1  0.09851676  0.10351954  0.84051034  1
  Sc  Sc4  1  0.22728785  0.21200399  0.59120011  1
  Sc  Sc5  1  0.45265757  0.09817315  0.84589880  1
  Sc  Sc6  1  0.10482472  0.43333828  0.32315860  1
  Sc  Sc7  1  0.88504123  0.54273732  0.58771148  1
  Sc  Sc8  1  0.45190094  0.42317914  0.33645029  1
  Sc  Sc9  1  0.09847128  0.76007086  0.32771193  1
  Sc  Sc10  1  0.22436075  0.86815603  0.08490300  1
  Sc  Sc11  1  0.46251895  0.75018470  0.32697562  1
  Sc  Sc12  1  0.10027799  0.75656629  0.83391828  1
  Sc  Sc13  1  0.22139337  0.86875199  0.57669156  1
  Sc  Sc14  1  0.45499361  0.74586993  0.83482673  1
  Sc  Sc15  1  0.56611174  0.87171433  0.58636123  1
  Al  Al16  1  0.21508716  0.21858826  0.05969824  1
  Al  Al17  1  0.76950511  0.09697741  0.82522550  1
  Al  Al18  1  0.56120366  0.21252605  0.06750422  1
  Al  Al19  1  0.77444408  0.09520402  0.31910054  1
  Al  Al20  1  0.87591034  0.21386526  0.06975615  1
  Al  Al21  1  0.56280767  0.20172477  0.57553641  1
  Al  Al22  1  0.22772935  0.52941224  0.06444215  1
  Al  Al23  1  0.76958469  0.42645951  0.82907361  1
  Al  Al24  1  0.56331809  0.52721556  0.06910020  1
  Al  Al25  1  0.11237808  0.43483216  0.82563747  1
  Al  Al26  1  0.22419649  0.54005264  0.57788133  1
  Al  Al27  1  0.77697620  0.42932808  0.31514197  1
  Al  Al28  1  0.88838931  0.53975724  0.06575835  1
  Al  Al29  1  0.45204031  0.42105302  0.81910773  1
  Al  Al30  1  0.55991792  0.53131862  0.57450941  1
  Al  Al31  1  0.78424767  0.76260484  0.82693365  1
  Al  Al32  1  0.88057703  0.87668908  0.57081003  1
  Al  Al33  1  0.57087430  0.86055169  0.06423158  1
  Al  Al34  1  0.77743233  0.76078914  0.31685712  1
  Al  Al35  1  0.87836541  0.87511532  0.07202403  1
  N  N36  1  0.22674049  0.20695250  0.37607683  1
  N  N37  1  0.09763698  0.11764715  0.09861552  1
  N  N38  1  0.86353486  0.21519258  0.87639504  1
  N  N39  1  0.76911037  0.08348030  0.63398506  1
  N  N40  1  0.57616213  0.19368722  0.38412116  1
  N  N41  1  0.44614186  0.09465218  0.09453998  1
  N  N42  1  0.21271770  0.22631615  0.86714340  1
  N  N43  1  0.10317177  0.09972776  0.62200584  1
  N  N44  1  0.86809913  0.21605935  0.36345646  1
  N  N45  1  0.77574113  0.09525480  0.12595263  1
  N  N46  1  0.56681563  0.21788609  0.87933023  1
  N  N47  1  0.45745116  0.10386453  0.62936599  1
  N  N48  1  0.22377400  0.53680748  0.38803308  1
  N  N49  1  0.10963742  0.43072097  0.10785168  1
  N  N50  1  0.89001336  0.54006870  0.87089383  1
  N  N51  1  0.75775458  0.43775696  0.64142000  1
  N  N52  1  0.58052558  0.52348377  0.38368761  1
  N  N53  1  0.44477636  0.42752631  0.12054863  1
  N  N54  1  0.24035505  0.51770936  0.87389582  1
  N  N55  1  0.11668367  0.44427661  0.63368945  1
  N  N56  1  0.87043190  0.54788463  0.36867833  1
  N  N57  1  0.77796798  0.42911142  0.11990051  1
  N  N58  1  0.56421479  0.51469985  0.88090039  1
  N  N59  1  0.44757519  0.42617742  0.62110242  1
  N  N60  1  0.22338130  0.87176740  0.34820798  1
  N  N61  1  0.09842967  0.74808383  0.10615308  1
  N  N62  1  0.86512462  0.88807640  0.88400688  1
  N  N63  1  0.79230602  0.76858340  0.63877169  1
  N  N64  1  0.57619074  0.86515966  0.37191565  1
  N  N65  1  0.46943761  0.74576393  0.10502153  1
  N  N66  1  0.22169708  0.86772287  0.86962571  1
  N  N67  1  0.09722667  0.75786632  0.61197990  1
  N  N68  1  0.86568670  0.88356202  0.37606772  1
  N  N69  1  0.78076106  0.75814084  0.12246324  1
  N  N70  1  0.57891279  0.85704019  0.87213412  1
  N  N71  1  0.45424999  0.74179417  0.61515750  1
