# generated using pymatgen
data_Sc4Al5N9
_symmetry_space_group_name_H-M   'P 1'
_cell_length_a   10.61493549
_cell_length_b   10.48759258
_cell_length_c   8.95608027
_cell_angle_alpha   89.99423968
_cell_angle_beta   90.31943885
_cell_angle_gamma   60.01746435
_symmetry_Int_Tables_number   1
_chemical_formula_structural   Sc4Al5N9
_chemical_formula_sum   'Sc16 Al20 N36'
_cell_volume   863.59280532
_cell_formula_units_Z   4
loop_
 _symmetry_equiv_pos_site_id
 _symmetry_equiv_pos_as_xyz
  1  'x, y, z'
loop_
 _atom_site_type_symbol
 _atom_site_label
 _atom_site_symmetry_multiplicity
 _atom_site_fract_x
 _atom_site_fract_y
 _atom_site_fract_z
 _atom_site_occupancy
  Sc  Sc0  1  0.10017632  0.10509851  0.34466513  1
  Sc  Sc1  1  0.86753662  0.21371706  0.59498494  1
  Sc  Sc2  1  0.45601106  0.09137861  0.34223237  1
  Sc  Sc3  1  0.09929109  0.10728289  0.85052685  1
  Sc  Sc4  1  0.22598064  0.21393925  0.60057099  1
  Sc  Sc5  1  0.45114428  0.09872618  0.85512438  1
  Sc  Sc6  1  0.10459841  0.43753947  0.34220803  1
  Sc  Sc7  1  0.88547237  0.53984141  0.60422448  1
  Sc  Sc8  1  0.45288285  0.42642066  0.34896470  1
  Sc  Sc9  1  0.10028884  0.75993255  0.34699187  1
  Sc  Sc10  1  0.22275061  0.87116828  0.09949333  1
  Sc  Sc11  1  0.46139947  0.74668882  0.34776927  1
  Sc  Sc12  1  0.09688955  0.75995740  0.85050532  1
  Sc  Sc13  1  0.22223980  0.86726609  0.59896012  1
  Sc  Sc14  1  0.45313391  0.75377687  0.85449925  1
  Sc  Sc15  1  0.57116677  0.86581011  0.60059563  1
  Al  Al16  1  0.21958660  0.21244332  0.09783292  1
  Al  Al17  1  0.77128648  0.09494988  0.84363447  1
  Al  Al18  1  0.56238650  0.20662860  0.09423010  1
  Al  Al19  1  0.77543531  0.09493502  0.32336475  1
  Al  Al20  1  0.88051733  0.20857469  0.08657952  1
  Al  Al21  1  0.56136433  0.20560890  0.59988172  1
  Al  Al22  1  0.22478765  0.53527858  0.10263845  1
  Al  Al23  1  0.77318132  0.42453191  0.85499948  1
  Al  Al24  1  0.56212862  0.53130601  0.09479484  1
  Al  Al25  1  0.11175339  0.43174643  0.86458358  1
  Al  Al26  1  0.22782546  0.53417964  0.62422887  1
  Al  Al27  1  0.77783033  0.42927947  0.31158551  1
  Al  Al28  1  0.88853515  0.54066409  0.08261423  1
  Al  Al29  1  0.44775513  0.42064947  0.86738962  1
  Al  Al30  1  0.55465173  0.52891729  0.63493251  1
  Al  Al31  1  0.78448887  0.76306725  0.84545506  1
  Al  Al32  1  0.87799864  0.87711517  0.57926175  1
  Al  Al33  1  0.56760553  0.86522454  0.08883412  1
  Al  Al34  1  0.77874103  0.75893068  0.32152090  1
  Al  Al35  1  0.88001112  0.87606561  0.08619812  1
  N  N36  1  0.22543431  0.20804493  0.33929561  1
  N  N37  1  0.09809976  0.11419928  0.09765276  1
  N  N38  1  0.86831518  0.21010728  0.86111208  1
  N  N39  1  0.76714701  0.08460415  0.61732601  1
  N  N40  1  0.57563883  0.19865819  0.34582844  1
  N  N41  1  0.44963179  0.09177382  0.09823995  1
  N  N42  1  0.21704384  0.22270410  0.85721418  1
  N  N43  1  0.10128766  0.10418395  0.59893475  1
  N  N44  1  0.86625060  0.21815475  0.34180698  1
  N  N45  1  0.77874831  0.09366825  0.10557687  1
  N  N46  1  0.56603466  0.21308762  0.86259208  1
  N  N47  1  0.45663915  0.10272562  0.60204965  1
  N  N48  1  0.22819133  0.53681924  0.32477267  1
  N  N49  1  0.10876806  0.43203320  0.08960860  1
  N  N50  1  0.89351827  0.54054835  0.86161945  1
  N  N51  1  0.75571159  0.43978314  0.63044571  1
  N  N52  1  0.57907283  0.52284802  0.31743500  1
  N  N53  1  0.44378576  0.42593541  0.09011796  1
  N  N54  1  0.23450823  0.52104629  0.84969564  1
  N  N55  1  0.11631368  0.44258576  0.59672104  1
  N  N56  1  0.87045220  0.54554327  0.34225971  1
  N  N57  1  0.78303499  0.42688032  0.08730001  1
  N  N58  1  0.55979122  0.52014790  0.86219528  1
  N  N59  1  0.44605565  0.42648639  0.60631808  1
  N  N60  1  0.22374432  0.87003166  0.34727972  1
  N  N61  1  0.09667581  0.75653058  0.09705888  1
  N  N62  1  0.86759545  0.88616753  0.87052109  1
  N  N63  1  0.79309138  0.76502720  0.62314913  1
  N  N64  1  0.57814660  0.85984806  0.35013689  1
  N  N65  1  0.46210920  0.75450990  0.09726803  1
  N  N66  1  0.22003126  0.87175267  0.85096636  1
  N  N67  1  0.09855390  0.75356541  0.60042421  1
  N  N68  1  0.86632323  0.88243937  0.35540110  1
  N  N69  1  0.78140763  0.75913650  0.10281782  1
  N  N70  1  0.57692049  0.86188481  0.85934357  1
  N  N71  1  0.45694162  0.73744853  0.60319503  1
