# generated using pymatgen
data_Sc4Al5N9
_symmetry_space_group_name_H-M   'P 1'
_cell_length_a   10.14545312
_cell_length_b   10.09801094
_cell_length_c   10.12915704
_cell_angle_alpha   89.95467579
_cell_angle_beta   90.08178245
_cell_angle_gamma   60.12453539
_symmetry_Int_Tables_number   1
_chemical_formula_structural   Sc4Al5N9
_chemical_formula_sum   'Sc16 Al20 N36'
_cell_volume   899.81609539
_cell_formula_units_Z   4
loop_
 _symmetry_equiv_pos_site_id
 _symmetry_equiv_pos_as_xyz
  1  'x, y, z'
loop_
 _atom_site_type_symbol
 _atom_site_label
 _atom_site_symmetry_multiplicity
 _atom_site_fract_x
 _atom_site_fract_y
 _atom_site_fract_z
 _atom_site_occupancy
  Sc  Sc0  1  0.10122756  0.10728011  0.31217019  1
  Sc  Sc1  1  0.87296752  0.21084580  0.57292754  1
  Sc  Sc2  1  0.45317548  0.09286481  0.31070786  1
  Sc  Sc3  1  0.09863988  0.10311196  0.83530539  1
  Sc  Sc4  1  0.22693584  0.21236875  0.58460986  1
  Sc  Sc5  1  0.45229630  0.09762154  0.84093106  1
  Sc  Sc6  1  0.10539239  0.43316202  0.31647645  1
  Sc  Sc7  1  0.88520481  0.54328614  0.58100489  1
  Sc  Sc8  1  0.45215184  0.42321459  0.33014731  1
  Sc  Sc9  1  0.09864469  0.75956941  0.32217355  1
  Sc  Sc10  1  0.22429719  0.86732316  0.07843760  1
  Sc  Sc11  1  0.46283637  0.74956624  0.32013321  1
  Sc  Sc12  1  0.10052213  0.75654749  0.82657222  1
  Sc  Sc13  1  0.22144625  0.86928821  0.56877365  1
  Sc  Sc14  1  0.45483275  0.74642907  0.82827395  1
  Sc  Sc15  1  0.56547508  0.87274311  0.57872911  1
  Al  Al16  1  0.21530513  0.21816189  0.05486757  1
  Al  Al17  1  0.76977510  0.09740645  0.82102610  1
  Al  Al18  1  0.56098357  0.21182010  0.06234615  1
  Al  Al19  1  0.77432655  0.09501004  0.31542056  1
  Al  Al20  1  0.87579467  0.21387045  0.06533881  1
  Al  Al21  1  0.56203360  0.20275371  0.57232106  1
  Al  Al22  1  0.22695702  0.52984336  0.05937875  1
  Al  Al23  1  0.77051336  0.42665237  0.82443250  1
  Al  Al24  1  0.56347391  0.52751626  0.06381812  1
  Al  Al25  1  0.11172426  0.43458558  0.82171151  1
  Al  Al26  1  0.22457147  0.53958210  0.57405470  1
  Al  Al27  1  0.77678903  0.42917422  0.31112564  1
  Al  Al28  1  0.88810364  0.53983947  0.06188913  1
  Al  Al29  1  0.45188845  0.42127552  0.81595508  1
  Al  Al30  1  0.55963219  0.53149845  0.57102806  1
  Al  Al31  1  0.78355217  0.76223211  0.82277414  1
  Al  Al32  1  0.88076377  0.87675451  0.56750749  1
  Al  Al33  1  0.57046872  0.86077929  0.06026848  1
  Al  Al34  1  0.77756396  0.76131376  0.31224790  1
  Al  Al35  1  0.87875626  0.87463826  0.06692971  1
  N  N36  1  0.22670857  0.20672983  0.37325270  1
  N  N37  1  0.09790545  0.11697994  0.09584004  1
  N  N38  1  0.86338234  0.21569005  0.87562990  1
  N  N39  1  0.76948809  0.08415007  0.63229569  1
  N  N40  1  0.57563780  0.19402962  0.38345068  1
  N  N41  1  0.44589310  0.09470242  0.09150023  1
  N  N42  1  0.21217392  0.22644426  0.86652942  1
  N  N43  1  0.10364984  0.09933055  0.62152651  1
  N  N44  1  0.86891390  0.21551987  0.36056605  1
  N  N45  1  0.77550575  0.09468792  0.12430399  1
  N  N46  1  0.56676350  0.21770203  0.87721445  1
  N  N47  1  0.45706657  0.10402913  0.62841667  1
  N  N48  1  0.22402222  0.53615020  0.38718652  1
  N  N49  1  0.10975584  0.43028162  0.10519957  1
  N  N50  1  0.88948304  0.54011142  0.86988410  1
  N  N51  1  0.75865415  0.43747319  0.63932793  1
  N  N52  1  0.58045567  0.52348337  0.38315320  1
  N  N53  1  0.44473029  0.42737404  0.11722841  1
  N  N54  1  0.23955047  0.51820616  0.87205899  1
  N  N55  1  0.11652406  0.44421870  0.63325810  1
  N  N56  1  0.87083971  0.54802871  0.36558748  1
  N  N57  1  0.77766328  0.42902875  0.11869052  1
  N  N58  1  0.56455262  0.51529312  0.87852930  1
  N  N59  1  0.44736143  0.42648578  0.62077395  1
  N  N60  1  0.22349739  0.87171890  0.34676163  1
  N  N61  1  0.09824813  0.74751273  0.10537176  1
  N  N62  1  0.86541754  0.88774885  0.88147905  1
  N  N63  1  0.79138828  0.76895789  0.63728384  1
  N  N64  1  0.57543096  0.86601772  0.36826763  1
  N  N65  1  0.46951467  0.74539968  0.10357503  1
  N  N66  1  0.22180014  0.86714133  0.86897375  1
  N  N67  1  0.09790187  0.75781130  0.60977278  1
  N  N68  1  0.86589413  0.88351667  0.37542839  1
  N  N69  1  0.78072905  0.75844927  0.12073344  1
  N  N70  1  0.57879908  0.85664212  0.87225690  1
  N  N71  1  0.45419901  0.74255349  0.61341149  1
