# generated using pymatgen
data_Sc4Al5N9
_symmetry_space_group_name_H-M   'P 1'
_cell_length_a   10.60487695
_cell_length_b   10.48656967
_cell_length_c   8.97815122
_cell_angle_alpha   89.96754705
_cell_angle_beta   90.13857488
_cell_angle_gamma   59.96710523
_symmetry_Int_Tables_number   1
_chemical_formula_structural   Sc4Al5N9
_chemical_formula_sum   'Sc16 Al20 N36'
_cell_volume   864.39131034
_cell_formula_units_Z   4
loop_
 _symmetry_equiv_pos_site_id
 _symmetry_equiv_pos_as_xyz
  1  'x, y, z'
loop_
 _atom_site_type_symbol
 _atom_site_label
 _atom_site_symmetry_multiplicity
 _atom_site_fract_x
 _atom_site_fract_y
 _atom_site_fract_z
 _atom_site_occupancy
  Sc  Sc0  1  0.10034426  0.10499972  0.34583426  1
  Sc  Sc1  1  0.86804869  0.21391410  0.59753138  1
  Sc  Sc2  1  0.45548620  0.09398972  0.34478002  1
  Sc  Sc3  1  0.09934568  0.10740902  0.85202275  1
  Sc  Sc4  1  0.22630462  0.21439778  0.60184850  1
  Sc  Sc5  1  0.45164904  0.09586456  0.85801656  1
  Sc  Sc6  1  0.10527691  0.43756437  0.34227352  1
  Sc  Sc7  1  0.88652692  0.54011274  0.60718566  1
  Sc  Sc8  1  0.45319600  0.42475167  0.35121556  1
  Sc  Sc9  1  0.09847384  0.76063224  0.35200331  1
  Sc  Sc10  1  0.22223018  0.87086887  0.10078057  1
  Sc  Sc11  1  0.45993605  0.74594122  0.34870733  1
  Sc  Sc12  1  0.09878679  0.75852307  0.85395099  1
  Sc  Sc13  1  0.22216870  0.86751278  0.60055302  1
  Sc  Sc14  1  0.45436967  0.75433841  0.85566129  1
  Sc  Sc15  1  0.57107432  0.86615252  0.60082392  1
  Al  Al16  1  0.22022171  0.21177701  0.09949345  1
  Al  Al17  1  0.77318953  0.09632185  0.87306476  1
  Al  Al18  1  0.56323074  0.20580622  0.10678215  1
  Al  Al19  1  0.77248971  0.09283983  0.35451535  1
  Al  Al20  1  0.88054823  0.20801875  0.09612715  1
  Al  Al21  1  0.56202391  0.20654472  0.62464318  1
  Al  Al22  1  0.22543502  0.53493893  0.10314106  1
  Al  Al23  1  0.77292297  0.42430082  0.85558098  1
  Al  Al24  1  0.56184668  0.53062173  0.09462937  1
  Al  Al25  1  0.11189239  0.43187098  0.86767327  1
  Al  Al26  1  0.22809985  0.53394655  0.62567799  1
  Al  Al27  1  0.77710872  0.42902797  0.31139557  1
  Al  Al28  1  0.88773822  0.54106894  0.09195440  1
  Al  Al29  1  0.44822042  0.42082521  0.86850368  1
  Al  Al30  1  0.55458802  0.52968032  0.63426743  1
  Al  Al31  1  0.78171198  0.76254652  0.87422763  1
  Al  Al32  1  0.87768566  0.87791923  0.61751295  1
  Al  Al33  1  0.56730697  0.86505727  0.10808986  1
  Al  Al34  1  0.78133344  0.76052911  0.35158107  1
  Al  Al35  1  0.87978475  0.87598313  0.11280965  1
  N  N36  1  0.22531232  0.20817058  0.33838162  1
  N  N37  1  0.09835726  0.11395014  0.09795524  1
  N  N38  1  0.86872998  0.20994106  0.85568360  1
  N  N39  1  0.76539000  0.08633447  0.57915606  1
  N  N40  1  0.57384845  0.19961928  0.32157495  1
  N  N41  1  0.44832828  0.09146011  0.09703223  1
  N  N42  1  0.21710271  0.22282902  0.85581986  1
  N  N43  1  0.10167329  0.10438979  0.59859066  1
  N  N44  1  0.86571517  0.21752459  0.33555435  1
  N  N45  1  0.77930939  0.09218600  0.08832732  1
  N  N46  1  0.56795314  0.21212173  0.84627609  1
  N  N47  1  0.45771526  0.10357295  0.60025271  1
  N  N48  1  0.22857099  0.53764290  0.32211033  1
  N  N49  1  0.10954033  0.43138989  0.08916690  1
  N  N50  1  0.89355340  0.54363146  0.85984631  1
  N  N51  1  0.75605884  0.44072032  0.62801640  1
  N  N52  1  0.57817792  0.52235280  0.31646760  1
  N  N53  1  0.44456079  0.42479789  0.08626575  1
  N  N54  1  0.23524645  0.51999471  0.84835786  1
  N  N55  1  0.11673556  0.44290813  0.59387456  1
  N  N56  1  0.87108135  0.54417558  0.33152709  1
  N  N57  1  0.78226638  0.42619455  0.08451864  1
  N  N58  1  0.55975540  0.52051545  0.86002548  1
  N  N59  1  0.44639085  0.42676263  0.60411238  1
  N  N60  1  0.22272489  0.86993576  0.34779079  1
  N  N61  1  0.09576929  0.75664943  0.09442115  1
  N  N62  1  0.86446435  0.88655362  0.83853792  1
  N  N63  1  0.79341366  0.76411298  0.57566851  1
  N  N64  1  0.57575984  0.86104577  0.33864027  1
  N  N65  1  0.46203401  0.75386081  0.09701128  1
  N  N66  1  0.22048352  0.87174204  0.85144638  1
  N  N67  1  0.09899834  0.75318181  0.60255178  1
  N  N68  1  0.86876900  0.88279233  0.32774095  1
  N  N69  1  0.78056180  0.76092725  0.09184237  1
  N  N70  1  0.57842835  0.86088783  0.84854709  1
  N  N71  1  0.45682452  0.73802361  0.60164808  1
