# generated using pymatgen
data_Sc4Al5N9
_symmetry_space_group_name_H-M   'P 1'
_cell_length_a   10.62213678
_cell_length_b   10.50466374
_cell_length_c   8.93090816
_cell_angle_alpha   89.92440506
_cell_angle_beta   90.09913790
_cell_angle_gamma   59.96684835
_symmetry_Int_Tables_number   1
_chemical_formula_structural   Sc4Al5N9
_chemical_formula_sum   'Sc16 Al20 N36'
_cell_volume   862.72640243
_cell_formula_units_Z   4
loop_
 _symmetry_equiv_pos_site_id
 _symmetry_equiv_pos_as_xyz
  1  'x, y, z'
loop_
 _atom_site_type_symbol
 _atom_site_label
 _atom_site_symmetry_multiplicity
 _atom_site_fract_x
 _atom_site_fract_y
 _atom_site_fract_z
 _atom_site_occupancy
  Sc  Sc0  1  0.10058195  0.10507804  0.34581894  1
  Sc  Sc1  1  0.86802993  0.21349895  0.59690463  1
  Sc  Sc2  1  0.45586766  0.09304706  0.34389630  1
  Sc  Sc3  1  0.09919912  0.10752988  0.85193496  1
  Sc  Sc4  1  0.22646872  0.21411538  0.60125026  1
  Sc  Sc5  1  0.45114699  0.09726646  0.85727877  1
  Sc  Sc6  1  0.10519556  0.43756229  0.34183528  1
  Sc  Sc7  1  0.88604938  0.53994171  0.60512438  1
  Sc  Sc8  1  0.45286035  0.42498787  0.35118610  1
  Sc  Sc9  1  0.09745714  0.76093504  0.35125835  1
  Sc  Sc10  1  0.22228978  0.87104669  0.10091708  1
  Sc  Sc11  1  0.46008610  0.74638624  0.34799020  1
  Sc  Sc12  1  0.10025853  0.75799507  0.85423662  1
  Sc  Sc13  1  0.22204160  0.86768880  0.60004122  1
  Sc  Sc14  1  0.45372004  0.75376558  0.85485588  1
  Sc  Sc15  1  0.57077677  0.86639542  0.60019292  1
  Al  Al16  1  0.22004683  0.21218569  0.09859874  1
  Al  Al17  1  0.77309290  0.09795307  0.87467898  1
  Al  Al18  1  0.56249541  0.20665799  0.10672666  1
  Al  Al19  1  0.77266762  0.09184004  0.35132171  1
  Al  Al20  1  0.88054613  0.20905660  0.09732591  1
  Al  Al21  1  0.56271113  0.20592440  0.62300576  1
  Al  Al22  1  0.22568548  0.53469260  0.10248060  1
  Al  Al23  1  0.77331775  0.42434893  0.85514097  1
  Al  Al24  1  0.56203627  0.53053111  0.09467162  1
  Al  Al25  1  0.11206997  0.43147929  0.86493278  1
  Al  Al26  1  0.22787368  0.53412211  0.62440802  1
  Al  Al27  1  0.77675359  0.42966883  0.31329476  1
  Al  Al28  1  0.88808731  0.54021809  0.08734944  1
  Al  Al29  1  0.44858602  0.42087856  0.86702781  1
  Al  Al30  1  0.55495469  0.52956407  0.63281342  1
  Al  Al31  1  0.78234076  0.76167526  0.86156987  1
  Al  Al32  1  0.87847284  0.87876782  0.61907496  1
  Al  Al33  1  0.56679895  0.86513178  0.09820640  1
  Al  Al34  1  0.78021494  0.75957975  0.33563002  1
  Al  Al35  1  0.88016902  0.87550461  0.10636726  1
  N  N36  1  0.22545643  0.20831271  0.33886995  1
  N  N37  1  0.09843306  0.11413731  0.09818818  1
  N  N38  1  0.86865949  0.21055905  0.85665044  1
  N  N39  1  0.76617467  0.08554877  0.57958694  1
  N  N40  1  0.57321410  0.19987799  0.32370925  1
  N  N41  1  0.44818755  0.09217569  0.09701255  1
  N  N42  1  0.21718493  0.22251743  0.85640586  1
  N  N43  1  0.10163495  0.10442872  0.59877627  1
  N  N44  1  0.86610754  0.21771489  0.33585972  1
  N  N45  1  0.77883110  0.09361376  0.09195508  1
  N  N46  1  0.56853886  0.21217298  0.84715127  1
  N  N47  1  0.45777457  0.10354612  0.60085573  1
  N  N48  1  0.22819424  0.53769133  0.32416675  1
  N  N49  1  0.10936789  0.43166846  0.08900289  1
  N  N50  1  0.89371372  0.54082238  0.86014973  1
  N  N51  1  0.75602722  0.44012329  0.62648523  1
  N  N52  1  0.57796789  0.52258566  0.31815043  1
  N  N53  1  0.44448768  0.42501682  0.08674923  1
  N  N54  1  0.23545917  0.51991672  0.84889518  1
  N  N55  1  0.11668983  0.44262617  0.59600353  1
  N  N56  1  0.87082789  0.54502234  0.33530981  1
  N  N57  1  0.78221002  0.42670134  0.08595021  1
  N  N58  1  0.56043391  0.52020403  0.86025288  1
  N  N59  1  0.44647987  0.42670015  0.60533796  1
  N  N60  1  0.22244555  0.87004151  0.34810859  1
  N  N61  1  0.09704263  0.75600603  0.09520130  1
  N  N62  1  0.86637493  0.88804418  0.84625728  1
  N  N63  1  0.79262289  0.76453650  0.59890688  1
  N  N64  1  0.57655695  0.86048142  0.34150317  1
  N  N65  1  0.46156610  0.75362278  0.09718188  1
  N  N66  1  0.22043435  0.87198603  0.85145244  1
  N  N67  1  0.09833288  0.75386110  0.60288754  1
  N  N68  1  0.86776652  0.88084002  0.32774346  1
  N  N69  1  0.78095092  0.75917940  0.09246592  1
  N  N70  1  0.57633420  0.86214556  0.85474247  1
  N  N71  1  0.45676531  0.73804752  0.60206215  1
