# generated using pymatgen
data_Sc4Al5N9
_symmetry_space_group_name_H-M   'P 1'
_cell_length_a   10.62163909
_cell_length_b   10.50558716
_cell_length_c   8.93222960
_cell_angle_alpha   89.90910505
_cell_angle_beta   90.08697027
_cell_angle_gamma   59.96892917
_symmetry_Int_Tables_number   1
_chemical_formula_structural   Sc4Al5N9
_chemical_formula_sum   'Sc16 Al20 N36'
_cell_volume   862.90746648
_cell_formula_units_Z   4
loop_
 _symmetry_equiv_pos_site_id
 _symmetry_equiv_pos_as_xyz
  1  'x, y, z'
loop_
 _atom_site_type_symbol
 _atom_site_label
 _atom_site_symmetry_multiplicity
 _atom_site_fract_x
 _atom_site_fract_y
 _atom_site_fract_z
 _atom_site_occupancy
  Sc  Sc0  1  0.10061874  0.10505711  0.34585267  1
  Sc  Sc1  1  0.86800551  0.21342831  0.59677540  1
  Sc  Sc2  1  0.45607386  0.09266262  0.34374086  1
  Sc  Sc3  1  0.09916055  0.10755901  0.85193266  1
  Sc  Sc4  1  0.22646639  0.21409707  0.60110945  1
  Sc  Sc5  1  0.45097012  0.09767290  0.85703953  1
  Sc  Sc6  1  0.10508573  0.43762611  0.34175078  1
  Sc  Sc7  1  0.88585587  0.54019872  0.60460974  1
  Sc  Sc8  1  0.45277003  0.42506791  0.35133436  1
  Sc  Sc9  1  0.09702642  0.76102159  0.35110408  1
  Sc  Sc10  1  0.22233965  0.87106184  0.10099550  1
  Sc  Sc11  1  0.46022969  0.74648337  0.34786312  1
  Sc  Sc12  1  0.10075485  0.75782607  0.85442597  1
  Sc  Sc13  1  0.22198960  0.86773061  0.59992510  1
  Sc  Sc14  1  0.45350664  0.75366337  0.85458807  1
  Sc  Sc15  1  0.57112155  0.86627788  0.59985940  1
  Al  Al16  1  0.22006821  0.21217534  0.09858791  1
  Al  Al17  1  0.77303444  0.09863090  0.87543577  1
  Al  Al18  1  0.56230192  0.20687484  0.10705954  1
  Al  Al19  1  0.77267474  0.09143984  0.35077825  1
  Al  Al20  1  0.88054425  0.20937871  0.09771150  1
  Al  Al21  1  0.56285659  0.20579111  0.62282104  1
  Al  Al22  1  0.22575044  0.53466030  0.10260610  1
  Al  Al23  1  0.77361172  0.42438904  0.85493814  1
  Al  Al24  1  0.56209090  0.53053652  0.09473402  1
  Al  Al25  1  0.11210007  0.43124323  0.86465923  1
  Al  Al26  1  0.22780530  0.53408540  0.62438405  1
  Al  Al27  1  0.77665680  0.42990218  0.31363671  1
  Al  Al28  1  0.88835173  0.53955624  0.08523610  1
  Al  Al29  1  0.44867524  0.42085203  0.86701769  1
  Al  Al30  1  0.55501959  0.52953371  0.63276746  1
  Al  Al31  1  0.78247134  0.76169684  0.85563283  1
  Al  Al32  1  0.87874429  0.87889810  0.61999213  1
  Al  Al33  1  0.56616960  0.86542928  0.09441041  1
  Al  Al34  1  0.77966385  0.75916274  0.32546899  1
  Al  Al35  1  0.88047516  0.87572141  0.10366180  1
  N  N36  1  0.22552455  0.20829344  0.33893532  1
  N  N37  1  0.09843944  0.11419082  0.09825898  1
  N  N38  1  0.86862700  0.21083940  0.85676981  1
  N  N39  1  0.76639520  0.08510711  0.57947131  1
  N  N40  1  0.57301302  0.19992873  0.32408799  1
  N  N41  1  0.44817545  0.09226360  0.09702515  1
  N  N42  1  0.21722050  0.22243416  0.85639162  1
  N  N43  1  0.10163528  0.10439467  0.59880503  1
  N  N44  1  0.86619083  0.21778462  0.33607851  1
  N  N45  1  0.77857429  0.09430960  0.09288685  1
  N  N46  1  0.56869156  0.21224280  0.84709091  1
  N  N47  1  0.45782390  0.10347449  0.60096645  1
  N  N48  1  0.22807294  0.53775040  0.32437128  1
  N  N49  1  0.10940368  0.43163660  0.08904630  1
  N  N50  1  0.89395551  0.53939476  0.86047954  1
  N  N51  1  0.75604959  0.44006708  0.62619284  1
  N  N52  1  0.57782801  0.52273038  0.31823861  1
  N  N53  1  0.44445142  0.42502780  0.08681704  1
  N  N54  1  0.23551669  0.51975025  0.84882030  1
  N  N55  1  0.11662857  0.44262499  0.59598920  1
  N  N56  1  0.87050513  0.54571756  0.33654681  1
  N  N57  1  0.78220373  0.42676851  0.08647542  1
  N  N58  1  0.56063607  0.52009027  0.86033059  1
  N  N59  1  0.44649605  0.42672004  0.60535850  1
  N  N60  1  0.22238589  0.87001371  0.34819141  1
  N  N61  1  0.09754117  0.75572449  0.09537795  1
  N  N62  1  0.86720105  0.88888511  0.84955745  1
  N  N63  1  0.79245110  0.76458634  0.61216919  1
  N  N64  1  0.57728988  0.86006071  0.34322331  1
  N  N65  1  0.46147309  0.75362787  0.09723737  1
  N  N66  1  0.22043024  0.87204692  0.85146947  1
  N  N67  1  0.09798894  0.75407416  0.60301281  1
  N  N68  1  0.86724929  0.88009429  0.32751404  1
  N  N69  1  0.78085663  0.75869651  0.09271992  1
  N  N70  1  0.57543930  0.86267108  0.85661299  1
  N  N71  1  0.45679349  0.73808168  0.60219486  1
