# generated using pymatgen
data_Sc4Al5N9
_symmetry_space_group_name_H-M   'P 1'
_cell_length_a   10.58135790
_cell_length_b   10.45527636
_cell_length_c   9.05379617
_cell_angle_alpha   89.98341393
_cell_angle_beta   90.30169050
_cell_angle_gamma   59.98807436
_symmetry_Int_Tables_number   1
_chemical_formula_structural   Sc4Al5N9
_chemical_formula_sum   'Sc16 Al20 N36'
_cell_volume   867.31642019
_cell_formula_units_Z   4
loop_
 _symmetry_equiv_pos_site_id
 _symmetry_equiv_pos_as_xyz
  1  'x, y, z'
loop_
 _atom_site_type_symbol
 _atom_site_label
 _atom_site_symmetry_multiplicity
 _atom_site_fract_x
 _atom_site_fract_y
 _atom_site_fract_z
 _atom_site_occupancy
  Sc  Sc0  1  0.09960474  0.10518158  0.34462913  1
  Sc  Sc1  1  0.86767444  0.21471994  0.59451559  1
  Sc  Sc2  1  0.45628111  0.09002172  0.34012800  1
  Sc  Sc3  1  0.09938044  0.10714101  0.85035295  1
  Sc  Sc4  1  0.22627520  0.21394800  0.60023178  1
  Sc  Sc5  1  0.45186276  0.09998896  0.85257263  1
  Sc  Sc6  1  0.10426082  0.43746992  0.34267722  1
  Sc  Sc7  1  0.88608023  0.53961599  0.60439839  1
  Sc  Sc8  1  0.45238608  0.42776233  0.34767658  1
  Sc  Sc9  1  0.10013990  0.75999713  0.34708546  1
  Sc  Sc10  1  0.22254822  0.87126733  0.09978219  1
  Sc  Sc11  1  0.46174722  0.74705077  0.34784475  1
  Sc  Sc12  1  0.09618059  0.76039448  0.85127414  1
  Sc  Sc13  1  0.22204316  0.86695526  0.59910624  1
  Sc  Sc14  1  0.45243990  0.75423104  0.85460253  1
  Sc  Sc15  1  0.57108412  0.86554691  0.60075861  1
  Al  Al16  1  0.21978269  0.21187342  0.09813614  1
  Al  Al17  1  0.76987464  0.09497365  0.83530254  1
  Al  Al18  1  0.56412000  0.20568804  0.08647351  1
  Al  Al19  1  0.77529188  0.09562076  0.32538562  1
  Al  Al20  1  0.87997181  0.20754562  0.08338957  1
  Al  Al21  1  0.56240210  0.20413764  0.58183950  1
  Al  Al22  1  0.22425621  0.53565350  0.10471945  1
  Al  Al23  1  0.77279812  0.42419686  0.85512748  1
  Al  Al24  1  0.56200183  0.53195295  0.09491316  1
  Al  Al25  1  0.11214279  0.43141318  0.86831427  1
  Al  Al26  1  0.22862611  0.53335388  0.62703376  1
  Al  Al27  1  0.77858886  0.42903073  0.30929550  1
  Al  Al28  1  0.88849057  0.54120848  0.08030800  1
  Al  Al29  1  0.44792539  0.41980575  0.86898604  1
  Al  Al30  1  0.55376982  0.52850060  0.63801064  1
  Al  Al31  1  0.78504313  0.76375777  0.84278682  1
  Al  Al32  1  0.87874350  0.87598291  0.57679038  1
  Al  Al33  1  0.56804401  0.86552570  0.08321988  1
  Al  Al34  1  0.77812081  0.75864295  0.32060734  1
  Al  Al35  1  0.87868574  0.87770324  0.08568814  1
  N  N36  1  0.22582279  0.20720237  0.33907516  1
  N  N37  1  0.09741423  0.11440691  0.09776352  1
  N  N38  1  0.86764880  0.20895334  0.86216224  1
  N  N39  1  0.76775000  0.08385886  0.61862166  1
  N  N40  1  0.57594472  0.19847523  0.36088147  1
  N  N41  1  0.45139491  0.09145007  0.09820524  1
  N  N42  1  0.21723025  0.22274566  0.85730765  1
  N  N43  1  0.10151152  0.10407753  0.59981622  1
  N  N44  1  0.86580127  0.21940089  0.34674173  1
  N  N45  1  0.77778123  0.09459672  0.11354825  1
  N  N46  1  0.56761427  0.21256754  0.86996687  1
  N  N47  1  0.45669551  0.10257731  0.60338688  1
  N  N48  1  0.22769191  0.53713631  0.32191422  1
  N  N49  1  0.10868890  0.43166584  0.09027205  1
  N  N50  1  0.89436649  0.54124769  0.86238488  1
  N  N51  1  0.75543820  0.44037258  0.63514263  1
  N  N52  1  0.57924319  0.52334474  0.31418351  1
  N  N53  1  0.44393813  0.42520420  0.09150133  1
  N  N54  1  0.23468097  0.52044329  0.84944385  1
  N  N55  1  0.11704808  0.44264223  0.59334887  1
  N  N56  1  0.86982876  0.54554191  0.34538312  1
  N  N57  1  0.78383894  0.42636397  0.08699875  1
  N  N58  1  0.55879983  0.52029800  0.86364683  1
  N  N59  1  0.44607168  0.42626428  0.60535649  1
  N  N60  1  0.22380396  0.86989959  0.34731300  1
  N  N61  1  0.09590959  0.75709213  0.09716173  1
  N  N62  1  0.86612590  0.88809148  0.87406333  1
  N  N63  1  0.79378508  0.76517661  0.62669316  1
  N  N64  1  0.57850198  0.85949162  0.35604511  1
  N  N65  1  0.46233484  0.75569249  0.09679653  1
  N  N66  1  0.21951270  0.87173170  0.85167499  1
  N  N67  1  0.09871207  0.75310955  0.60128508  1
  N  N68  1  0.86597533  0.88200151  0.35842959  1
  N  N69  1  0.78082472  0.75945310  0.10552561  1
  N  N70  1  0.57722393  0.86204619  0.85971106  1
  N  N71  1  0.45660400  0.73699108  0.60441865  1
