# generated using pymatgen
data_Sc4Al5N9
_symmetry_space_group_name_H-M   'P 1'
_cell_length_a   10.59341362
_cell_length_b   10.46750651
_cell_length_c   9.01774043
_cell_angle_alpha   89.98382197
_cell_angle_beta   90.28580470
_cell_angle_gamma   60.00269305
_symmetry_Int_Tables_number   1
_chemical_formula_structural   Sc4Al5N9
_chemical_formula_sum   'Sc16 Al20 N36'
_cell_volume   865.98761573
_cell_formula_units_Z   4
loop_
 _symmetry_equiv_pos_site_id
 _symmetry_equiv_pos_as_xyz
  1  'x, y, z'
loop_
 _atom_site_type_symbol
 _atom_site_label
 _atom_site_symmetry_multiplicity
 _atom_site_fract_x
 _atom_site_fract_y
 _atom_site_fract_z
 _atom_site_occupancy
  Sc  Sc0  1  0.09983724  0.10516587  0.34454018  1
  Sc  Sc1  1  0.86779722  0.21438974  0.59457830  1
  Sc  Sc2  1  0.45599872  0.09054994  0.34031993  1
  Sc  Sc3  1  0.09924792  0.10718032  0.85046558  1
  Sc  Sc4  1  0.22625117  0.21383694  0.60024871  1
  Sc  Sc5  1  0.45190104  0.09960223  0.85275858  1
  Sc  Sc6  1  0.10435465  0.43751113  0.34242111  1
  Sc  Sc7  1  0.88582962  0.53977623  0.60450596  1
  Sc  Sc8  1  0.45227439  0.42757884  0.34758047  1
  Sc  Sc9  1  0.10017931  0.75996218  0.34691606  1
  Sc  Sc10  1  0.22261403  0.87125444  0.09962291  1
  Sc  Sc11  1  0.46157601  0.74698354  0.34766544  1
  Sc  Sc12  1  0.09627818  0.76044483  0.85110313  1
  Sc  Sc13  1  0.22214544  0.86705236  0.59901431  1
  Sc  Sc14  1  0.45273834  0.75406381  0.85448107  1
  Sc  Sc15  1  0.57118096  0.86558731  0.60045511  1
  Al  Al16  1  0.21960079  0.21228994  0.09742639  1
  Al  Al17  1  0.77012658  0.09498671  0.83662185  1
  Al  Al18  1  0.56374731  0.20605489  0.08656891  1
  Al  Al19  1  0.77508726  0.09546879  0.32537471  1
  Al  Al20  1  0.87984425  0.20785642  0.08484023  1
  Al  Al21  1  0.56250452  0.20402178  0.58322175  1
  Al  Al22  1  0.22446282  0.53542623  0.10336487  1
  Al  Al23  1  0.77290484  0.42420441  0.85506637  1
  Al  Al24  1  0.56209209  0.53160341  0.09470113  1
  Al  Al25  1  0.11193425  0.43151301  0.86654653  1
  Al  Al26  1  0.22837814  0.53369928  0.62625699  1
  Al  Al27  1  0.77827998  0.42918445  0.31021144  1
  Al  Al28  1  0.88855152  0.54087529  0.08107987  1
  Al  Al29  1  0.44817604  0.41981610  0.86702952  1
  Al  Al30  1  0.55412075  0.52868263  0.63656723  1
  Al  Al31  1  0.78473783  0.76363986  0.84406595  1
  Al  Al32  1  0.87870022  0.87606571  0.57756314  1
  Al  Al33  1  0.56788062  0.86548725  0.08522541  1
  Al  Al34  1  0.77840103  0.75867366  0.32059936  1
  Al  Al35  1  0.87887821  0.87754968  0.08604809  1
  N  N36  1  0.22566303  0.20756352  0.33925263  1
  N  N37  1  0.09758145  0.11434963  0.09769928  1
  N  N38  1  0.86771107  0.20919926  0.86188742  1
  N  N39  1  0.76790779  0.08384214  0.61800789  1
  N  N40  1  0.57587052  0.19863451  0.36025413  1
  N  N41  1  0.45113923  0.09191858  0.09811870  1
  N  N42  1  0.21729562  0.22260685  0.85744255  1
  N  N43  1  0.10147526  0.10409077  0.59950675  1
  N  N44  1  0.86600395  0.21902275  0.34501663  1
  N  N45  1  0.77744725  0.09457034  0.11214243  1
  N  N46  1  0.56739378  0.21255089  0.86848625  1
  N  N47  1  0.45665695  0.10237431  0.60279368  1
  N  N48  1  0.22772380  0.53707641  0.32264729  1
  N  N49  1  0.10859756  0.43180770  0.08994314  1
  N  N50  1  0.89398867  0.54088693  0.86207538  1
  N  N51  1  0.75558442  0.44012088  0.63333081  1
  N  N52  1  0.57914238  0.52320320  0.31552952  1
  N  N53  1  0.44421823  0.42513219  0.09114048  1
  N  N54  1  0.23458638  0.52077224  0.85002689  1
  N  N55  1  0.11682390  0.44259804  0.59507371  1
  N  N56  1  0.87004712  0.54561101  0.34418487  1
  N  N57  1  0.78348015  0.42649722  0.08716412  1
  N  N58  1  0.55921338  0.52026320  0.86304476  1
  N  N59  1  0.44594843  0.42636427  0.60632419  1
  N  N60  1  0.22376849  0.86996330  0.34727515  1
  N  N61  1  0.09605284  0.75710986  0.09712132  1
  N  N62  1  0.86646994  0.88776140  0.87303468  1
  N  N63  1  0.79352414  0.76513939  0.62573739  1
  N  N64  1  0.57835520  0.85970541  0.35341419  1
  N  N65  1  0.46224603  0.75523613  0.09692425  1
  N  N66  1  0.21971609  0.87175647  0.85135923  1
  N  N67  1  0.09869898  0.75319104  0.60101574  1
  N  N68  1  0.86608774  0.88199120  0.35741744  1
  N  N69  1  0.78108942  0.75929256  0.10424579  1
  N  N70  1  0.57700252  0.86210747  0.85961331  1
  N  N71  1  0.45677774  0.73720000  0.60380862  1
