# generated using pymatgen
data_Sc4Al5N9
_symmetry_space_group_name_H-M   'P 1'
_cell_length_a   10.58085563
_cell_length_b   10.45474186
_cell_length_c   9.05541597
_cell_angle_alpha   89.98349459
_cell_angle_beta   90.30252763
_cell_angle_gamma   59.98696483
_symmetry_Int_Tables_number   1
_chemical_formula_structural   Sc4Al5N9
_chemical_formula_sum   'Sc16 Al20 N36'
_cell_volume   867.37627827
_cell_formula_units_Z   4
loop_
 _symmetry_equiv_pos_site_id
 _symmetry_equiv_pos_as_xyz
  1  'x, y, z'
loop_
 _atom_site_type_symbol
 _atom_site_label
 _atom_site_symmetry_multiplicity
 _atom_site_fract_x
 _atom_site_fract_y
 _atom_site_fract_z
 _atom_site_occupancy
  Sc  Sc0  1  0.09958467  0.10517893  0.34339567  1
  Sc  Sc1  1  0.86766076  0.21473222  0.59328023  1
  Sc  Sc2  1  0.45627865  0.08999221  0.33887554  1
  Sc  Sc3  1  0.09938506  0.10713510  0.84910633  1
  Sc  Sc4  1  0.22626825  0.21395248  0.59899326  1
  Sc  Sc5  1  0.45185647  0.10001730  0.85132746  1
  Sc  Sc6  1  0.10424470  0.43746751  0.34145037  1
  Sc  Sc7  1  0.88608308  0.53960733  0.60315140  1
  Sc  Sc8  1  0.45237843  0.42778320  0.34643393  1
  Sc  Sc9  1  0.10012300  0.76000446  0.34586003  1
  Sc  Sc10  1  0.22253977  0.87126226  0.09854898  1
  Sc  Sc11  1  0.46175016  0.74705352  0.34661462  1
  Sc  Sc12  1  0.09617875  0.76038122  0.85003484  1
  Sc  Sc13  1  0.22203454  0.86694674  0.59786991  1
  Sc  Sc14  1  0.45242205  0.75423688  0.85336521  1
  Sc  Sc15  1  0.57106850  0.86554945  0.59953431  1
  Al  Al16  1  0.21978485  0.21184901  0.09693878  1
  Al  Al17  1  0.76984462  0.09498213  0.83401877  1
  Al  Al18  1  0.56412960  0.20566801  0.08527837  1
  Al  Al19  1  0.77530677  0.09561829  0.32413931  1
  Al  Al20  1  0.87997664  0.20752803  0.08207510  1
  Al  Al21  1  0.56238773  0.20414815  0.58049846  1
  Al  Al22  1  0.22423144  0.53566937  0.10355757  1
  Al  Al23  1  0.77278614  0.42419518  0.85389025  1
  Al  Al24  1  0.56199234  0.53197465  0.09368538  1
  Al  Al25  1  0.11215114  0.43140655  0.86715633  1
  Al  Al26  1  0.22863886  0.53332787  0.62581474  1
  Al  Al27  1  0.77859852  0.42902095  0.30801665  1
  Al  Al28  1  0.88848046  0.54122542  0.07902912  1
  Al  Al29  1  0.44790557  0.41980268  0.86787677  1
  Al  Al30  1  0.55374598  0.52848389  0.63683818  1
  Al  Al31  1  0.78504949  0.76376213  0.84148460  1
  Al  Al32  1  0.87873222  0.87598498  0.57553400  1
  Al  Al33  1  0.56804216  0.86552969  0.08188365  1
  Al  Al34  1  0.77810075  0.75864593  0.31936952  1
  Al  Al35  1  0.87867636  0.87770472  0.08441483  1
  N  N36  1  0.22581657  0.20718441  0.33782262  1
  N  N37  1  0.09740130  0.11440575  0.09652555  1
  N  N38  1  0.86764254  0.20894021  0.86093081  1
  N  N39  1  0.76771707  0.08387278  0.61741271  1
  N  N40  1  0.57593872  0.19846631  0.35960970  1
  N  N41  1  0.45138789  0.09142348  0.09697186  1
  N  N42  1  0.21722095  0.22275067  0.85605461  1
  N  N43  1  0.10150787  0.10407284  0.59859036  1
  N  N44  1  0.86578309  0.21941688  0.34558724  1
  N  N45  1  0.77780932  0.09458463  0.11236471  1
  N  N46  1  0.56761619  0.21257191  0.86883890  1
  N  N47  1  0.45669203  0.10259606  0.60216424  1
  N  N48  1  0.22767450  0.53714315  0.32065578  1
  N  N49  1  0.10868908  0.43165894  0.08904680  1
  N  N50  1  0.89437863  0.54126532  0.86115829  1
  N  N51  1  0.75542435  0.44038318  0.63398614  1
  N  N52  1  0.57924377  0.52335288  0.31287835  1
  N  N53  1  0.44390432  0.42522441  0.09029169  1
  N  N54  1  0.23468769  0.52041838  0.84816129  1
  N  N55  1  0.11704945  0.44264293  0.59202325  1
  N  N56  1  0.86980879  0.54554048  0.34419531  1
  N  N57  1  0.78385095  0.42635603  0.08574904  1
  N  N58  1  0.55877164  0.52029485  0.86243472  1
  N  N59  1  0.44607973  0.42624956  0.60403735  1
  N  N60  1  0.22379998  0.86989230  0.34607331  1
  N  N61  1  0.09589538  0.75708620  0.09592155  1
  N  N62  1  0.86610786  0.88810291  0.87285224  1
  N  N63  1  0.79378618  0.76517720  0.62549213  1
  N  N64  1  0.57850182  0.85948033  0.35492803  1
  N  N65  1  0.46233443  0.75571321  0.09554769  1
  N  N66  1  0.21950000  0.87172467  0.85044969  1
  N  N67  1  0.09870713  0.75310550  0.60005815  1
  N  N68  1  0.86595956  0.88200481  0.35725094  1
  N  N69  1  0.78080546  0.75946549  0.10434266  1
  N  N70  1  0.57722542  0.86204835  0.85847184  1
  N  N71  1  0.45659204  0.73697725  0.60320811  1
