# generated using pymatgen
data_Sc4Al5N9
_symmetry_space_group_name_H-M   'P 1'
_cell_length_a   10.62945781
_cell_length_b   10.51270460
_cell_length_c   8.91224250
_cell_angle_alpha   89.90763548
_cell_angle_beta   90.14459116
_cell_angle_gamma   59.97880308
_symmetry_Int_Tables_number   1
_chemical_formula_structural   Sc4Al5N9
_chemical_formula_sum   'Sc16 Al20 N36'
_cell_volume   862.27664126
_cell_formula_units_Z   4
loop_
 _symmetry_equiv_pos_site_id
 _symmetry_equiv_pos_as_xyz
  1  'x, y, z'
loop_
 _atom_site_type_symbol
 _atom_site_label
 _atom_site_symmetry_multiplicity
 _atom_site_fract_x
 _atom_site_fract_y
 _atom_site_fract_z
 _atom_site_occupancy
  Sc  Sc0  1  0.10087375  0.10499729  0.34498539  1
  Sc  Sc1  1  0.86789437  0.21301497  0.59579199  1
  Sc  Sc2  1  0.45604332  0.09248763  0.34290022  1
  Sc  Sc3  1  0.09896705  0.10751118  0.85099460  1
  Sc  Sc4  1  0.22637385  0.21398099  0.60026203  1
  Sc  Sc5  1  0.45066680  0.09790611  0.85623619  1
  Sc  Sc6  1  0.10480350  0.43766972  0.34095738  1
  Sc  Sc7  1  0.88532822  0.54044543  0.60381733  1
  Sc  Sc8  1  0.45288565  0.42490107  0.35052980  1
  Sc  Sc9  1  0.09891450  0.75991832  0.34833508  1
  Sc  Sc10  1  0.22259155  0.87104420  0.09959913  1
  Sc  Sc11  1  0.46066798  0.74665262  0.34698755  1
  Sc  Sc12  1  0.09877955  0.75906455  0.85200592  1
  Sc  Sc13  1  0.22210130  0.86762042  0.59869772  1
  Sc  Sc14  1  0.45333945  0.75339826  0.85345021  1
  Sc  Sc15  1  0.57120401  0.86638777  0.59933314  1
  Al  Al16  1  0.21981276  0.21240935  0.09727321  1
  Al  Al17  1  0.77353533  0.09781649  0.87512137  1
  Al  Al18  1  0.56149875  0.20748336  0.10531889  1
  Al  Al19  1  0.77232065  0.09274336  0.34598042  1
  Al  Al20  1  0.88079549  0.20996876  0.09707849  1
  Al  Al21  1  0.56313363  0.20547581  0.62227154  1
  Al  Al22  1  0.22580659  0.53447790  0.10070038  1
  Al  Al23  1  0.77361661  0.42442403  0.85426662  1
  Al  Al24  1  0.56219712  0.53058580  0.09415354  1
  Al  Al25  1  0.11180701  0.43138737  0.86237604  1
  Al  Al26  1  0.22772924  0.53403739  0.62302922  1
  Al  Al27  1  0.77666635  0.43032999  0.31399437  1
  Al  Al28  1  0.88847965  0.53927613  0.08282844  1
  Al  Al29  1  0.44855914  0.42130976  0.86547800  1
  Al  Al30  1  0.55534912  0.52942542  0.63138612  1
  Al  Al31  1  0.78281674  0.76303853  0.85072504  1
  Al  Al32  1  0.87911531  0.87767090  0.60287597  1
  Al  Al33  1  0.56588028  0.86555984  0.09083440  1
  Al  Al34  1  0.77907319  0.75849196  0.31942511  1
  Al  Al35  1  0.88118678  0.87514735  0.09845136  1
  N  N36  1  0.22544175  0.20847454  0.33874138  1
  N  N37  1  0.09862393  0.11416757  0.09751422  1
  N  N38  1  0.86832654  0.21081300  0.85743229  1
  N  N39  1  0.76589755  0.08572394  0.57928215  1
  N  N40  1  0.57229363  0.20017420  0.32347752  1
  N  N41  1  0.44777419  0.09217420  0.09639510  1
  N  N42  1  0.21705520  0.22240277  0.85594655  1
  N  N43  1  0.10158114  0.10419805  0.59815266  1
  N  N44  1  0.86661933  0.21827734  0.33561452  1
  N  N45  1  0.77897466  0.09418778  0.09613728  1
  N  N46  1  0.56888621  0.21212909  0.84844533  1
  N  N47  1  0.45775047  0.10356708  0.60086144  1
  N  N48  1  0.22852013  0.53672982  0.32432577  1
  N  N49  1  0.10909784  0.43180418  0.08818951  1
  N  N50  1  0.89355867  0.53897903  0.85997199  1
  N  N51  1  0.75626546  0.43959014  0.62515167  1
  N  N52  1  0.57790616  0.52275222  0.31860244  1
  N  N53  1  0.44426773  0.42561440  0.08612088  1
  N  N54  1  0.23499283  0.52043480  0.84843984  1
  N  N55  1  0.11623445  0.44259635  0.59675550  1
  N  N56  1  0.87030782  0.54614336  0.33795725  1
  N  N57  1  0.78210794  0.42722175  0.08653180  1
  N  N58  1  0.56094154  0.52004867  0.85961905  1
  N  N59  1  0.44661827  0.42641674  0.60574701  1
  N  N60  1  0.22300570  0.87000152  0.34711689  1
  N  N61  1  0.09792045  0.75548381  0.09512285  1
  N  N62  1  0.86732870  0.88914096  0.85617904  1
  N  N63  1  0.79215355  0.76477810  0.61987294  1
  N  N64  1  0.57784341  0.85996149  0.34451172  1
  N  N65  1  0.46161841  0.75352619  0.09656656  1
  N  N66  1  0.22013575  0.87197407  0.85033202  1
  N  N67  1  0.09814526  0.75382894  0.60071866  1
  N  N68  1  0.86779133  0.87864679  0.33511334  1
  N  N69  1  0.78090050  0.75855159  0.09402428  1
  N  N70  1  0.57500071  0.86284791  0.85747391  1
  N  N71  1  0.45695372  0.73811192  0.60158341  1
