# generated using pymatgen
data_Sc4Al5N9
_symmetry_space_group_name_H-M   'P 1'
_cell_length_a   10.60021922
_cell_length_b   10.47497352
_cell_length_c   8.99827698
_cell_angle_alpha   90.00888510
_cell_angle_beta   90.42363325
_cell_angle_gamma   60.02036070
_symmetry_Int_Tables_number   1
_chemical_formula_structural   Sc4Al5N9
_chemical_formula_sum   'Sc16 Al20 N36'
_cell_volume   865.42879045
_cell_formula_units_Z   4
loop_
 _symmetry_equiv_pos_site_id
 _symmetry_equiv_pos_as_xyz
  1  'x, y, z'
loop_
 _atom_site_type_symbol
 _atom_site_label
 _atom_site_symmetry_multiplicity
 _atom_site_fract_x
 _atom_site_fract_y
 _atom_site_fract_z
 _atom_site_occupancy
  Sc  Sc0  1  0.10023637  0.10505234  0.34351272  1
  Sc  Sc1  1  0.86635036  0.21317008  0.59325008  1
  Sc  Sc2  1  0.45795483  0.09237954  0.34224864  1
  Sc  Sc3  1  0.09964096  0.10742896  0.84834217  1
  Sc  Sc4  1  0.22601273  0.21450045  0.59895924  1
  Sc  Sc5  1  0.44846567  0.09712780  0.85706411  1
  Sc  Sc6  1  0.10480832  0.43738789  0.34098611  1
  Sc  Sc7  1  0.88543320  0.53946529  0.60131208  1
  Sc  Sc8  1  0.45551030  0.42271866  0.35005931  1
  Sc  Sc9  1  0.10014150  0.76012752  0.34621738  1
  Sc  Sc10  1  0.22267590  0.87117020  0.09808982  1
  Sc  Sc11  1  0.46138972  0.74634656  0.34676914  1
  Sc  Sc12  1  0.09786571  0.75875755  0.84820851  1
  Sc  Sc13  1  0.22203776  0.86742831  0.59747776  1
  Sc  Sc14  1  0.45309187  0.75351525  0.85323470  1
  Sc  Sc15  1  0.57045370  0.86680474  0.59928310  1
  Al  Al16  1  0.22017921  0.21138127  0.09877676  1
  Al  Al17  1  0.77435948  0.09362392  0.85023527  1
  Al  Al18  1  0.56114372  0.20751569  0.09695357  1
  Al  Al19  1  0.77602557  0.09482045  0.31447116  1
  Al  Al20  1  0.88255192  0.20909562  0.08313385  1
  Al  Al21  1  0.55995714  0.20805430  0.63001336  1
  Al  Al22  1  0.22492405  0.53582227  0.10478334  1
  Al  Al23  1  0.77351558  0.42516643  0.85295020  1
  Al  Al24  1  0.56143424  0.53184983  0.09410754  1
  Al  Al25  1  0.11167341  0.43200717  0.86527015  1
  Al  Al26  1  0.22744023  0.53395410  0.62170790  1
  Al  Al27  1  0.77785757  0.42893862  0.30882434  1
  Al  Al28  1  0.88816417  0.54138867  0.08091939  1
  Al  Al29  1  0.44506764  0.42382586  0.87012079  1
  Al  Al30  1  0.55457771  0.52874477  0.63482175  1
  Al  Al31  1  0.78486387  0.76217944  0.84103956  1
  Al  Al32  1  0.87623824  0.87940810  0.57772202  1
  Al  Al33  1  0.56726919  0.86487070  0.08741203  1
  Al  Al34  1  0.77822529  0.75964295  0.32078518  1
  Al  Al35  1  0.88174213  0.87323604  0.08244340  1
  N  N36  1  0.22632255  0.20757661  0.33785645  1
  N  N37  1  0.09874112  0.11431846  0.09614784  1
  N  N38  1  0.86924966  0.21132348  0.85936511  1
  N  N39  1  0.76503703  0.08582532  0.62032452  1
  N  N40  1  0.57616559  0.19806468  0.31781691  1
  N  N41  1  0.44674870  0.09005230  0.09605197  1
  N  N42  1  0.21587598  0.22369640  0.85414703  1
  N  N43  1  0.10102775  0.10429898  0.59702317  1
  N  N44  1  0.86582553  0.21748147  0.33955490  1
  N  N45  1  0.78302937  0.09155091  0.09555636  1
  N  N46  1  0.56418476  0.21410506  0.85815452  1
  N  N47  1  0.45744645  0.10466208  0.60204895  1
  N  N48  1  0.22963910  0.53631567  0.32449008  1
  N  N49  1  0.10937817  0.43195038  0.08851476  1
  N  N50  1  0.89352599  0.54092471  0.86018962  1
  N  N51  1  0.75566766  0.43951754  0.62967879  1
  N  N52  1  0.57887620  0.52233841  0.31505278  1
  N  N53  1  0.44145032  0.42875251  0.08701069  1
  N  N54  1  0.23393685  0.52073134  0.84496210  1
  N  N55  1  0.11582610  0.44276286  0.59202900  1
  N  N56  1  0.87024345  0.54544983  0.34130677  1
  N  N57  1  0.78313577  0.42728319  0.08575226  1
  N  N58  1  0.55981372  0.52005292  0.86063154  1
  N  N59  1  0.44706044  0.42531698  0.60413871  1
  N  N60  1  0.22358304  0.87009664  0.34563896  1
  N  N61  1  0.09735242  0.75527184  0.09567957  1
  N  N62  1  0.86885384  0.88345403  0.86849800  1
  N  N63  1  0.79283693  0.76513409  0.62079991  1
  N  N64  1  0.57760256  0.86035930  0.35053927  1
  N  N65  1  0.46218222  0.75427428  0.09587200  1
  N  N66  1  0.22005010  0.87171625  0.84964023  1
  N  N67  1  0.09819318  0.75410950  0.59854845  1
  N  N68  1  0.86556533  0.88430609  0.35461971  1
  N  N69  1  0.78104607  0.75932697  0.10334390  1
  N  N70  1  0.57747135  0.86100681  0.85774796  1
  N  N71  1  0.45681847  0.73726982  0.60204227  1
