# generated using pymatgen
data_Sc4Al5N9
_symmetry_space_group_name_H-M   'P 1'
_cell_length_a   10.62465436
_cell_length_b   10.50594773
_cell_length_c   8.93054940
_cell_angle_alpha   89.93642978
_cell_angle_beta   90.27840519
_cell_angle_gamma   59.97926945
_symmetry_Int_Tables_number   1
_chemical_formula_structural   Sc4Al5N9
_chemical_formula_sum   'Sc16 Al20 N36'
_cell_volume   863.09646420
_cell_formula_units_Z   4
loop_
 _symmetry_equiv_pos_site_id
 _symmetry_equiv_pos_as_xyz
  1  'x, y, z'
loop_
 _atom_site_type_symbol
 _atom_site_label
 _atom_site_symmetry_multiplicity
 _atom_site_fract_x
 _atom_site_fract_y
 _atom_site_fract_z
 _atom_site_occupancy
  Sc  Sc0  1  0.10107363  0.10494733  0.34470584  1
  Sc  Sc1  1  0.86764493  0.21283931  0.59553189  1
  Sc  Sc2  1  0.45632289  0.09237063  0.34305186  1
  Sc  Sc3  1  0.09909744  0.10744320  0.85044466  1
  Sc  Sc4  1  0.22630812  0.21405846  0.60023952  1
  Sc  Sc5  1  0.45031516  0.09759876  0.85668032  1
  Sc  Sc6  1  0.10474789  0.43751337  0.34118665  1
  Sc  Sc7  1  0.88516963  0.54053551  0.60381730  1
  Sc  Sc8  1  0.45377298  0.42429338  0.35077798  1
  Sc  Sc9  1  0.10192206  0.75841476  0.34569412  1
  Sc  Sc10  1  0.22267830  0.87105920  0.09865949  1
  Sc  Sc11  1  0.46109755  0.74653315  0.34715453  1
  Sc  Sc12  1  0.09573913  0.76055419  0.84967760  1
  Sc  Sc13  1  0.22183556  0.86746154  0.59826304  1
  Sc  Sc14  1  0.45298475  0.75347867  0.85339599  1
  Sc  Sc15  1  0.57112864  0.86646645  0.59990040  1
  Al  Al16  1  0.21984610  0.21226083  0.09740993  1
  Al  Al17  1  0.77410645  0.09612811  0.87183198  1
  Al  Al18  1  0.56113543  0.20774677  0.10371657  1
  Al  Al19  1  0.77255933  0.09550348  0.33845155  1
  Al  Al20  1  0.88146523  0.21004293  0.09444074  1
  Al  Al21  1  0.56298299  0.20548965  0.62420749  1
  Al  Al22  1  0.22571313  0.53461606  0.10082764  1
  Al  Al23  1  0.77337161  0.42458770  0.85430384  1
  Al  Al24  1  0.56194186  0.53096254  0.09417421  1
  Al  Al25  1  0.11169396  0.43179308  0.86261695  1
  Al  Al26  1  0.22744838  0.53424260  0.62267065  1
  Al  Al27  1  0.77716550  0.43030445  0.31274519  1
  Al  Al28  1  0.88847505  0.53997188  0.08150935  1
  Al  Al29  1  0.44759551  0.42204008  0.86632525  1
  Al  Al30  1  0.55526381  0.52919957  0.63274137  1
  Al  Al31  1  0.78370082  0.76421219  0.84715975  1
  Al  Al32  1  0.87792989  0.87670812  0.57662596  1
  Al  Al33  1  0.56628534  0.86516236  0.08956949  1
  Al  Al34  1  0.77841537  0.75750890  0.31885840  1
  Al  Al35  1  0.88103180  0.87452553  0.09262637  1
  N  N36  1  0.22563894  0.20832187  0.33895149  1
  N  N37  1  0.09891381  0.11415987  0.09726528  1
  N  N38  1  0.86837936  0.21055928  0.85902395  1
  N  N39  1  0.76567556  0.08598454  0.58557514  1
  N  N40  1  0.57246917  0.19989322  0.32254316  1
  N  N41  1  0.44758886  0.09140810  0.09655923  1
  N  N42  1  0.21678365  0.22276065  0.85588321  1
  N  N43  1  0.10161280  0.10406610  0.59807554  1
  N  N44  1  0.86695611  0.21877441  0.33647577  1
  N  N45  1  0.77978153  0.09429572  0.09943945  1
  N  N46  1  0.56820963  0.21231050  0.85133294  1
  N  N47  1  0.45767072  0.10373533  0.60170741  1
  N  N48  1  0.22950405  0.53551639  0.32437755  1
  N  N49  1  0.10901121  0.43190200  0.08836049  1
  N  N50  1  0.89347311  0.54021999  0.86012333  1
  N  N51  1  0.75621544  0.43947949  0.62735945  1
  N  N52  1  0.57839127  0.52255183  0.31777881  1
  N  N53  1  0.44359892  0.42632349  0.08626910  1
  N  N54  1  0.23418914  0.52132685  0.84787745  1
  N  N55  1  0.11604508  0.44262121  0.59632764  1
  N  N56  1  0.87041972  0.54563684  0.34069653  1
  N  N57  1  0.78255455  0.42761829  0.08643782  1
  N  N58  1  0.56052552  0.52016120  0.86031625  1
  N  N59  1  0.44681588  0.42599012  0.60609399  1
  N  N60  1  0.22371147  0.86996904  0.34650955  1
  N  N61  1  0.09813600  0.75514483  0.09571842  1
  N  N62  1  0.86651323  0.88812258  0.86920478  1
  N  N63  1  0.79278796  0.76578171  0.62204890  1
  N  N64  1  0.57783300  0.86003662  0.34733039  1
  N  N65  1  0.46172206  0.75380729  0.09649229  1
  N  N66  1  0.21947734  0.87180357  0.84991273  1
  N  N67  1  0.09765449  0.75401636  0.59851080  1
  N  N68  1  0.86804943  0.87853075  0.34543468  1
  N  N69  1  0.78066117  0.75818236  0.09884028  1
  N  N70  1  0.57577817  0.86211462  0.85799496  1
  N  N71  1  0.45687176  0.73783829  0.60196388  1
