# generated using pymatgen
data_Sc4Al5N9
_symmetry_space_group_name_H-M   'P 1'
_cell_length_a   10.39615378
_cell_length_b   10.30072422
_cell_length_c   9.53026686
_cell_angle_alpha   89.92621227
_cell_angle_beta   90.15499712
_cell_angle_gamma   60.10548089
_symmetry_Int_Tables_number   1
_chemical_formula_structural   Sc4Al5N9
_chemical_formula_sum   'Sc16 Al20 N36'
_cell_volume   884.77568714
_cell_formula_units_Z   4
loop_
 _symmetry_equiv_pos_site_id
 _symmetry_equiv_pos_as_xyz
  1  'x, y, z'
loop_
 _atom_site_type_symbol
 _atom_site_label
 _atom_site_symmetry_multiplicity
 _atom_site_fract_x
 _atom_site_fract_y
 _atom_site_fract_z
 _atom_site_occupancy
  Sc  Sc0  1  0.09986631  0.10596330  0.33655270  1
  Sc  Sc1  1  0.87003015  0.21176159  0.58825360  1
  Sc  Sc2  1  0.45592890  0.08946945  0.32827378  1
  Sc  Sc3  1  0.09830159  0.10590916  0.84596133  1
  Sc  Sc4  1  0.22712346  0.21346579  0.59637839  1
  Sc  Sc5  1  0.45236791  0.09960477  0.84915884  1
  Sc  Sc6  1  0.10307767  0.43401378  0.34428563  1
  Sc  Sc7  1  0.88707492  0.54113266  0.59658517  1
  Sc  Sc8  1  0.45288807  0.42285993  0.34660188  1
  Sc  Sc9  1  0.09783815  0.76296149  0.34595137  1
  Sc  Sc10  1  0.22415214  0.87014069  0.09489451  1
  Sc  Sc11  1  0.46132076  0.75147492  0.33823242  1
  Sc  Sc12  1  0.09830087  0.75828104  0.85186018  1
  Sc  Sc13  1  0.22212284  0.86753891  0.59411779  1
  Sc  Sc14  1  0.45558646  0.74568461  0.84334000  1
  Sc  Sc15  1  0.56877620  0.86904351  0.59674534  1
  Al  Al16  1  0.21986852  0.21133294  0.07560003  1
  Al  Al17  1  0.76959065  0.09568810  0.83003899  1
  Al  Al18  1  0.56222390  0.21341609  0.07332664  1
  Al  Al19  1  0.77445118  0.09592516  0.32197924  1
  Al  Al20  1  0.87665682  0.21257616  0.07561529  1
  Al  Al21  1  0.56501162  0.19944526  0.57765385  1
  Al  Al22  1  0.22723720  0.53569124  0.11965631  1
  Al  Al23  1  0.76864165  0.42614947  0.83589245  1
  Al  Al24  1  0.56234223  0.52673506  0.07466132  1
  Al  Al25  1  0.11163333  0.43451204  0.87896233  1
  Al  Al26  1  0.22393584  0.53602565  0.62835057  1
  Al  Al27  1  0.77605588  0.42952821  0.31746514  1
  Al  Al28  1  0.88252430  0.54251180  0.07654658  1
  Al  Al29  1  0.45415822  0.41974367  0.82478528  1
  Al  Al30  1  0.56165944  0.53147306  0.57788682  1
  Al  Al31  1  0.78509452  0.76342692  0.83340552  1
  Al  Al32  1  0.87958095  0.87616107  0.57371246  1
  Al  Al33  1  0.56987869  0.86166265  0.06899246  1
  Al  Al34  1  0.77640936  0.76021077  0.32032979  1
  Al  Al35  1  0.87692977  0.87779040  0.07980264  1
  N  N36  1  0.22887030  0.20333363  0.36306396  1
  N  N37  1  0.09689256  0.11678079  0.09896064  1
  N  N38  1  0.86462206  0.21361079  0.87092054  1
  N  N39  1  0.76926320  0.08183667  0.63054792  1
  N  N40  1  0.57755887  0.19372746  0.37804164  1
  N  N41  1  0.44831372  0.09241045  0.09594287  1
  N  N42  1  0.21473113  0.22506505  0.86402720  1
  N  N43  1  0.10195023  0.10198296  0.61174309  1
  N  N44  1  0.86593985  0.21736437  0.36097444  1
  N  N45  1  0.77565836  0.09668221  0.12188703  1
  N  N46  1  0.56695648  0.21661308  0.87555838  1
  N  N47  1  0.45736974  0.10349724  0.62050377  1
  N  N48  1  0.22496934  0.53844675  0.32231192  1
  N  N49  1  0.10972665  0.43157356  0.09234217  1
  N  N50  1  0.89059512  0.54057865  0.86977839  1
  N  N51  1  0.75789446  0.43856527  0.63940644  1
  N  N52  1  0.58043939  0.52383940  0.37748448  1
  N  N53  1  0.44903239  0.42592383  0.11455449  1
  N  N54  1  0.23672371  0.51815609  0.83814092  1
  N  N55  1  0.11672512  0.44354261  0.58269610  1
  N  N56  1  0.86683643  0.54843543  0.36022768  1
  N  N57  1  0.77710739  0.42862572  0.11338724  1
  N  N58  1  0.56350050  0.51500465  0.87699949  1
  N  N59  1  0.44892377  0.42548779  0.61286360  1
  N  N60  1  0.22411095  0.87105147  0.34709381  1
  N  N61  1  0.09653386  0.75547792  0.09820069  1
  N  N62  1  0.86407168  0.88890772  0.88272138  1
  N  N63  1  0.79451468  0.76674907  0.63617989  1
  N  N64  1  0.57790293  0.86234449  0.37143307  1
  N  N65  1  0.46860099  0.74663397  0.10168092  1
  N  N66  1  0.22135414  0.86971370  0.85905153  1
  N  N67  1  0.09809719  0.75456504  0.60321566  1
  N  N68  1  0.86383003  0.88400004  0.36952517  1
  N  N69  1  0.77908070  0.75980267  0.11792203  1
  N  N70  1  0.57817253  0.85875609  0.86538906  1
  N  N71  1  0.45509755  0.74111068  0.61081015  1
