# generated using pymatgen
data_Sc4Al5N9
_symmetry_space_group_name_H-M   'P 1'
_cell_length_a   10.33204375
_cell_length_b   10.24604364
_cell_length_c   9.71193035
_cell_angle_alpha   89.90873711
_cell_angle_beta   90.18333213
_cell_angle_gamma   60.12889841
_symmetry_Int_Tables_number   1
_chemical_formula_structural   Sc4Al5N9
_chemical_formula_sum   'Sc16 Al20 N36'
_cell_volume   891.53028270
_cell_formula_units_Z   4
loop_
 _symmetry_equiv_pos_site_id
 _symmetry_equiv_pos_as_xyz
  1  'x, y, z'
loop_
 _atom_site_type_symbol
 _atom_site_label
 _atom_site_symmetry_multiplicity
 _atom_site_fract_x
 _atom_site_fract_y
 _atom_site_fract_z
 _atom_site_occupancy
  Sc  Sc0  1  0.10030852  0.10583485  0.33007847  1
  Sc  Sc1  1  0.87102208  0.21126344  0.58420005  1
  Sc  Sc2  1  0.45581055  0.08957936  0.32281881  1
  Sc  Sc3  1  0.09803096  0.10550274  0.84367823  1
  Sc  Sc4  1  0.22742903  0.21283160  0.59404548  1
  Sc  Sc5  1  0.45231241  0.09942787  0.84793414  1
  Sc  Sc6  1  0.10344304  0.43280126  0.34482736  1
  Sc  Sc7  1  0.88639096  0.54186783  0.59192520  1
  Sc  Sc8  1  0.45410489  0.42221868  0.34485238  1
  Sc  Sc9  1  0.09693808  0.76370047  0.34339246  1
  Sc  Sc10  1  0.22447466  0.86946762  0.09127483  1
  Sc  Sc11  1  0.46208447  0.75111848  0.33337509  1
  Sc  Sc12  1  0.09870696  0.75819079  0.84982247  1
  Sc  Sc13  1  0.22240861  0.86771199  0.58879658  1
  Sc  Sc14  1  0.45548379  0.74578132  0.84057458  1
  Sc  Sc15  1  0.56757441  0.87035976  0.59341990  1
  Al  Al16  1  0.21996487  0.21106983  0.07044815  1
  Al  Al17  1  0.76948333  0.09641920  0.82768466  1
  Al  Al18  1  0.56220446  0.21382287  0.07039031  1
  Al  Al19  1  0.77417039  0.09557330  0.32095544  1
  Al  Al20  1  0.87617399  0.21316224  0.07327032  1
  Al  Al21  1  0.56474607  0.19933005  0.57646739  1
  Al  Al22  1  0.22690379  0.53573556  0.12293467  1
  Al  Al23  1  0.76924383  0.42607548  0.83254927  1
  Al  Al24  1  0.56288759  0.52629784  0.07165933  1
  Al  Al25  1  0.11113047  0.43554798  0.88197221  1
  Al  Al26  1  0.22336326  0.53587993  0.62916435  1
  Al  Al27  1  0.77569856  0.42965792  0.31662431  1
  Al  Al28  1  0.88160765  0.54315930  0.07493517  1
  Al  Al29  1  0.45485656  0.41933023  0.82088637  1
  Al  Al30  1  0.56163037  0.53182413  0.57658754  1
  Al  Al31  1  0.78465126  0.76327780  0.83051272  1
  Al  Al32  1  0.87990025  0.87614080  0.57310973  1
  Al  Al33  1  0.57030423  0.86123931  0.06617873  1
  Al  Al34  1  0.77601646  0.76103417  0.31928543  1
  Al  Al35  1  0.87657313  0.87778422  0.07646966  1
  N  N36  1  0.23018723  0.20120249  0.36748025  1
  N  N37  1  0.09712553  0.11689013  0.09938717  1
  N  N38  1  0.86404763  0.21435136  0.87389833  1
  N  N39  1  0.76952896  0.08224671  0.63237495  1
  N  N40  1  0.57742466  0.19273442  0.38118045  1
  N  N41  1  0.44780744  0.09273570  0.09491814  1
  N  N42  1  0.21383112  0.22573732  0.86607647  1
  N  N43  1  0.10221118  0.10126030  0.61691040  1
  N  N44  1  0.86648103  0.21688417  0.36240465  1
  N  N45  1  0.77547686  0.09629948  0.12408611  1
  N  N46  1  0.56707782  0.21720060  0.87707080  1
  N  N47  1  0.45753224  0.10396906  0.62563941  1
  N  N48  1  0.22502161  0.53832353  0.32049511  1
  N  N49  1  0.11002125  0.43152392  0.09200316  1
  N  N50  1  0.88962763  0.54112807  0.87204079  1
  N  N51  1  0.75844592  0.43779990  0.64046496  1
  N  N52  1  0.58063960  0.52442145  0.38107975  1
  N  N53  1  0.44982169  0.42566614  0.11688056  1
  N  N54  1  0.23620527  0.51754404  0.83392567  1
  N  N55  1  0.11678057  0.44379635  0.57740990  1
  N  N56  1  0.86603775  0.54921411  0.36210324  1
  N  N57  1  0.77694665  0.42870946  0.11677525  1
  N  N58  1  0.56412726  0.51450437  0.87812503  1
  N  N59  1  0.44957279  0.42515940  0.61375479  1
  N  N60  1  0.22455659  0.87091614  0.34854101  1
  N  N61  1  0.09611342  0.75510395  0.09832747  1
  N  N62  1  0.86341171  0.88926590  0.88341047  1
  N  N63  1  0.79388883  0.76724015  0.63787703  1
  N  N64  1  0.57717686  0.86336922  0.37322244  1
  N  N65  1  0.46942700  0.74590863  0.10257378  1
  N  N66  1  0.22164281  0.86938666  0.86362471  1
  N  N67  1  0.09831778  0.75484499  0.60435170  1
  N  N68  1  0.86326962  0.88434966  0.37313782  1
  N  N69  1  0.77885999  0.76036794  0.12061805  1
  N  N70  1  0.57853354  0.85825095  0.86792830  1
  N  N71  1  0.45524392  0.74117221  0.61414676  1
