# generated using pymatgen
data_Sc4Al5N9
_symmetry_space_group_name_H-M   'P 1'
_cell_length_a   10.54653326
_cell_length_b   10.43493397
_cell_length_c   9.13068534
_cell_angle_alpha   89.99344340
_cell_angle_beta   90.18279952
_cell_angle_gamma   59.95631350
_symmetry_Int_Tables_number   1
_chemical_formula_structural   Sc4Al5N9
_chemical_formula_sum   'Sc16 Al20 N36'
_cell_volume   869.83930798
_cell_formula_units_Z   4
loop_
 _symmetry_equiv_pos_site_id
 _symmetry_equiv_pos_as_xyz
  1  'x, y, z'
loop_
 _atom_site_type_symbol
 _atom_site_label
 _atom_site_symmetry_multiplicity
 _atom_site_fract_x
 _atom_site_fract_y
 _atom_site_fract_z
 _atom_site_occupancy
  Sc  Sc0  1  0.09950435  0.10443882  0.34896484  1
  Sc  Sc1  1  0.86779165  0.21540989  0.60141600  1
  Sc  Sc2  1  0.45547507  0.09468313  0.34984193  1
  Sc  Sc3  1  0.10004470  0.10747351  0.85503098  1
  Sc  Sc4  1  0.22566686  0.21564884  0.60553976  1
  Sc  Sc5  1  0.45163161  0.09487487  0.86143571  1
  Sc  Sc6  1  0.10473394  0.43802995  0.34524225  1
  Sc  Sc7  1  0.88841350  0.54032331  0.61493417  1
  Sc  Sc8  1  0.45422576  0.42445280  0.35500946  1
  Sc  Sc9  1  0.09886075  0.76037777  0.35653979  1
  Sc  Sc10  1  0.22207330  0.87048379  0.10351239  1
  Sc  Sc11  1  0.45977896  0.74488113  0.35261631  1
  Sc  Sc12  1  0.09850180  0.75799225  0.85673856  1
  Sc  Sc13  1  0.22209746  0.86741607  0.60420005  1
  Sc  Sc14  1  0.45477133  0.75567508  0.85937445  1
  Sc  Sc15  1  0.57138252  0.86566137  0.60319498  1
  Al  Al16  1  0.22148389  0.20982711  0.10900334  1
  Al  Al17  1  0.77272966  0.09581192  0.87510960  1
  Al  Al18  1  0.56416243  0.20411055  0.11243185  1
  Al  Al19  1  0.77227721  0.09320697  0.36351173  1
  Al  Al20  1  0.88088548  0.20648317  0.09629515  1
  Al  Al21  1  0.56087329  0.20784721  0.62969870  1
  Al  Al22  1  0.22533728  0.53543669  0.10991947  1
  Al  Al23  1  0.77273306  0.42402068  0.85846382  1
  Al  Al24  1  0.56107371  0.53122700  0.09665052  1
  Al  Al25  1  0.11330104  0.43090231  0.87836567  1
  Al  Al26  1  0.22873475  0.53290722  0.63012462  1
  Al  Al27  1  0.77774649  0.42836865  0.30766774  1
  Al  Al28  1  0.88729332  0.54253411  0.09563335  1
  Al  Al29  1  0.44726778  0.41999637  0.87598418  1
  Al  Al30  1  0.55326697  0.52976471  0.64157970  1
  Al  Al31  1  0.78064763  0.76469683  0.88007236  1
  Al  Al32  1  0.87780894  0.87743934  0.62182789  1
  Al  Al33  1  0.56692542  0.86577800  0.11959732  1
  Al  Al34  1  0.78226620  0.76008241  0.35797945  1
  Al  Al35  1  0.87924602  0.87706763  0.11926364  1
  N  N36  1  0.22507126  0.20741298  0.33729435  1
  N  N37  1  0.09833648  0.11366957  0.09988677  1
  N  N38  1  0.86909265  0.20933147  0.85608851  1
  N  N39  1  0.76482742  0.08679249  0.57964977  1
  N  N40  1  0.57503133  0.19886734  0.32064142  1
  N  N41  1  0.44864399  0.09042566  0.09938669  1
  N  N42  1  0.21694532  0.22365518  0.85327000  1
  N  N43  1  0.10161951  0.10445526  0.59988666  1
  N  N44  1  0.86469909  0.21773692  0.33792776  1
  N  N45  1  0.77909461  0.09158875  0.08502065  1
  N  N46  1  0.56707251  0.21251547  0.84448631  1
  N  N47  1  0.45742106  0.10408316  0.60012335  1
  N  N48  1  0.22924079  0.53797571  0.32075363  1
  N  N49  1  0.11131765  0.42985562  0.09236249  1
  N  N50  1  0.89560087  0.54492743  0.86287181  1
  N  N51  1  0.75575785  0.44250238  0.63549204  1
  N  N52  1  0.57818818  0.52236881  0.31265557  1
  N  N53  1  0.44418629  0.42366679  0.08783916  1
  N  N54  1  0.23556105  0.51845497  0.84687884  1
  N  N55  1  0.11718542  0.44375291  0.58677834  1
  N  N56  1  0.87012766  0.54525838  0.32710964  1
  N  N57  1  0.78267928  0.42521239  0.08424729  1
  N  N58  1  0.55791937  0.52089899  0.86280537  1
  N  N59  1  0.44666331  0.42699009  0.60154789  1
  N  N60  1  0.22281260  0.86944949  0.34934959  1
  N  N61  1  0.09496153  0.75637171  0.09510192  1
  N  N62  1  0.86379304  0.88672517  0.83522906  1
  N  N63  1  0.79488668  0.76328475  0.57174820  1
  N  N64  1  0.57579477  0.86091608  0.34031940  1
  N  N65  1  0.46251539  0.75499776  0.09851938  1
  N  N66  1  0.22052112  0.87156322  0.85389438  1
  N  N67  1  0.09946238  0.75268413  0.60481962  1
  N  N68  1  0.86849252  0.88395354  0.32794155  1
  N  N69  1  0.77865280  0.76375918  0.09116472  1
  N  N70  1  0.57937681  0.86066694  0.84192295  1
  N  N71  1  0.45653367  0.73736306  0.60317338  1
