# generated using pymatgen
data_Sc4Al5N9
_symmetry_space_group_name_H-M   'P 1'
_cell_length_a   10.61881116
_cell_length_b   10.50063266
_cell_length_c   8.94000174
_cell_angle_alpha   89.94106932
_cell_angle_beta   90.11256162
_cell_angle_gamma   59.96694209
_symmetry_Int_Tables_number   1
_chemical_formula_structural   Sc4Al5N9
_chemical_formula_sum   'Sc16 Al20 N36'
_cell_volume   863.00402675
_cell_formula_units_Z   4
loop_
 _symmetry_equiv_pos_site_id
 _symmetry_equiv_pos_as_xyz
  1  'x, y, z'
loop_
 _atom_site_type_symbol
 _atom_site_label
 _atom_site_symmetry_multiplicity
 _atom_site_fract_x
 _atom_site_fract_y
 _atom_site_fract_z
 _atom_site_occupancy
  Sc  Sc0  1  0.10052231  0.10509034  0.34578941  1
  Sc  Sc1  1  0.86804924  0.21356306  0.59704651  1
  Sc  Sc2  1  0.45570613  0.09339891  0.34410463  1
  Sc  Sc3  1  0.09923709  0.10749115  0.85193985  1
  Sc  Sc4  1  0.22643570  0.21416236  0.60140233  1
  Sc  Sc5  1  0.45135945  0.09679336  0.85754775  1
  Sc  Sc6  1  0.10522408  0.43753841  0.34195521  1
  Sc  Sc7  1  0.88621504  0.53986148  0.60583236  1
  Sc  Sc8  1  0.45294116  0.42490684  0.35111265  1
  Sc  Sc9  1  0.09783514  0.76085213  0.35143572  1
  Sc  Sc10  1  0.22225668  0.87100468  0.10084083  1
  Sc  Sc11  1  0.46000229  0.74627558  0.34817343  1
  Sc  Sc12  1  0.09972035  0.75816113  0.85407725  1
  Sc  Sc13  1  0.22206478  0.86763451  0.60017450  1
  Sc  Sc14  1  0.45396626  0.75390960  0.85514151  1
  Sc  Sc15  1  0.57067231  0.86640968  0.60061418  1
  Al  Al16  1  0.22005942  0.21213896  0.09871012  1
  Al  Al17  1  0.77313008  0.09729471  0.87399635  1
  Al  Al18  1  0.56271470  0.20640945  0.10660852  1
  Al  Al19  1  0.77266229  0.09220356  0.35208914  1
  Al  Al20  1  0.88053334  0.20873723  0.09694719  1
  Al  Al21  1  0.56254124  0.20608128  0.62333163  1
  Al  Al22  1  0.22560199  0.53474947  0.10254415  1
  Al  Al23  1  0.77308752  0.42432375  0.85530824  1
  Al  Al24  1  0.56199261  0.53053809  0.09464983  1
  Al  Al25  1  0.11200579  0.43169336  0.86549114  1
  Al  Al26  1  0.22794148  0.53411473  0.62461177  1
  Al  Al27  1  0.77686771  0.42946877  0.31285708  1
  Al  Al28  1  0.88785909  0.54072944  0.08958111  1
  Al  Al29  1  0.44849031  0.42088224  0.86726435  1
  Al  Al30  1  0.55487114  0.52960580  0.63304235  1
  Al  Al31  1  0.78208713  0.76186907  0.86841140  1
  Al  Al32  1  0.87809866  0.87844732  0.61838130  1
  Al  Al33  1  0.56731046  0.86489601  0.10236314  1
  Al  Al34  1  0.78080177  0.76013764  0.34596593  1
  Al  Al35  1  0.87990489  0.87543310  0.10915585  1
  N  N36  1  0.22540847  0.20829352  0.33877738  1
  N  N37  1  0.09841904  0.11408378  0.09810109  1
  N  N38  1  0.86868974  0.21030336  0.85638772  1
  N  N39  1  0.76595042  0.08582493  0.57953010  1
  N  N40  1  0.57342975  0.19980124  0.32316570  1
  N  N41  1  0.44825508  0.09197700  0.09698386  1
  N  N42  1  0.21715839  0.22261460  0.85630761  1
  N  N43  1  0.10164762  0.10442370  0.59872331  1
  N  N44  1  0.86599394  0.21764858  0.33567483  1
  N  N45  1  0.77903727  0.09300645  0.09075774  1
  N  N46  1  0.56835287  0.21213410  0.84695677  1
  N  N47  1  0.45776394  0.10352798  0.60069114  1
  N  N48  1  0.22828282  0.53767630  0.32371671  1
  N  N49  1  0.10934721  0.43165265  0.08896309  1
  N  N50  1  0.89349961  0.54216587  0.85974549  1
  N  N51  1  0.75605503  0.44025572  0.62683138  1
  N  N52  1  0.57808120  0.52248795  0.31783450  1
  N  N53  1  0.44452338  0.42497786  0.08660642  1
  N  N54  1  0.23540596  0.52001726  0.84880184  1
  N  N55  1  0.11668905  0.44267743  0.59571529  1
  N  N56  1  0.87103173  0.54451093  0.33392482  1
  N  N57  1  0.78221215  0.42659398  0.08540706  1
  N  N58  1  0.56021940  0.52032080  0.86011622  1
  N  N59  1  0.44645580  0.42670413  0.60510081  1
  N  N60  1  0.22252540  0.87003731  0.34800116  1
  N  N61  1  0.09656833  0.75624667  0.09492041  1
  N  N62  1  0.86547735  0.88722496  0.84287846  1
  N  N63  1  0.79290001  0.76447956  0.58546277  1
  N  N64  1  0.57609436  0.86075566  0.33996575  1
  N  N65  1  0.46172152  0.75365924  0.09710007  1
  N  N66  1  0.22043729  0.87190597  0.85142505  1
  N  N67  1  0.09856195  0.75362750  0.60276168  1
  N  N68  1  0.86825803  0.88167826  0.32757590  1
  N  N69  1  0.78093096  0.75972971  0.09174023  1
  N  N70  1  0.57727027  0.86159011  0.85229713  1
  N  N71  1  0.45677585  0.73807497  0.60190119  1
