# generated using pymatgen
data_Sc4Al5N9
_symmetry_space_group_name_H-M   'P 1'
_cell_length_a   10.38537190
_cell_length_b   10.29156354
_cell_length_c   9.56108920
_cell_angle_alpha   89.92252357
_cell_angle_beta   90.15914376
_cell_angle_gamma   60.10791457
_symmetry_Int_Tables_number   1
_chemical_formula_structural   Sc4Al5N9
_chemical_formula_sum   'Sc16 Al20 N36'
_cell_volume   885.94917828
_cell_formula_units_Z   4
loop_
 _symmetry_equiv_pos_site_id
 _symmetry_equiv_pos_as_xyz
  1  'x, y, z'
loop_
 _atom_site_type_symbol
 _atom_site_label
 _atom_site_symmetry_multiplicity
 _atom_site_fract_x
 _atom_site_fract_y
 _atom_site_fract_z
 _atom_site_occupancy
  Sc  Sc0  1  0.09995766  0.10594530  0.33556999  1
  Sc  Sc1  1  0.87018058  0.21167828  0.58760651  1
  Sc  Sc2  1  0.45588866  0.08948058  0.32735964  1
  Sc  Sc3  1  0.09824261  0.10583266  0.84559623  1
  Sc  Sc4  1  0.22717855  0.21337745  0.59609687  1
  Sc  Sc5  1  0.45239004  0.09959075  0.84899271  1
  Sc  Sc6  1  0.10312284  0.43377442  0.34443478  1
  Sc  Sc7  1  0.88696828  0.54125208  0.59586077  1
  Sc  Sc8  1  0.45308536  0.42274895  0.34645218  1
  Sc  Sc9  1  0.09769212  0.76308121  0.34571888  1
  Sc  Sc10  1  0.22419906  0.87002467  0.09439325  1
  Sc  Sc11  1  0.46145623  0.75143677  0.33749318  1
  Sc  Sc12  1  0.09839294  0.75821345  0.85165077  1
  Sc  Sc13  1  0.22217025  0.86755715  0.59341269  1
  Sc  Sc14  1  0.45558345  0.74567487  0.84294409  1
  Sc  Sc15  1  0.56856042  0.86927898  0.59628732  1
  Al  Al16  1  0.21987641  0.21129200  0.07458187  1
  Al  Al17  1  0.76956736  0.09580932  0.82965843  1
  Al  Al18  1  0.56221427  0.21354619  0.07285971  1
  Al  Al19  1  0.77441170  0.09586676  0.32182824  1
  Al  Al20  1  0.87657897  0.21268899  0.07521670  1
  Al  Al21  1  0.56499607  0.19937621  0.57744901  1
  Al  Al22  1  0.22719224  0.53570211  0.12040819  1
  Al  Al23  1  0.76872067  0.42613043  0.83530594  1
  Al  Al24  1  0.56242752  0.52663971  0.07418680  1
  Al  Al25  1  0.11156168  0.43470917  0.87951601  1
  Al  Al26  1  0.22380629  0.53601811  0.62849186  1
  Al  Al27  1  0.77600152  0.42955216  0.31737730  1
  Al  Al28  1  0.88235642  0.54263028  0.07626998  1
  Al  Al29  1  0.45428269  0.41966851  0.82401047  1
  Al  Al30  1  0.56167295  0.53154198  0.57766269  1
  Al  Al31  1  0.78503979  0.76341337  0.83289381  1
  Al  Al32  1  0.87961632  0.87617422  0.57362575  1
  Al  Al33  1  0.56996286  0.86157491  0.06848090  1
  Al  Al34  1  0.77633386  0.76035088  0.32022215  1
  Al  Al35  1  0.87686517  0.87778435  0.07926988  1
  N  N36  1  0.22910554  0.20297119  0.36407611  1
  N  N37  1  0.09694319  0.11681467  0.09906441  1
  N  N38  1  0.86451364  0.21374133  0.87146583  1
  N  N39  1  0.76930448  0.08189237  0.63093414  1
  N  N40  1  0.57755113  0.19353082  0.37863604  1
  N  N41  1  0.44819555  0.09247443  0.09579156  1
  N  N42  1  0.21456736  0.22519764  0.86437425  1
  N  N43  1  0.10198360  0.10186404  0.61266868  1
  N  N44  1  0.86602129  0.21728515  0.36132998  1
  N  N45  1  0.77563785  0.09663007  0.12232435  1
  N  N46  1  0.56698200  0.21674823  0.87589283  1
  N  N47  1  0.45741613  0.10359010  0.62151421  1
  N  N48  1  0.22494921  0.53842666  0.32211922  1
  N  N49  1  0.10979901  0.43155567  0.09234142  1
  N  N50  1  0.89044374  0.54067824  0.87017636  1
  N  N51  1  0.75797042  0.43844301  0.63963762  1
  N  N52  1  0.58047917  0.52394047  0.37816468  1
  N  N53  1  0.44915283  0.42590174  0.11511965  1
  N  N54  1  0.23666615  0.51803296  0.83735245  1
  N  N55  1  0.11670508  0.44359498  0.58182842  1
  N  N56  1  0.86668923  0.54857031  0.36067778  1
  N  N57  1  0.77708533  0.42864410  0.11405655  1
  N  N58  1  0.56360447  0.51488335  0.87725774  1
  N  N59  1  0.44905388  0.42542306  0.61298335  1
  N  N60  1  0.22419071  0.87102137  0.34728648  1
  N  N61  1  0.09648210  0.75537676  0.09822128  1
  N  N62  1  0.86395136  0.88897337  0.88290476  1
  N  N63  1  0.79442190  0.76684729  0.63651578  1
  N  N64  1  0.57778886  0.86252730  0.37189123  1
  N  N65  1  0.46874637  0.74651246  0.10184517  1
  N  N66  1  0.22139380  0.86963961  0.85977908  1
  N  N67  1  0.09812323  0.75461279  0.60335261  1
  N  N68  1  0.86372238  0.88407319  0.37020181  1
  N  N69  1  0.77903263  0.75989743  0.11847441  1
  N  N70  1  0.57824796  0.85866538  0.86582102  1
  N  N71  1  0.45512885  0.74110954  0.61143100  1
