# generated using pymatgen
data_Sc4Al5N9
_symmetry_space_group_name_H-M   'P 1'
_cell_length_a   10.31164636
_cell_length_b   10.23388307
_cell_length_c   9.72543570
_cell_angle_alpha   89.89879836
_cell_angle_beta   90.07427638
_cell_angle_gamma   60.11002545
_symmetry_Int_Tables_number   1
_chemical_formula_structural   Sc4Al5N9
_chemical_formula_sum   'Sc16 Al20 N36'
_cell_volume   889.78799952
_cell_formula_units_Z   4
loop_
 _symmetry_equiv_pos_site_id
 _symmetry_equiv_pos_as_xyz
  1  'x, y, z'
loop_
 _atom_site_type_symbol
 _atom_site_label
 _atom_site_symmetry_multiplicity
 _atom_site_fract_x
 _atom_site_fract_y
 _atom_site_fract_z
 _atom_site_occupancy
  Sc  Sc0  1  0.10052169  0.10706052  0.32737102  1
  Sc  Sc1  1  0.87140137  0.21074976  0.58286830  1
  Sc  Sc2  1  0.45289573  0.09210462  0.32130150  1
  Sc  Sc3  1  0.09814879  0.10418788  0.84269968  1
  Sc  Sc4  1  0.22791334  0.21026244  0.59433449  1
  Sc  Sc5  1  0.45288202  0.09895079  0.84755610  1
  Sc  Sc6  1  0.10241354  0.43235158  0.32880075  1
  Sc  Sc7  1  0.88358407  0.54292336  0.59179131  1
  Sc  Sc8  1  0.45291509  0.42247121  0.33970012  1
  Sc  Sc9  1  0.09771492  0.76194558  0.33389780  1
  Sc  Sc10  1  0.22499327  0.86980304  0.08949181  1
  Sc  Sc11  1  0.46207797  0.75095121  0.33172796  1
  Sc  Sc12  1  0.09969628  0.75747721  0.84434730  1
  Sc  Sc13  1  0.22200387  0.86747444  0.58441578  1
  Sc  Sc14  1  0.45573894  0.74554930  0.83883201  1
  Sc  Sc15  1  0.56688972  0.87106181  0.59049414  1
  Al  Al16  1  0.21457685  0.21898438  0.06187922  1
  Al  Al17  1  0.76971069  0.09628795  0.82669970  1
  Al  Al18  1  0.56188921  0.21297548  0.06951381  1
  Al  Al19  1  0.77427697  0.09535952  0.32000467  1
  Al  Al20  1  0.87627234  0.21360829  0.07211444  1
  Al  Al21  1  0.56433119  0.19973261  0.57578760  1
  Al  Al22  1  0.22715528  0.53089499  0.07955605  1
  Al  Al23  1  0.76916833  0.42590413  0.83112483  1
  Al  Al24  1  0.56379180  0.52689918  0.07148463  1
  Al  Al25  1  0.11220693  0.43492958  0.82771275  1
  Al  Al26  1  0.22602859  0.53932789  0.59324010  1
  Al  Al27  1  0.77679428  0.42982405  0.31582497  1
  Al  Al28  1  0.88832282  0.53973347  0.06645823  1
  Al  Al29  1  0.45334297  0.42074261  0.82188239  1
  Al  Al30  1  0.56077167  0.53148802  0.57479992  1
  Al  Al31  1  0.78435329  0.76359510  0.82870288  1
  Al  Al32  1  0.88027284  0.87621397  0.57136257  1
  Al  Al33  1  0.57102044  0.86057527  0.06595323  1
  Al  Al34  1  0.77689651  0.76037661  0.31816618  1
  Al  Al35  1  0.87672797  0.87688616  0.07525492  1
  N  N36  1  0.22716928  0.20534696  0.37415378  1
  N  N37  1  0.09743966  0.11808794  0.09764832  1
  N  N38  1  0.86399144  0.21433352  0.87302406  1
  N  N39  1  0.76946362  0.08234578  0.63141343  1
  N  N40  1  0.57686548  0.19295068  0.38061010  1
  N  N41  1  0.44615067  0.09498423  0.09371914  1
  N  N42  1  0.21323228  0.22584953  0.86307038  1
  N  N43  1  0.10242723  0.09958641  0.61706190  1
  N  N44  1  0.86708503  0.21665143  0.36137737  1
  N  N45  1  0.77558507  0.09613389  0.12342330  1
  N  N46  1  0.56741405  0.21731783  0.87664581  1
  N  N47  1  0.45772386  0.10361807  0.62532925  1
  N  N48  1  0.22412394  0.53616881  0.36481182  1
  N  N49  1  0.10805000  0.43106743  0.10517182  1
  N  N50  1  0.89018777  0.54015973  0.86706868  1
  N  N51  1  0.75724526  0.43746690  0.63921540  1
  N  N52  1  0.58066247  0.52382755  0.37961905  1
  N  N53  1  0.44704332  0.42672785  0.11767826  1
  N  N54  1  0.24027257  0.51868658  0.86617492  1
  N  N55  1  0.11608013  0.44294373  0.62642987  1
  N  N56  1  0.86796882  0.54871462  0.36763616  1
  N  N57  1  0.77854620  0.42915632  0.11617133  1
  N  N58  1  0.56464555  0.51451650  0.87870515  1
  N  N59  1  0.44819677  0.42587378  0.61692594  1
  N  N60  1  0.22403663  0.87167572  0.34671108  1
  N  N61  1  0.09738496  0.75214219  0.10160204  1
  N  N62  1  0.86405928  0.88876705  0.88277851  1
  N  N63  1  0.79259684  0.76852124  0.63620685  1
  N  N64  1  0.57647867  0.86479374  0.37011397  1
  N  N65  1  0.46948513  0.74598192  0.10237633  1
  N  N66  1  0.22222018  0.86871821  0.86470306  1
  N  N67  1  0.09766759  0.75582664  0.60800770  1
  N  N68  1  0.86433840  0.88386557  0.37237476  1
  N  N69  1  0.78077235  0.75781111  0.11950010  1
  N  N70  1  0.57858335  0.85804356  0.86799698  1
  N  N71  1  0.45506083  0.74118110  0.61228802  1
