# generated using pymatgen
data_Sc4Al5N9
_symmetry_space_group_name_H-M   'P 1'
_cell_length_a   10.60982269
_cell_length_b   10.48495878
_cell_length_c   8.97176158
_cell_angle_alpha   90.00096872
_cell_angle_beta   90.39458916
_cell_angle_gamma   60.01696372
_symmetry_Int_Tables_number   1
_chemical_formula_structural   Sc4Al5N9
_chemical_formula_sum   'Sc16 Al20 N36'
_cell_volume   864.45766019
_cell_formula_units_Z   4
loop_
 _symmetry_equiv_pos_site_id
 _symmetry_equiv_pos_as_xyz
  1  'x, y, z'
loop_
 _atom_site_type_symbol
 _atom_site_label
 _atom_site_symmetry_multiplicity
 _atom_site_fract_x
 _atom_site_fract_y
 _atom_site_fract_z
 _atom_site_occupancy
  Sc  Sc0  1  0.10042594  0.10503827  0.34402028  1
  Sc  Sc1  1  0.86666525  0.21301690  0.59397137  1
  Sc  Sc2  1  0.45754548  0.09260439  0.34273376  1
  Sc  Sc3  1  0.09951568  0.10742141  0.84912896  1
  Sc  Sc4  1  0.22603157  0.21435505  0.59957619  1
  Sc  Sc5  1  0.44878971  0.09712286  0.85742311  1
  Sc  Sc6  1  0.10482479  0.43745055  0.34139607  1
  Sc  Sc7  1  0.88528008  0.53973404  0.60230271  1
  Sc  Sc8  1  0.45509214  0.42300576  0.35034813  1
  Sc  Sc9  1  0.10038032  0.75991171  0.34652555  1
  Sc  Sc10  1  0.22274720  0.87114318  0.09857713  1
  Sc  Sc11  1  0.46130933  0.74638681  0.34722630  1
  Sc  Sc12  1  0.09763740  0.75907487  0.84889354  1
  Sc  Sc13  1  0.22212379  0.86743462  0.59802313  1
  Sc  Sc14  1  0.45327401  0.75341666  0.85367127  1
  Sc  Sc15  1  0.57065482  0.86676052  0.59974739  1
  Al  Al16  1  0.21995782  0.21177546  0.09847579  1
  Al  Al17  1  0.77424533  0.09379744  0.85110570  1
  Al  Al18  1  0.56128032  0.20755834  0.09770291  1
  Al  Al19  1  0.77569263  0.09484600  0.31671487  1
  Al  Al20  1  0.88217066  0.20921736  0.08504611  1
  Al  Al21  1  0.56025277  0.20763452  0.62879909  1
  Al  Al22  1  0.22506971  0.53555571  0.10383787  1
  Al  Al23  1  0.77352953  0.42506445  0.85355704  1
  Al  Al24  1  0.56163180  0.53154817  0.09456646  1
  Al  Al25  1  0.11153343  0.43203369  0.86444666  1
  Al  Al26  1  0.22739167  0.53415246  0.62211183  1
  Al  Al27  1  0.77764187  0.42910320  0.31045209  1
  Al  Al28  1  0.88822309  0.54097364  0.08192022  1
  Al  Al29  1  0.44565583  0.42351897  0.86927553  1
  Al  Al30  1  0.55485497  0.52886825  0.63419291  1
  Al  Al31  1  0.78455164  0.76237740  0.84324440  1
  Al  Al32  1  0.87651267  0.87898831  0.57859508  1
  Al  Al33  1  0.56704944  0.86497549  0.08914226  1
  Al  Al34  1  0.77840761  0.75943752  0.32104996  1
  Al  Al35  1  0.88161913  0.87363247  0.08406390  1
  N  N36  1  0.22607827  0.20788580  0.33867510  1
  N  N37  1  0.09872460  0.11428783  0.09673994  1
  N  N38  1  0.86912758  0.21129715  0.85976064  1
  N  N39  1  0.76532156  0.08568801  0.61883344  1
  N  N40  1  0.57593240  0.19822873  0.32008109  1
  N  N41  1  0.44681049  0.09052480  0.09669626  1
  N  N42  1  0.21604697  0.22345946  0.85514395  1
  N  N43  1  0.10114645  0.10423190  0.59758280  1
  N  N44  1  0.86604124  0.21737827  0.33937635  1
  N  N45  1  0.78239390  0.09190552  0.09651915  1
  N  N46  1  0.56451183  0.21387166  0.85792248  1
  N  N47  1  0.45740133  0.10443317  0.60222594  1
  N  N48  1  0.22951026  0.53621759  0.32522069  1
  N  N49  1  0.10919029  0.43204112  0.08881639  1
  N  N50  1  0.89324209  0.54063592  0.86059542  1
  N  N51  1  0.75585101  0.43939980  0.62892794  1
  N  N52  1  0.57879328  0.52232253  0.31671694  1
  N  N53  1  0.44202244  0.42833990  0.08744195  1
  N  N54  1  0.23396041  0.52100527  0.84649739  1
  N  N55  1  0.11578888  0.44274593  0.59422992  1
  N  N56  1  0.87036508  0.54552829  0.34120267  1
  N  N57  1  0.78287780  0.42727658  0.08656473  1
  N  N58  1  0.56015162  0.52003494  0.86077944  1
  N  N59  1  0.44690513  0.42549944  0.60536481  1
  N  N60  1  0.22362090  0.87009474  0.34624165  1
  N  N61  1  0.09743536  0.75541089  0.09621118  1
  N  N62  1  0.86873757  0.88384569  0.86875079  1
  N  N63  1  0.79274210  0.76518609  0.62111259  1
  N  N64  1  0.57762065  0.86042768  0.34937442  1
  N  N65  1  0.46214629  0.75398992  0.09652057  1
  N  N66  1  0.22013084  0.87171218  0.85005057  1
  N  N67  1  0.09820735  0.75407502  0.59901378  1
  N  N68  1  0.86585759  0.88375490  0.35394746  1
  N  N69  1  0.78114880  0.75915142  0.10262305  1
  N  N70  1  0.57711005  0.86125829  0.85823533  1
  N  N71  1  0.45696167  0.73746608  0.60226140  1
