# generated using pymatgen
data_Sc4Al5N9
_symmetry_space_group_name_H-M   'P 1'
_cell_length_a   10.58180406
_cell_length_b   10.46513066
_cell_length_c   9.03852487
_cell_angle_alpha   89.98361784
_cell_angle_beta   90.16309730
_cell_angle_gamma   59.96650114
_symmetry_Int_Tables_number   1
_chemical_formula_structural   Sc4Al5N9
_chemical_formula_sum   'Sc16 Al20 N36'
_cell_volume   866.52930407
_cell_formula_units_Z   4
loop_
 _symmetry_equiv_pos_site_id
 _symmetry_equiv_pos_as_xyz
  1  'x, y, z'
loop_
 _atom_site_type_symbol
 _atom_site_label
 _atom_site_symmetry_multiplicity
 _atom_site_fract_x
 _atom_site_fract_y
 _atom_site_fract_z
 _atom_site_occupancy
  Sc  Sc0  1  0.10002348  0.10477840  0.34618308  1
  Sc  Sc1  1  0.86795716  0.21459361  0.59830571  1
  Sc  Sc2  1  0.45539115  0.09442893  0.34588359  1
  Sc  Sc3  1  0.09956643  0.10737374  0.85232771  1
  Sc  Sc4  1  0.22604190  0.21490262  0.60249544  1
  Sc  Sc5  1  0.45169376  0.09520932  0.85859023  1
  Sc  Sc6  1  0.10522915  0.43769134  0.34264142  1
  Sc  Sc7  1  0.88721399  0.54026538  0.60910341  1
  Sc  Sc8  1  0.45361127  0.42456512  0.35177096  1
  Sc  Sc9  1  0.09888229  0.76041069  0.35298251  1
  Sc  Sc10  1  0.22220101  0.87069765  0.10100511  1
  Sc  Sc11  1  0.45991265  0.74544416  0.34946993  1
  Sc  Sc12  1  0.09833676  0.75859062  0.85418474  1
  Sc  Sc13  1  0.22224217  0.86742505  0.60117004  1
  Sc  Sc14  1  0.45461882  0.75492079  0.85634109  1
  Sc  Sc15  1  0.57139804  0.86588758  0.60090078  1
  Al  Al16  1  0.22065870  0.21098434  0.10186876  1
  Al  Al17  1  0.77310235  0.09584712  0.87269937  1
  Al  Al18  1  0.56377909  0.20502824  0.10784444  1
  Al  Al19  1  0.77224193  0.09322697  0.35789928  1
  Al  Al20  1  0.88066467  0.20720570  0.09524974  1
  Al  Al21  1  0.56137187  0.20721267  0.62635474  1
  Al  Al22  1  0.22533961  0.53520442  0.10476022  1
  Al  Al23  1  0.77287134  0.42421800  0.85592731  1
  Al  Al24  1  0.56155153  0.53083359  0.09460177  1
  Al  Al25  1  0.11217280  0.43164068  0.87145659  1
  Al  Al26  1  0.22834354  0.53354841  0.62707725  1
  Al  Al27  1  0.77739413  0.42860552  0.30895634  1
  Al  Al28  1  0.88761638  0.54151416  0.09300414  1
  Al  Al29  1  0.44779586  0.42058193  0.87083364  1
  Al  Al30  1  0.55405231  0.52971998  0.63657079  1
  Al  Al31  1  0.78134479  0.76343417  0.87660715  1
  Al  Al32  1  0.87764053  0.87760893  0.61790962  1
  Al  Al33  1  0.56700153  0.86546539  0.11250932  1
  Al  Al34  1  0.78169820  0.76040669  0.35317627  1
  Al  Al35  1  0.87962452  0.87670298  0.11534583  1
  N  N36  1  0.22520347  0.20786004  0.33730799  1
  N  N37  1  0.09827365  0.11377613  0.09791064  1
  N  N38  1  0.86885634  0.20965582  0.85488665  1
  N  N39  1  0.76488634  0.08677856  0.57867757  1
  N  N40  1  0.57438008  0.19928812  0.31988549  1
  N  N41  1  0.44841550  0.09089206  0.09715306  1
  N  N42  1  0.21698923  0.22315961  0.85457122  1
  N  N43  1  0.10166637  0.10440902  0.59841040  1
  N  N44  1  0.86528710  0.21750434  0.33572499  1
  N  N45  1  0.77938492  0.09172655  0.08570134  1
  N  N46  1  0.56749709  0.21225189  0.84504614  1
  N  N47  1  0.45756797  0.10380724  0.59958756  1
  N  N48  1  0.22892621  0.53774806  0.32020747  1
  N  N49  1  0.11009579  0.43083121  0.08969008  1
  N  N50  1  0.89425926  0.54439863  0.86030423  1
  N  N51  1  0.75590695  0.44148781  0.63026144  1
  N  N52  1  0.57825540  0.52226530  0.31403677  1
  N  N53  1  0.44446304  0.42438625  0.08603063  1
  N  N54  1  0.23519606  0.51952735  0.84731742  1
  N  N55  1  0.11695815  0.44325858  0.59015003  1
  N  N56  1  0.87079678  0.54435094  0.32893667  1
  N  N57  1  0.78247623  0.42567376  0.08351927  1
  N  N58  1  0.55902118  0.52069920  0.86034405  1
  N  N59  1  0.44638904  0.42687675  0.60239789  1
  N  N60  1  0.22286883  0.86972486  0.34764433  1
  N  N61  1  0.09519435  0.75681599  0.09389495  1
  N  N62  1  0.86401297  0.88647336  0.83555795  1
  N  N63  1  0.79402778  0.76369394  0.57204247  1
  N  N64  1  0.57565003  0.86111679  0.33833297  1
  N  N65  1  0.46229071  0.75429677  0.09686211  1
  N  N66  1  0.22053810  0.87162827  0.85163167  1
  N  N67  1  0.09936954  0.75284242  0.60260335  1
  N  N68  1  0.86882451  0.88352968  0.32745524  1
  N  N69  1  0.77985426  0.76222892  0.09136002  1
  N  N70  1  0.57907912  0.86060218  0.84485789  1
  N  N71  1  0.45678314  0.73775531  0.60149745  1
