# generated using pymatgen
data_Sc4Al5N9
_symmetry_space_group_name_H-M   'P 1'
_cell_length_a   10.14552532
_cell_length_b   10.08828157
_cell_length_c   10.11475963
_cell_angle_alpha   89.85273663
_cell_angle_beta   89.75137864
_cell_angle_gamma   60.22153698
_symmetry_Int_Tables_number   1
_chemical_formula_structural   Sc4Al5N9
_chemical_formula_sum   'Sc16 Al20 N36'
_cell_volume   898.54321826
_cell_formula_units_Z   4
loop_
 _symmetry_equiv_pos_site_id
 _symmetry_equiv_pos_as_xyz
  1  'x, y, z'
loop_
 _atom_site_type_symbol
 _atom_site_label
 _atom_site_symmetry_multiplicity
 _atom_site_fract_x
 _atom_site_fract_y
 _atom_site_fract_z
 _atom_site_occupancy
  Sc  Sc0  1  0.10166265  0.10055648  0.36544453  1
  Sc  Sc1  1  0.87389365  0.21082358  0.62338245  1
  Sc  Sc2  1  0.45542495  0.09379043  0.36842877  1
  Sc  Sc3  1  0.09703527  0.11047134  0.89053896  1
  Sc  Sc4  1  0.22405546  0.21701209  0.62948430  1
  Sc  Sc5  1  0.45025689  0.09544227  0.88418931  1
  Sc  Sc6  1  0.10437936  0.43753766  0.36367269  1
  Sc  Sc7  1  0.89085465  0.54210454  0.63163728  1
  Sc  Sc8  1  0.45023413  0.42386951  0.37897375  1
  Sc  Sc9  1  0.09839113  0.75950734  0.38899209  1
  Sc  Sc10  1  0.22126997  0.86574695  0.12331941  1
  Sc  Sc11  1  0.45540037  0.74868104  0.37274142  1
  Sc  Sc12  1  0.10011429  0.75609896  0.86869963  1
  Sc  Sc13  1  0.22377740  0.87117849  0.63406110  1
  Sc  Sc14  1  0.46031823  0.74837640  0.88206673  1
  Sc  Sc15  1  0.56850090  0.86867679  0.62361586  1
  Al  Al16  1  0.22143397  0.21055417  0.13588640  1
  Al  Al17  1  0.77208411  0.09999831  0.88712781  1
  Al  Al18  1  0.56331534  0.20532869  0.13095518  1
  Al  Al19  1  0.77283619  0.09209964  0.38025034  1
  Al  Al20  1  0.87501110  0.21382302  0.13974575  1
  Al  Al21  1  0.55992881  0.20810024  0.64019605  1
  Al  Al22  1  0.22250477  0.53801878  0.12591792  1
  Al  Al23  1  0.77692385  0.42429493  0.88979532  1
  Al  Al24  1  0.56604955  0.52903817  0.13128050  1
  Al  Al25  1  0.11058892  0.43033745  0.89676940  1
  Al  Al26  1  0.23102693  0.53070080  0.64585767  1
  Al  Al27  1  0.77053900  0.43252929  0.37932144  1
  Al  Al28  1  0.88098576  0.54191976  0.13003778  1
  Al  Al29  1  0.45314098  0.41979906  0.88498126  1
  Al  Al30  1  0.55789196  0.52953952  0.64039769  1
  Al  Al31  1  0.77984572  0.76162999  0.89234038  1
  Al  Al32  1  0.87738524  0.87804330  0.63859913  1
  Al  Al33  1  0.56795332  0.86476414  0.13914902  1
  Al  Al34  1  0.78169998  0.76150987  0.37605889  1
  Al  Al35  1  0.88195480  0.87388142  0.13226645  1
  N  N36  1  0.22556146  0.20787447  0.32359872  1
  N  N37  1  0.09584559  0.11466802  0.10560998  1
  N  N38  1  0.86838752  0.21559897  0.83470922  1
  N  N39  1  0.76616397  0.08457856  0.57118340  1
  N  N40  1  0.57605142  0.20002030  0.31498319  1
  N  N41  1  0.44800619  0.09175471  0.09920377  1
  N  N42  1  0.21402682  0.22515378  0.84162038  1
  N  N43  1  0.10645021  0.10178964  0.58070887  1
  N  N44  1  0.86335307  0.21715247  0.33150941  1
  N  N45  1  0.77906591  0.09419205  0.07700853  1
  N  N46  1  0.56691275  0.21222740  0.83029590  1
  N  N47  1  0.45581058  0.10544389  0.58665379  1
  N  N48  1  0.22680365  0.54268426  0.31131501  1
  N  N49  1  0.10868513  0.42952959  0.08956881  1
  N  N50  1  0.89181135  0.53989365  0.84765718  1
  N  N51  1  0.75760118  0.44246850  0.56827895  1
  N  N52  1  0.57405874  0.52333620  0.31532859  1
  N  N53  1  0.44742827  0.42621153  0.07756769  1
  N  N54  1  0.23778175  0.51363133  0.83622134  1
  N  N55  1  0.11963393  0.44486475  0.57343560  1
  N  N56  1  0.86721067  0.54861015  0.32150386  1
  N  N57  1  0.77876961  0.42565348  0.07857253  1
  N  N58  1  0.57018269  0.51522817  0.83036047  1
  N  N59  1  0.44628264  0.42688082  0.59359252  1
  N  N60  1  0.22056362  0.86559320  0.33662335  1
  N  N61  1  0.09479901  0.75256824  0.08150979  1
  N  N62  1  0.86092541  0.88848087  0.82792295  1
  N  N63  1  0.79517486  0.76540849  0.56335691  1
  N  N64  1  0.57683024  0.86054314  0.32923747  1
  N  N65  1  0.46685080  0.74871500  0.09645630  1
  N  N66  1  0.22313994  0.87453310  0.85199759  1
  N  N67  1  0.10092861  0.75321016  0.61205394  1
  N  N68  1  0.87087108  0.88281810  0.31964366  1
  N  N69  1  0.77843094  0.76151484  0.08124425  1
  N  N70  1  0.57829908  0.86115084  0.83259283  1
  N  N71  1  0.45614777  0.73958743  0.59123454  1
