# generated using pymatgen
data_Sc4Al5N9
_symmetry_space_group_name_H-M   'P 1'
_cell_length_a   10.36679258
_cell_length_b   10.27699508
_cell_length_c   9.60927626
_cell_angle_alpha   89.86458090
_cell_angle_beta   90.09629330
_cell_angle_gamma   60.08540173
_symmetry_Int_Tables_number   1
_chemical_formula_structural   Sc4Al5N9
_chemical_formula_sum   'Sc16 Al20 N36'
_cell_volume   887.36314677
_cell_formula_units_Z   4
loop_
 _symmetry_equiv_pos_site_id
 _symmetry_equiv_pos_as_xyz
  1  'x, y, z'
loop_
 _atom_site_type_symbol
 _atom_site_label
 _atom_site_symmetry_multiplicity
 _atom_site_fract_x
 _atom_site_fract_y
 _atom_site_fract_z
 _atom_site_occupancy
  Sc  Sc0  1  0.10076673  0.10622717  0.33270365  1
  Sc  Sc1  1  0.87092525  0.21097673  0.58577772  1
  Sc  Sc2  1  0.45385143  0.09138234  0.32475409  1
  Sc  Sc3  1  0.09806850  0.10440545  0.84496138  1
  Sc  Sc4  1  0.22810498  0.21010477  0.59701616  1
  Sc  Sc5  1  0.45330074  0.09921432  0.84900578  1
  Sc  Sc6  1  0.10122761  0.43229507  0.33905481  1
  Sc  Sc7  1  0.88324738  0.54295007  0.59573065  1
  Sc  Sc8  1  0.45306164  0.42259634  0.34534959  1
  Sc  Sc9  1  0.09744330  0.76294829  0.34382982  1
  Sc  Sc10  1  0.22476704  0.86980566  0.09349589  1
  Sc  Sc11  1  0.46190853  0.75148148  0.33553825  1
  Sc  Sc12  1  0.09910689  0.75779165  0.85257426  1
  Sc  Sc13  1  0.22245323  0.86683004  0.59108047  1
  Sc  Sc14  1  0.45602114  0.74554326  0.84202525  1
  Sc  Sc15  1  0.56763365  0.87054502  0.59392504  1
  Al  Al16  1  0.21586516  0.21736101  0.06639703  1
  Al  Al17  1  0.76987165  0.09598469  0.82896869  1
  Al  Al18  1  0.56180520  0.21400136  0.07198430  1
  Al  Al19  1  0.77427735  0.09578687  0.32110152  1
  Al  Al20  1  0.87669232  0.21319296  0.07478413  1
  Al  Al21  1  0.56519842  0.19915812  0.57691565  1
  Al  Al22  1  0.22516627  0.53392917  0.11904337  1
  Al  Al23  1  0.76863154  0.42555649  0.83399010  1
  Al  Al24  1  0.56307213  0.52663360  0.07400925  1
  Al  Al25  1  0.11099161  0.43455878  0.84278765  1
  Al  Al26  1  0.22626573  0.53769291  0.62854392  1
  Al  Al27  1  0.77664669  0.42999128  0.31673563  1
  Al  Al28  1  0.88754065  0.54018345  0.06971144  1
  Al  Al29  1  0.45535421  0.41985437  0.82367340  1
  Al  Al30  1  0.56159367  0.53149458  0.57614496  1
  Al  Al31  1  0.78430175  0.76444412  0.83134483  1
  Al  Al32  1  0.87974021  0.87638702  0.57286955  1
  Al  Al33  1  0.57064131  0.86093844  0.06820467  1
  Al  Al34  1  0.77666979  0.76015331  0.31952363  1
  Al  Al35  1  0.87668143  0.87751072  0.07858793  1
  N  N36  1  0.22811907  0.20421256  0.37191020  1
  N  N37  1  0.09767778  0.11746597  0.09846201  1
  N  N38  1  0.86445271  0.21376852  0.87244576  1
  N  N39  1  0.76963408  0.08204892  0.63120189  1
  N  N40  1  0.57727168  0.19317119  0.37928254  1
  N  N41  1  0.44661643  0.09452168  0.09484154  1
  N  N42  1  0.21425518  0.22477233  0.86238171  1
  N  N43  1  0.10208543  0.09987206  0.61496061  1
  N  N44  1  0.86686455  0.21695173  0.36094143  1
  N  N45  1  0.77551823  0.09666323  0.12274463  1
  N  N46  1  0.56746898  0.21710127  0.87620821  1
  N  N47  1  0.45809940  0.10357032  0.62355623  1
  N  N48  1  0.22356872  0.53662319  0.32588847  1
  N  N49  1  0.10778508  0.43140056  0.09884052  1
  N  N50  1  0.88987983  0.54073137  0.86681780  1
  N  N51  1  0.75724125  0.43730772  0.63962933  1
  N  N52  1  0.58073757  0.52396472  0.37803703  1
  N  N53  1  0.44853940  0.42623689  0.11641703  1
  N  N54  1  0.23954364  0.51968225  0.83875043  1
  N  N55  1  0.11494719  0.44232175  0.61127619  1
  N  N56  1  0.86677293  0.54902969  0.36631946  1
  N  N57  1  0.77838854  0.42918664  0.11465821  1
  N  N58  1  0.56430049  0.51476695  0.87827924  1
  N  N59  1  0.44957508  0.42533195  0.61277572  1
  N  N60  1  0.22443326  0.87103107  0.34707582  1
  N  N61  1  0.09654268  0.75479692  0.09951776  1
  N  N62  1  0.86389060  0.88904328  0.88318014  1
  N  N63  1  0.79292550  0.76864043  0.63635762  1
  N  N64  1  0.57707352  0.86409080  0.37045293  1
  N  N65  1  0.46908559  0.74633866  0.10219120  1
  N  N66  1  0.22205842  0.86870631  0.86165561  1
  N  N67  1  0.09817037  0.75435371  0.60270258  1
  N  N68  1  0.86367346  0.88417421  0.37074663  1
  N  N69  1  0.78039870  0.75816184  0.11871294  1
  N  N70  1  0.57830162  0.85860353  0.86704306  1
  N  N71  1  0.45565589  0.74094438  0.61168843  1
