# generated using pymatgen
data_Sc4Al5N9
_symmetry_space_group_name_H-M   'P 1'
_cell_length_a   10.31836554
_cell_length_b   10.23830505
_cell_length_c   9.71995076
_cell_angle_alpha   89.87786416
_cell_angle_beta   90.06965851
_cell_angle_gamma   60.10866255
_symmetry_Int_Tables_number   1
_chemical_formula_structural   Sc4Al5N9
_chemical_formula_sum   'Sc16 Al20 N36'
_cell_volume   890.23707549
_cell_formula_units_Z   4
loop_
 _symmetry_equiv_pos_site_id
 _symmetry_equiv_pos_as_xyz
  1  'x, y, z'
loop_
 _atom_site_type_symbol
 _atom_site_label
 _atom_site_symmetry_multiplicity
 _atom_site_fract_x
 _atom_site_fract_y
 _atom_site_fract_z
 _atom_site_occupancy
  Sc  Sc0  1  0.10060248  0.10694558  0.32747903  1
  Sc  Sc1  1  0.87144252  0.21072031  0.58286027  1
  Sc  Sc2  1  0.45292597  0.09209196  0.32111613  1
  Sc  Sc3  1  0.09810948  0.10420840  0.84273713  1
  Sc  Sc4  1  0.22808230  0.20983702  0.59422946  1
  Sc  Sc5  1  0.45291151  0.09894501  0.84755434  1
  Sc  Sc6  1  0.10159736  0.43179911  0.32987297  1
  Sc  Sc7  1  0.88311477  0.54314609  0.59166452  1
  Sc  Sc8  1  0.45328321  0.42224823  0.34052372  1
  Sc  Sc9  1  0.09732661  0.76261442  0.33569212  1
  Sc  Sc10  1  0.22506868  0.86999144  0.08977213  1
  Sc  Sc11  1  0.46213164  0.75102080  0.33164586  1
  Sc  Sc12  1  0.09951975  0.75792958  0.84736308  1
  Sc  Sc13  1  0.22213883  0.86738068  0.58477053  1
  Sc  Sc14  1  0.45574915  0.74559995  0.83893656  1
  Sc  Sc15  1  0.56687795  0.87111466  0.59048665  1
  Al  Al16  1  0.21452627  0.21905079  0.06180567  1
  Al  Al17  1  0.76980336  0.09619854  0.82667245  1
  Al  Al18  1  0.56199324  0.21302958  0.06945104  1
  Al  Al19  1  0.77420744  0.09536626  0.31998391  1
  Al  Al20  1  0.87627928  0.21360495  0.07217940  1
  Al  Al21  1  0.56456083  0.19937909  0.57563240  1
  Al  Al22  1  0.22609833  0.53229369  0.09780219  1
  Al  Al23  1  0.76926737  0.42583589  0.83108011  1
  Al  Al24  1  0.56391369  0.52675956  0.07142028  1
  Al  Al25  1  0.11152011  0.43458854  0.82846672  1
  Al  Al26  1  0.22700527  0.53907208  0.61399236  1
  Al  Al27  1  0.77666755  0.42992937  0.31573832  1
  Al  Al28  1  0.88835580  0.53967061  0.06637069  1
  Al  Al29  1  0.45470288  0.42013486  0.82261771  1
  Al  Al30  1  0.56097654  0.53161913  0.57459595  1
  Al  Al31  1  0.78423202  0.76374550  0.82868459  1
  Al  Al32  1  0.88016726  0.87615753  0.57138663  1
  Al  Al33  1  0.57105010  0.86053038  0.06594680  1
  Al  Al34  1  0.77679947  0.76042066  0.31809997  1
  Al  Al35  1  0.87643174  0.87720070  0.07535251  1
  N  N36  1  0.22753681  0.20477265  0.37417113  1
  N  N37  1  0.09744524  0.11809580  0.09760143  1
  N  N38  1  0.86401728  0.21428764  0.87295842  1
  N  N39  1  0.76959166  0.08226472  0.63133165  1
  N  N40  1  0.57694296  0.19269425  0.38052411  1
  N  N41  1  0.44614042  0.09499921  0.09356447  1
  N  N42  1  0.21329561  0.22575954  0.86282405  1
  N  N43  1  0.10237315  0.09948002  0.61702593  1
  N  N44  1  0.86709378  0.21665147  0.36128706  1
  N  N45  1  0.77555631  0.09617425  0.12335573  1
  N  N46  1  0.56764338  0.21702694  0.87645405  1
  N  N47  1  0.45779603  0.10362572  0.62535400  1
  N  N48  1  0.22397955  0.53603588  0.34250978  1
  N  N49  1  0.10749852  0.43084684  0.10391883  1
  N  N50  1  0.89011231  0.54020770  0.86674311  1
  N  N51  1  0.75723423  0.43735169  0.63913166  1
  N  N52  1  0.58069743  0.52402865  0.37947363  1
  N  N53  1  0.44823604  0.42616364  0.11660057  1
  N  N54  1  0.24027084  0.51945296  0.85342157  1
  N  N55  1  0.11545168  0.44245873  0.62391250  1
  N  N56  1  0.86733874  0.54905569  0.36757639  1
  N  N57  1  0.77859990  0.42915471  0.11600419  1
  N  N58  1  0.56494899  0.51457568  0.87846843  1
  N  N59  1  0.44883157  0.42555721  0.61556401  1
  N  N60  1  0.22422670  0.87170054  0.34684597  1
  N  N61  1  0.09669144  0.75366489  0.10032134  1
  N  N62  1  0.86367842  0.88892441  0.88267376  1
  N  N63  1  0.79250937  0.76861991  0.63617959  1
  N  N64  1  0.57644440  0.86483189  0.37005188  1
  N  N65  1  0.46954780  0.74591907  0.10225807  1
  N  N66  1  0.22233402  0.86887372  0.86454700  1
  N  N67  1  0.09808945  0.75504580  0.60638323  1
  N  N68  1  0.86393793  0.88400621  0.37230319  1
  N  N69  1  0.78077763  0.75781289  0.11935243  1
  N  N70  1  0.57854711  0.85804924  0.86790684  1
  N  N71  1  0.45509881  0.74115699  0.61231361  1
