# generated using pymatgen
data_Sc4Al5N9
_symmetry_space_group_name_H-M   'P 1'
_cell_length_a   10.31432276
_cell_length_b   10.23578758
_cell_length_c   9.72240592
_cell_angle_alpha   89.89121581
_cell_angle_beta   90.07259320
_cell_angle_gamma   60.10950369
_symmetry_Int_Tables_number   1
_chemical_formula_structural   Sc4Al5N9
_chemical_formula_sum   'Sc16 Al20 N36'
_cell_volume   889.90228726
_cell_formula_units_Z   4
loop_
 _symmetry_equiv_pos_site_id
 _symmetry_equiv_pos_as_xyz
  1  'x, y, z'
loop_
 _atom_site_type_symbol
 _atom_site_label
 _atom_site_symmetry_multiplicity
 _atom_site_fract_x
 _atom_site_fract_y
 _atom_site_fract_z
 _atom_site_occupancy
  Sc  Sc0  1  0.10055330  0.10701725  0.32741807  1
  Sc  Sc1  1  0.87141854  0.21073787  0.58286468  1
  Sc  Sc2  1  0.45289710  0.09211320  0.32124530  1
  Sc  Sc3  1  0.09813366  0.10419406  0.84272197  1
  Sc  Sc4  1  0.22798939  0.21007324  0.59428502  1
  Sc  Sc5  1  0.45289088  0.09894966  0.84756495  1
  Sc  Sc6  1  0.10212730  0.43214337  0.32913524  1
  Sc  Sc7  1  0.88339140  0.54301286  0.59173015  1
  Sc  Sc8  1  0.45303008  0.42239788  0.33993823  1
  Sc  Sc9  1  0.09758439  0.76218191  0.33448859  1
  Sc  Sc10  1  0.22502826  0.86988910  0.08960974  1
  Sc  Sc11  1  0.46209241  0.75097299  0.33170121  1
  Sc  Sc12  1  0.09961984  0.75767578  0.84547220  1
  Sc  Sc13  1  0.22206635  0.86745413  0.58452587  1
  Sc  Sc14  1  0.45574221  0.74556991  0.83888143  1
  Sc  Sc15  1  0.56688377  0.87108185  0.59048942  1
  Al  Al16  1  0.21456375  0.21898970  0.06185416  1
  Al  Al17  1  0.76974831  0.09625400  0.82669933  1
  Al  Al18  1  0.56194076  0.21297723  0.06949305  1
  Al  Al19  1  0.77425081  0.09535574  0.32001079  1
  Al  Al20  1  0.87627507  0.21360695  0.07214877  1
  Al  Al21  1  0.56443224  0.19955931  0.57571909  1
  Al  Al22  1  0.22680253  0.53139295  0.08517752  1
  Al  Al23  1  0.76920853  0.42587781  0.83111894  1
  Al  Al24  1  0.56384861  0.52685278  0.07146441  1
  Al  Al25  1  0.11195551  0.43480015  0.82801627  1
  Al  Al26  1  0.22642312  0.53927366  0.60061131  1
  Al  Al27  1  0.77674364  0.42986980  0.31580732  1
  Al  Al28  1  0.88831664  0.53971696  0.06643251  1
  Al  Al29  1  0.45383298  0.42052220  0.82221596  1
  Al  Al30  1  0.56085478  0.53156068  0.57471368  1
  Al  Al31  1  0.78430631  0.76364970  0.82870680  1
  Al  Al32  1  0.88020585  0.87620176  0.57135852  1
  Al  Al33  1  0.57103251  0.86055764  0.06596057  1
  Al  Al34  1  0.77686459  0.76039145  0.31815822  1
  Al  Al35  1  0.87660055  0.87701450  0.07530059  1
  N  N36  1  0.22731568  0.20509633  0.37417194  1
  N  N37  1  0.09743908  0.11809479  0.09762299  1
  N  N38  1  0.86400095  0.21431623  0.87299385  1
  N  N39  1  0.76951675  0.08231408  0.63138154  1
  N  N40  1  0.57690635  0.19283579  0.38058818  1
  N  N41  1  0.44614716  0.09499308  0.09365344  1
  N  N42  1  0.21325501  0.22579837  0.86296994  1
  N  N43  1  0.10240474  0.09954432  0.61704376  1
  N  N44  1  0.86708401  0.21665310  0.36133857  1
  N  N45  1  0.77557374  0.09615018  0.12339340  1
  N  N46  1  0.56751280  0.21719704  0.87656547  1
  N  N47  1  0.45774747  0.10362089  0.62533697  1
  N  N48  1  0.22409246  0.53609723  0.35698405  1
  N  N49  1  0.10784635  0.43098061  0.10469668  1
  N  N50  1  0.89015458  0.54017462  0.86694497  1
  N  N51  1  0.75723874  0.43742249  0.63917952  1
  N  N52  1  0.58068072  0.52391161  0.37957669  1
  N  N53  1  0.44748187  0.42651902  0.11725494  1
  N  N54  1  0.24025503  0.51896116  0.86226245  1
  N  N55  1  0.11585428  0.44274087  0.62561370  1
  N  N56  1  0.86770677  0.54885519  0.36762416  1
  N  N57  1  0.77856713  0.42915413  0.11610172  1
  N  N58  1  0.56476324  0.51453868  0.87861100  1
  N  N59  1  0.44838907  0.42578093  0.61651478  1
  N  N60  1  0.22412122  0.87170929  0.34677276  1
  N  N61  1  0.09712161  0.75271771  0.10112227  1
  N  N62  1  0.86390568  0.88883165  0.88273798  1
  N  N63  1  0.79256926  0.76855001  0.63619296  1
  N  N64  1  0.57646050  0.86481235  0.37008366  1
  N  N65  1  0.46951099  0.74595531  0.10232132  1
  N  N66  1  0.22226962  0.86878539  0.86464921  1
  N  N67  1  0.09782899  0.75554064  0.60749908  1
  N  N68  1  0.86416592  0.88392895  0.37236078  1
  N  N69  1  0.78077653  0.75781100  0.11943792  1
  N  N70  1  0.57856863  0.85804752  0.86795537  1
  N  N71  1  0.45506735  0.74117755  0.61229990  1
