# generated using pymatgen
data_Sc4Al5N9
_symmetry_space_group_name_H-M   'P 1'
_cell_length_a   10.43240129
_cell_length_b   10.33579096
_cell_length_c   9.38070504
_cell_angle_alpha   89.94028761
_cell_angle_beta   89.90688650
_cell_angle_gamma   60.11817594
_symmetry_Int_Tables_number   1
_chemical_formula_structural   Sc4Al5N9
_chemical_formula_sum   'Sc16 Al20 N36'
_cell_volume   877.01992421
_cell_formula_units_Z   4
loop_
 _symmetry_equiv_pos_site_id
 _symmetry_equiv_pos_as_xyz
  1  'x, y, z'
loop_
 _atom_site_type_symbol
 _atom_site_label
 _atom_site_symmetry_multiplicity
 _atom_site_fract_x
 _atom_site_fract_y
 _atom_site_fract_z
 _atom_site_occupancy
  Sc  Sc0  1  0.10155588  0.10264562  0.35793386  1
  Sc  Sc1  1  0.87038373  0.21112336  0.60812625  1
  Sc  Sc2  1  0.45601179  0.09476181  0.35594839  1
  Sc  Sc3  1  0.09653166  0.10991584  0.86499679  1
  Sc  Sc4  1  0.22525134  0.21711411  0.61415036  1
  Sc  Sc5  1  0.45069770  0.09438979  0.86899565  1
  Sc  Sc6  1  0.10519993  0.43854494  0.35085278  1
  Sc  Sc7  1  0.89082223  0.54057830  0.62058620  1
  Sc  Sc8  1  0.45183215  0.42395755  0.36321549  1
  Sc  Sc9  1  0.09809269  0.76045237  0.36413756  1
  Sc  Sc10  1  0.22214542  0.87048682  0.10860153  1
  Sc  Sc11  1  0.45716433  0.74718267  0.35964459  1
  Sc  Sc12  1  0.09909673  0.75798822  0.86255601  1
  Sc  Sc13  1  0.22274530  0.86740169  0.61254256  1
  Sc  Sc14  1  0.45825707  0.75062344  0.86434382  1
  Sc  Sc15  1  0.57034080  0.86682854  0.60923493  1
  Al  Al16  1  0.22033560  0.20980466  0.12189842  1
  Al  Al17  1  0.77364823  0.09984384  0.88129817  1
  Al  Al18  1  0.56564268  0.20501745  0.11857506  1
  Al  Al19  1  0.77147836  0.09093240  0.37387531  1
  Al  Al20  1  0.87638869  0.21346991  0.13189013  1
  Al  Al21  1  0.56025616  0.20797096  0.63676080  1
  Al  Al22  1  0.22511429  0.53706177  0.11394842  1
  Al  Al23  1  0.77707492  0.42217832  0.88120576  1
  Al  Al24  1  0.56773830  0.52910280  0.11773121  1
  Al  Al25  1  0.11003553  0.43027494  0.88933287  1
  Al  Al26  1  0.22972181  0.53178913  0.63916731  1
  Al  Al27  1  0.76994032  0.43425551  0.37408940  1
  Al  Al28  1  0.88075809  0.54086510  0.11892172  1
  Al  Al29  1  0.45227146  0.42034644  0.88084639  1
  Al  Al30  1  0.55664817  0.52822994  0.63749230  1
  Al  Al31  1  0.77970712  0.76168636  0.88612434  1
  Al  Al32  1  0.87778064  0.87709746  0.63271417  1
  Al  Al33  1  0.56799456  0.86433960  0.12918376  1
  Al  Al34  1  0.78290891  0.76103687  0.36818925  1
  Al  Al35  1  0.87933032  0.87722925  0.12323437  1
  N  N36  1  0.22569308  0.20758076  0.33599731  1
  N  N37  1  0.09469394  0.11597960  0.10543867  1
  N  N38  1  0.86611121  0.21537676  0.83776246  1
  N  N39  1  0.76398912  0.08404664  0.57942294  1
  N  N40  1  0.57630062  0.19890897  0.31901042  1
  N  N41  1  0.44843388  0.09013267  0.10223715  1
  N  N42  1  0.21514974  0.22496947  0.85050648  1
  N  N43  1  0.10432235  0.10272538  0.59916818  1
  N  N44  1  0.86451956  0.21621106  0.34242666  1
  N  N45  1  0.78114748  0.09504143  0.08364728  1
  N  N46  1  0.56725207  0.21243434  0.84368313  1
  N  N47  1  0.45683271  0.10463679  0.59997339  1
  N  N48  1  0.22896612  0.53953465  0.31609211  1
  N  N49  1  0.10791857  0.43045865  0.09577484  1
  N  N50  1  0.89155591  0.53969351  0.85529517  1
  N  N51  1  0.75502594  0.44336595  0.57920829  1
  N  N52  1  0.57580903  0.52342680  0.31861696  1
  N  N53  1  0.44830472  0.42614545  0.08644450  1
  N  N54  1  0.23620585  0.51681047  0.84883444  1
  N  N55  1  0.11863476  0.44499926  0.58167162  1
  N  N56  1  0.86873960  0.54710098  0.32998717  1
  N  N57  1  0.78078894  0.42445806  0.08358634  1
  N  N58  1  0.56854136  0.51534244  0.84414365  1
  N  N59  1  0.44577377  0.42632103  0.59930961  1
  N  N60  1  0.22218653  0.86901187  0.35044013  1
  N  N61  1  0.09506131  0.75673692  0.09512574  1
  N  N62  1  0.86287695  0.88731419  0.83810939  1
  N  N63  1  0.79571119  0.76408110  0.57221541  1
  N  N64  1  0.57666740  0.86075597  0.34138325  1
  N  N65  1  0.46573720  0.75070273  0.10048173  1
  N  N66  1  0.22165775  0.87237623  0.85808265  1
  N  N67  1  0.09941302  0.75237468  0.60987289  1
  N  N68  1  0.86768158  0.88422449  0.32488242  1
  N  N69  1  0.77875618  0.76117633  0.08939144  1
  N  N70  1  0.57928022  0.86008771  0.83884490  1
  N  N71  1  0.45621457  0.73831092  0.60298867  1
