# generated using pymatgen
data_Sc4Al5N9
_symmetry_space_group_name_H-M   'P 1'
_cell_length_a   10.61471187
_cell_length_b   10.48705646
_cell_length_c   8.95832866
_cell_angle_alpha   89.99948156
_cell_angle_beta   90.35721010
_cell_angle_gamma   60.02248330
_symmetry_Int_Tables_number   1
_chemical_formula_structural   Sc4Al5N9
_chemical_formula_sum   'Sc16 Al20 N36'
_cell_volume   863.78671784
_cell_formula_units_Z   4
loop_
 _symmetry_equiv_pos_site_id
 _symmetry_equiv_pos_as_xyz
  1  'x, y, z'
loop_
 _atom_site_type_symbol
 _atom_site_label
 _atom_site_symmetry_multiplicity
 _atom_site_fract_x
 _atom_site_fract_y
 _atom_site_fract_z
 _atom_site_occupancy
  Sc  Sc0  1  0.10025972  0.10509072  0.34471861  1
  Sc  Sc1  1  0.86720777  0.21351982  0.59486265  1
  Sc  Sc2  1  0.45668525  0.09194182  0.34329860  1
  Sc  Sc3  1  0.09933349  0.10734383  0.85033961  1
  Sc  Sc4  1  0.22599268  0.21406174  0.60056786  1
  Sc  Sc5  1  0.45010497  0.09794588  0.85690701  1
  Sc  Sc6  1  0.10476038  0.43750753  0.34218562  1
  Sc  Sc7  1  0.88543301  0.53978690  0.60388376  1
  Sc  Sc8  1  0.45380249  0.42486840  0.35028739  1
  Sc  Sc9  1  0.10042383  0.75982215  0.34702191  1
  Sc  Sc10  1  0.22275677  0.87118072  0.09947323  1
  Sc  Sc11  1  0.46138146  0.74655435  0.34785741  1
  Sc  Sc12  1  0.09712615  0.75970442  0.85024503  1
  Sc  Sc13  1  0.22220631  0.86733648  0.59890085  1
  Sc  Sc14  1  0.45316681  0.75367371  0.85454188  1
  Sc  Sc15  1  0.57108400  0.86609551  0.60065006  1
  Al  Al16  1  0.21972234  0.21218850  0.09844363  1
  Al  Al17  1  0.77271886  0.09445739  0.84745717  1
  Al  Al18  1  0.56200267  0.20679306  0.09951121  1
  Al  Al19  1  0.77544650  0.09489372  0.32181039  1
  Al  Al20  1  0.88108742  0.20875802  0.08643981  1
  Al  Al21  1  0.56041921  0.20695621  0.61806402  1
  Al  Al22  1  0.22497289  0.53528069  0.10310913  1
  Al  Al23  1  0.77329125  0.42474401  0.85481255  1
  Al  Al24  1  0.56196553  0.53130952  0.09503839  1
  Al  Al25  1  0.11166476  0.43182054  0.86473281  1
  Al  Al26  1  0.22760766  0.53426882  0.62391151  1
  Al  Al27  1  0.77771263  0.42924410  0.31147137  1
  Al  Al28  1  0.88849361  0.54069799  0.08269668  1
  Al  Al29  1  0.44697312  0.42181865  0.86900784  1
  Al  Al30  1  0.55471028  0.52901870  0.63496147  1
  Al  Al31  1  0.78452385  0.76278781  0.84515803  1
  Al  Al32  1  0.87748875  0.87772812  0.57929062  1
  Al  Al33  1  0.56740457  0.86514893  0.08945560  1
  Al  Al34  1  0.77867264  0.75906105  0.32158031  1
  Al  Al35  1  0.88060527  0.87530018  0.08578227  1
  N  N36  1  0.22565767  0.20800010  0.33929215  1
  N  N37  1  0.09827491  0.11422791  0.09760545  1
  N  N38  1  0.86863016  0.21058857  0.86073996  1
  N  N39  1  0.76639387  0.08511598  0.61701173  1
  N  N40  1  0.57542023  0.19860731  0.33124685  1
  N  N41  1  0.44855096  0.09126924  0.09785106  1
  N  N42  1  0.21669167  0.22292801  0.85677398  1
  N  N43  1  0.10123159  0.10421243  0.59873160  1
  N  N44  1  0.86616270  0.21787175  0.34110550  1
  N  N45  1  0.78023718  0.09297713  0.10164847  1
  N  N46  1  0.56532813  0.21353510  0.85737261  1
  N  N47  1  0.45694364  0.10338695  0.60225830  1
  N  N48  1  0.22878223  0.53653423  0.32492339  1
  N  N49  1  0.10890390  0.43199510  0.08954720  1
  N  N50  1  0.89344970  0.54053705  0.86152760  1
  N  N51  1  0.75569805  0.43972242  0.63014556  1
  N  N52  1  0.57893888  0.52262163  0.31747545  1
  N  N53  1  0.44332129  0.42652246  0.08895920  1
  N  N54  1  0.23432964  0.52105732  0.84898625  1
  N  N55  1  0.11618509  0.44262192  0.59629351  1
  N  N56  1  0.87048989  0.54549797  0.34206915  1
  N  N57  1  0.78297850  0.42698997  0.08727050  1
  N  N58  1  0.55992745  0.52013770  0.86194248  1
  N  N59  1  0.44618529  0.42641489  0.60593171  1
  N  N60  1  0.22370849  0.87005999  0.34721342  1
  N  N61  1  0.09692765  0.75619901  0.09696476  1
  N  N62  1  0.86802389  0.88533804  0.86988901  1
  N  N63  1  0.79300506  0.76502384  0.62269933  1
  N  N64  1  0.57804679  0.85999536  0.35004138  1
  N  N65  1  0.46211172  0.75432300  0.09730619  1
  N  N66  1  0.22006756  0.87176072  0.85091145  1
  N  N67  1  0.09847968  0.75368557  0.60018860  1
  N  N68  1  0.86626972  0.88278241  0.35494062  1
  N  N69  1  0.78135779  0.75914786  0.10282168  1
  N  N70  1  0.57700081  0.86163704  0.85921916  1
  N  N71  1  0.45692807  0.73751625  0.60315378  1
