# generated using pymatgen
data_Sc4Al5N9
_symmetry_space_group_name_H-M   'P 1'
_cell_length_a   10.52068539
_cell_length_b   10.41287467
_cell_length_c   9.16071188
_cell_angle_alpha   89.96673842
_cell_angle_beta   90.03533113
_cell_angle_gamma   60.05709624
_symmetry_Int_Tables_number   1
_chemical_formula_structural   Sc4Al5N9
_chemical_formula_sum   'Sc16 Al20 N36'
_cell_volume   869.60854704
_cell_formula_units_Z   4
loop_
 _symmetry_equiv_pos_site_id
 _symmetry_equiv_pos_as_xyz
  1  'x, y, z'
loop_
 _atom_site_type_symbol
 _atom_site_label
 _atom_site_symmetry_multiplicity
 _atom_site_fract_x
 _atom_site_fract_y
 _atom_site_fract_z
 _atom_site_occupancy
  Sc  Sc0  1  0.10094930  0.10362586  0.35482668  1
  Sc  Sc1  1  0.86966113  0.21187742  0.60706747  1
  Sc  Sc2  1  0.45577135  0.09457946  0.35348759  1
  Sc  Sc3  1  0.09805661  0.10858183  0.86120246  1
  Sc  Sc4  1  0.22580742  0.21591355  0.61071025  1
  Sc  Sc5  1  0.45138095  0.09453675  0.86616688  1
  Sc  Sc6  1  0.10542755  0.43813971  0.34917647  1
  Sc  Sc7  1  0.88951831  0.54075807  0.61769732  1
  Sc  Sc8  1  0.45263954  0.42430302  0.35952943  1
  Sc  Sc9  1  0.09837123  0.76044918  0.36059367  1
  Sc  Sc10  1  0.22216473  0.87062427  0.10752765  1
  Sc  Sc11  1  0.45824306  0.74638481  0.35695418  1
  Sc  Sc12  1  0.09858052  0.75847985  0.86136158  1
  Sc  Sc13  1  0.22233424  0.86738938  0.60919797  1
  Sc  Sc14  1  0.45625737  0.75296208  0.86279461  1
  Sc  Sc15  1  0.57096073  0.86609001  0.60736242  1
  Al  Al16  1  0.22062999  0.21018728  0.11408529  1
  Al  Al17  1  0.77346755  0.09804142  0.87978673  1
  Al  Al18  1  0.56501277  0.20492780  0.11544424  1
  Al  Al19  1  0.77184898  0.09199860  0.36923105  1
  Al  Al20  1  0.87793905  0.21167070  0.11936637  1
  Al  Al21  1  0.56067567  0.20765693  0.63458636  1
  Al  Al22  1  0.22545893  0.53611184  0.11159807  1
  Al  Al23  1  0.77615573  0.42317433  0.87456883  1
  Al  Al24  1  0.56657799  0.52912721  0.10893874  1
  Al  Al25  1  0.11135516  0.43058513  0.88392816  1
  Al  Al26  1  0.22902179  0.53276725  0.63623518  1
  Al  Al27  1  0.77276976  0.43203241  0.35884351  1
  Al  Al28  1  0.88331535  0.54043755  0.10951802  1
  Al  Al29  1  0.45025137  0.42036595  0.87851113  1
  Al  Al30  1  0.55527340  0.52907638  0.63926236  1
  Al  Al31  1  0.78010514  0.76292959  0.88454078  1
  Al  Al32  1  0.87772010  0.87735521  0.62835833  1
  Al  Al33  1  0.56737685  0.86489780  0.12378138  1
  Al  Al34  1  0.78244304  0.76081353  0.36323436  1
  Al  Al35  1  0.87928354  0.87735339  0.12179721  1
  N  N36  1  0.22555487  0.20766546  0.34033666  1
  N  N37  1  0.09639645  0.11475990  0.10494909  1
  N  N38  1  0.86713444  0.21335531  0.84783884  1
  N  N39  1  0.76422104  0.08540916  0.58278666  1
  N  N40  1  0.57534537  0.19903306  0.32283409  1
  N  N41  1  0.44862758  0.09015284  0.10308974  1
  N  N42  1  0.21634936  0.22374135  0.85693532  1
  N  N43  1  0.10323243  0.10351197  0.60293545  1
  N  N44  1  0.86530862  0.21608348  0.34165435  1
  N  N45  1  0.78047460  0.09354521  0.08774088  1
  N  N46  1  0.56739724  0.21228655  0.84838247  1
  N  N47  1  0.45724157  0.10407465  0.60388954  1
  N  N48  1  0.22902854  0.53864163  0.32131295  1
  N  N49  1  0.10897819  0.43063650  0.09607772  1
  N  N50  1  0.89190592  0.54135590  0.86170053  1
  N  N51  1  0.75494937  0.44276330  0.59378732  1
  N  N52  1  0.57625009  0.52336489  0.31909335  1
  N  N53  1  0.44674970  0.42529254  0.08958240  1
  N  N54  1  0.23552068  0.51840568  0.85235522  1
  N  N55  1  0.11799990  0.44397073  0.58941509  1
  N  N56  1  0.87031606  0.54608715  0.33233254  1
  N  N57  1  0.78157041  0.42503912  0.08627913  1
  N  N58  1  0.56539032  0.51753342  0.85485424  1
  N  N59  1  0.44576214  0.42670061  0.60473587  1
  N  N60  1  0.22244297  0.86946109  0.35294622  1
  N  N61  1  0.09500919  0.75701305  0.09839168  1
  N  N62  1  0.86351556  0.88682962  0.84067863  1
  N  N63  1  0.79484865  0.76397083  0.57573206  1
  N  N64  1  0.57610164  0.86088084  0.34378581  1
  N  N65  1  0.46391918  0.75255669  0.10196091  1
  N  N66  1  0.22089968  0.87192209  0.85830067  1
  N  N67  1  0.09924785  0.75254743  0.60944610  1
  N  N68  1  0.86816834  0.88410654  0.32958861  1
  N  N69  1  0.77914056  0.76189772  0.09402131  1
  N  N70  1  0.57905335  0.86026650  0.84519132  1
  N  N71  1  0.45599903  0.73831370  0.60618784  1
