# generated using pymatgen
data_Sc4Al5N9
_symmetry_space_group_name_H-M   'P 1'
_cell_length_a   10.48516597
_cell_length_b   10.37683895
_cell_length_c   9.27336109
_cell_angle_alpha   89.98859030
_cell_angle_beta   90.13865274
_cell_angle_gamma   60.11185956
_symmetry_Int_Tables_number   1
_chemical_formula_structural   Sc4Al5N9
_chemical_formula_sum   'Sc16 Al20 N36'
_cell_volume   874.77178752
_cell_formula_units_Z   4
loop_
 _symmetry_equiv_pos_site_id
 _symmetry_equiv_pos_as_xyz
  1  'x, y, z'
loop_
 _atom_site_type_symbol
 _atom_site_label
 _atom_site_symmetry_multiplicity
 _atom_site_fract_x
 _atom_site_fract_y
 _atom_site_fract_z
 _atom_site_occupancy
  Sc  Sc0  1  0.09818438  0.10552627  0.34405184  1
  Sc  Sc1  1  0.86913791  0.21234756  0.59392480  1
  Sc  Sc2  1  0.45822778  0.08866108  0.33729342  1
  Sc  Sc3  1  0.09956657  0.10767379  0.85106644  1
  Sc  Sc4  1  0.22598690  0.21521973  0.60094585  1
  Sc  Sc5  1  0.44989350  0.10014004  0.85223103  1
  Sc  Sc6  1  0.10259152  0.43815109  0.34342698  1
  Sc  Sc7  1  0.88820320  0.54010311  0.60221654  1
  Sc  Sc8  1  0.45141638  0.42386585  0.34636102  1
  Sc  Sc9  1  0.09913175  0.76206253  0.34682748  1
  Sc  Sc10  1  0.22374229  0.87095618  0.09798992  1
  Sc  Sc11  1  0.46038997  0.75123194  0.34332441  1
  Sc  Sc12  1  0.09705323  0.75969998  0.85263229  1
  Sc  Sc13  1  0.22194031  0.86783127  0.59845743  1
  Sc  Sc14  1  0.45545446  0.74612881  0.84646596  1
  Sc  Sc15  1  0.57064138  0.86692078  0.60044236  1
  Al  Al16  1  0.22046180  0.21072959  0.10471710  1
  Al  Al17  1  0.76976747  0.09474869  0.83362903  1
  Al  Al18  1  0.56267233  0.21086782  0.07716775  1
  Al  Al19  1  0.77455681  0.09633508  0.32373902  1
  Al  Al20  1  0.87706293  0.21133920  0.07985292  1
  Al  Al21  1  0.56431831  0.20104711  0.58097211  1
  Al  Al22  1  0.22744480  0.53587334  0.11070567  1
  Al  Al23  1  0.76876555  0.42631743  0.84162440  1
  Al  Al24  1  0.56207419  0.52762345  0.07841723  1
  Al  Al25  1  0.11266925  0.43093541  0.87892579  1
  Al  Al26  1  0.22532054  0.53559267  0.62813826  1
  Al  Al27  1  0.77616152  0.42926589  0.31826226  1
  Al  Al28  1  0.88374517  0.54137971  0.08060865  1
  Al  Al29  1  0.45290402  0.42028042  0.83480020  1
  Al  Al30  1  0.56112179  0.53076276  0.58119899  1
  Al  Al31  1  0.78526126  0.76312488  0.83928935  1
  Al  Al32  1  0.87935007  0.87585053  0.57524102  1
  Al  Al33  1  0.56916164  0.86272244  0.07455996  1
  Al  Al34  1  0.77711672  0.75921757  0.32078189  1
  Al  Al35  1  0.87759410  0.87798005  0.08413110  1
  N  N36  1  0.22673138  0.20643858  0.33721324  1
  N  N37  1  0.09576775  0.11577550  0.09863099  1
  N  N38  1  0.86577332  0.21247190  0.86650546  1
  N  N39  1  0.76889608  0.08164052  0.62674380  1
  N  N40  1  0.57754860  0.19598883  0.37313653  1
  N  N41  1  0.45122101  0.09107798  0.09785446  1
  N  N42  1  0.21566290  0.22465627  0.85437666  1
  N  N43  1  0.10216749  0.10362314  0.60235856  1
  N  N44  1  0.86511440  0.21795737  0.35683574  1
  N  N45  1  0.77561014  0.09675873  0.11786314  1
  N  N46  1  0.56637345  0.21468684  0.87152277  1
  N  N47  1  0.45594923  0.10286544  0.60948000  1
  N  N48  1  0.22594037  0.53923833  0.32140310  1
  N  N49  1  0.10899872  0.43149141  0.09244795  1
  N  N50  1  0.89195836  0.53926489  0.86740793  1
  N  N51  1  0.75780273  0.43943850  0.63685416  1
  N  N52  1  0.57992525  0.52297201  0.37171042  1
  N  N53  1  0.44872864  0.42541071  0.10686654  1
  N  N54  1  0.23587956  0.51922294  0.84621195  1
  N  N55  1  0.11773199  0.44331376  0.58421959  1
  N  N56  1  0.86789795  0.54749895  0.35407830  1
  N  N57  1  0.77707331  0.42822008  0.10725525  1
  N  N58  1  0.56296496  0.51635498  0.87393255  1
  N  N59  1  0.44717483  0.42630355  0.61291429  1
  N  N60  1  0.22366590  0.87118525  0.34673070  1
  N  N61  1  0.09653974  0.75704027  0.09787467  1
  N  N62  1  0.86509527  0.88832245  0.88044048  1
  N  N63  1  0.79522628  0.76543298  0.63349240  1
  N  N64  1  0.57893027  0.86038397  0.36620726  1
  N  N65  1  0.46750384  0.74746153  0.10069306  1
  N  N66  1  0.22101539  0.87103762  0.85434698  1
  N  N67  1  0.09823139  0.75403106  0.60281453  1
  N  N68  1  0.86477689  0.88322410  0.36378850  1
  N  N69  1  0.77963220  0.75921327  0.11226635  1
  N  N70  1  0.57714022  0.85981323  0.86229091  1
  N  N71  1  0.45487839  0.74117867  0.60625703  1
