# generated using pymatgen
data_Sc4Al5N9
_symmetry_space_group_name_H-M   'P 1'
_cell_length_a   10.30767671
_cell_length_b   10.23086864
_cell_length_c   9.73165184
_cell_angle_alpha   89.90877076
_cell_angle_beta   90.07636171
_cell_angle_gamma   60.11073968
_symmetry_Int_Tables_number   1
_chemical_formula_structural   Sc4Al5N9
_chemical_formula_sum   'Sc16 Al20 N36'
_cell_volume   889.75856709
_cell_formula_units_Z   4
loop_
 _symmetry_equiv_pos_site_id
 _symmetry_equiv_pos_as_xyz
  1  'x, y, z'
loop_
 _atom_site_type_symbol
 _atom_site_label
 _atom_site_symmetry_multiplicity
 _atom_site_fract_x
 _atom_site_fract_y
 _atom_site_fract_z
 _atom_site_occupancy
  Sc  Sc0  1  0.10048758  0.10711680  0.32726689  1
  Sc  Sc1  1  0.87137723  0.21076827  0.58285500  1
  Sc  Sc2  1  0.45290443  0.09207970  0.32134371  1
  Sc  Sc3  1  0.09817181  0.10417509  0.84264789  1
  Sc  Sc4  1  0.22779808  0.21055476  0.59437953  1
  Sc  Sc5  1  0.45287308  0.09895188  0.84752195  1
  Sc  Sc6  1  0.10277534  0.43263790  0.32842206  1
  Sc  Sc7  1  0.88385592  0.54280114  0.59185448  1
  Sc  Sc8  1  0.45275039  0.42257994  0.33948290  1
  Sc  Sc9  1  0.09788676  0.76162019  0.33320314  1
  Sc  Sc10  1  0.22492870  0.86965938  0.08929484  1
  Sc  Sc11  1  0.46206380  0.75092089  0.33173214  1
  Sc  Sc12  1  0.09979990  0.75719370  0.84286300  1
  Sc  Sc13  1  0.22190850  0.86749503  0.58424018  1
  Sc  Sc14  1  0.45572901  0.74551930  0.83873186  1
  Sc  Sc15  1  0.56690012  0.87103640  0.59048092  1
  Al  Al16  1  0.21459038  0.21899551  0.06189846  1
  Al  Al17  1  0.76965223  0.09633642  0.82668137  1
  Al  Al18  1  0.56179962  0.21299677  0.06952175  1
  Al  Al19  1  0.77431331  0.09536841  0.31997301  1
  Al  Al20  1  0.87626721  0.21361077  0.07204031  1
  Al  Al21  1  0.56417450  0.20001651  0.57587454  1
  Al  Al22  1  0.22751790  0.53033535  0.07435509  1
  Al  Al23  1  0.76910530  0.42594338  0.83110606  1
  Al  Al24  1  0.56369371  0.52695488  0.07148953  1
  Al  Al25  1  0.11250557  0.43507049  0.82729681  1
  Al  Al26  1  0.22549720  0.53939687  0.58569604  1
  Al  Al27  1  0.77686746  0.42975761  0.31583109  1
  Al  Al28  1  0.88835720  0.53974486  0.06647790  1
  Al  Al29  1  0.45277979  0.42098656  0.82136457  1
  Al  Al30  1  0.56065580  0.53136415  0.57490534  1
  Al  Al31  1  0.78441933  0.76352386  0.82866986  1
  Al  Al32  1  0.88037964  0.87623411  0.57136198  1
  Al  Al33  1  0.57100162  0.86060015  0.06592261  1
  Al  Al34  1  0.77694646  0.76035410  0.31815220  1
  Al  Al35  1  0.87693524  0.87668880  0.07515876  1
  N  N36  1  0.22697794  0.20571718  0.37413841  1
  N  N37  1  0.09744669  0.11806962  0.09769536  1
  N  N38  1  0.86398267  0.21435724  0.87308792  1
  N  N39  1  0.76938003  0.08239678  0.63147364  1
  N  N40  1  0.57680014  0.19311531  0.38064550  1
  N  N41  1  0.44615502  0.09496570  0.09382067  1
  N  N42  1  0.21320290  0.22593389  0.86323395  1
  N  N43  1  0.10246822  0.09964772  0.61711638  1
  N  N44  1  0.86709973  0.21664016  0.36145197  1
  N  N45  1  0.77560439  0.09610364  0.12348130  1
  N  N46  1  0.56726671  0.21748277  0.87678109  1
  N  N47  1  0.45769169  0.10362053  0.62534342  1
  N  N48  1  0.22412744  0.53628742  0.37306042  1
  N  N49  1  0.10831541  0.43116090  0.10575015  1
  N  N50  1  0.89024659  0.54014456  0.86725114  1
  N  N51  1  0.75726031  0.43752757  0.63928968  1
  N  N52  1  0.58063190  0.52371083  0.37968043  1
  N  N53  1  0.44649402  0.42698218  0.11822152  1
  N  N54  1  0.24033828  0.51833842  0.86959965  1
  N  N55  1  0.11634122  0.44321932  0.62732161  1
  N  N56  1  0.86835275  0.54851650  0.36764925  1
  N  N57  1  0.77851495  0.42916097  0.11628846  1
  N  N58  1  0.56447566  0.51449546  0.87884906  1
  N  N59  1  0.44801729  0.42594961  0.61731345  1
  N  N60  1  0.22390848  0.87160756  0.34662375  1
  N  N61  1  0.09772060  0.75139137  0.10220891  1
  N  N62  1  0.86428195  0.88866958  0.88283967  1
  N  N63  1  0.79262888  0.76849504  0.63624969  1
  N  N64  1  0.57651007  0.86476699  0.37018304  1
  N  N65  1  0.46944382  0.74602420  0.10247275  1
  N  N66  1  0.22214204  0.86861286  0.86477947  1
  N  N67  1  0.09744580  0.75620254  0.60853524  1
  N  N68  1  0.86459018  0.88377335  0.37239330  1
  N  N69  1  0.78076454  0.75781442  0.11960259  1
  N  N70  1  0.57860710  0.85803254  0.86808111  1
  N  N71  1  0.45505069  0.74118348  0.61228611  1
