# generated using pymatgen
data_Sc4Al5N9
_symmetry_space_group_name_H-M   'P 1'
_cell_length_a   10.61548207
_cell_length_b   10.48779565
_cell_length_c   8.95547180
_cell_angle_alpha   89.99770998
_cell_angle_beta   90.34366819
_cell_angle_gamma   60.02084773
_symmetry_Int_Tables_number   1
_chemical_formula_structural   Sc4Al5N9
_chemical_formula_sum   'Sc16 Al20 N36'
_cell_volume   863.62211439
_cell_formula_units_Z   4
loop_
 _symmetry_equiv_pos_site_id
 _symmetry_equiv_pos_as_xyz
  1  'x, y, z'
loop_
 _atom_site_type_symbol
 _atom_site_label
 _atom_site_symmetry_multiplicity
 _atom_site_fract_x
 _atom_site_fract_y
 _atom_site_fract_z
 _atom_site_occupancy
  Sc  Sc0  1  0.10023351  0.10509404  0.34468991  1
  Sc  Sc1  1  0.86735699  0.21360733  0.59490618  1
  Sc  Sc2  1  0.45641619  0.09173098  0.34296435  1
  Sc  Sc3  1  0.09931505  0.10731849  0.85042563  1
  Sc  Sc4  1  0.22597051  0.21401041  0.60057762  1
  Sc  Sc5  1  0.45051363  0.09824280  0.85629102  1
  Sc  Sc6  1  0.10469957  0.43752286  0.34218436  1
  Sc  Sc7  1  0.88544582  0.53981320  0.60403506  1
  Sc  Sc8  1  0.45344054  0.42546523  0.34982770  1
  Sc  Sc9  1  0.10038446  0.75985190  0.34699320  1
  Sc  Sc10  1  0.22275597  0.87117568  0.09948118  1
  Sc  Sc11  1  0.46138896  0.74660322  0.34781491  1
  Sc  Sc12  1  0.09702704  0.75981194  0.85035392  1
  Sc  Sc13  1  0.22222285  0.86730795  0.59892231  1
  Sc  Sc14  1  0.45315397  0.75371690  0.85452762  1
  Sc  Sc15  1  0.57113424  0.86595504  0.60063546  1
  Al  Al16  1  0.21966614  0.21229749  0.09819338  1
  Al  Al17  1  0.77218940  0.09464879  0.84602470  1
  Al  Al18  1  0.56214842  0.20670053  0.09818926  1
  Al  Al19  1  0.77545661  0.09489347  0.32253453  1
  Al  Al20  1  0.88085033  0.20867680  0.08653580  1
  Al  Al21  1  0.56067215  0.20653707  0.61203689  1
  Al  Al22  1  0.22490895  0.53526521  0.10286790  1
  Al  Al23  1  0.77324706  0.42465696  0.85490036  1
  Al  Al24  1  0.56203868  0.53129330  0.09493856  1
  Al  Al25  1  0.11169954  0.43179107  0.86462447  1
  Al  Al26  1  0.22766774  0.53426031  0.62402416  1
  Al  Al27  1  0.77775085  0.42926381  0.31154609  1
  Al  Al28  1  0.88851675  0.54067266  0.08268959  1
  Al  Al29  1  0.44729995  0.42134925  0.86843867  1
  Al  Al30  1  0.55470000  0.52899893  0.63492190  1
  Al  Al31  1  0.78450481  0.76289923  0.84533997  1
  Al  Al32  1  0.87771155  0.87745178  0.57928770  1
  Al  Al33  1  0.56748188  0.86518404  0.08925893  1
  Al  Al34  1  0.77870876  0.75900282  0.32156234  1
  Al  Al35  1  0.88036508  0.87562905  0.08597951  1
  N  N36  1  0.22554824  0.20803450  0.33928306  1
  N  N37  1  0.09820223  0.11421144  0.09762013  1
  N  N38  1  0.86851104  0.21039743  0.86085476  1
  N  N39  1  0.76671811  0.08491122  0.61692967  1
  N  N40  1  0.57544237  0.19865495  0.33608423  1
  N  N41  1  0.44898095  0.09146912  0.09798450  1
  N  N42  1  0.21683928  0.22282933  0.85695895  1
  N  N43  1  0.10125875  0.10419865  0.59881220  1
  N  N44  1  0.86621400  0.21798183  0.34135584  1
  N  N45  1  0.77967208  0.09324219  0.10308860  1
  N  N46  1  0.56558352  0.21337894  0.85871573  1
  N  N47  1  0.45680740  0.10309985  0.60211430  1
  N  N48  1  0.22854403  0.53664536  0.32486125  1
  N  N49  1  0.10884528  0.43201339  0.08955592  1
  N  N50  1  0.89347490  0.54053395  0.86155646  1
  N  N51  1  0.75570319  0.43975060  0.63022124  1
  N  N52  1  0.57899315  0.52271294  0.31749078  1
  N  N53  1  0.44353762  0.42624614  0.08933983  1
  N  N54  1  0.23440921  0.52105960  0.84928895  1
  N  N55  1  0.11623690  0.44260221  0.59652539  1
  N  N56  1  0.87048453  0.54551395  0.34211121  1
  N  N57  1  0.78299876  0.42694033  0.08727415  1
  N  N58  1  0.55988044  0.52014584  0.86202652  1
  N  N59  1  0.44610600  0.42650077  0.60602750  1
  N  N60  1  0.22372309  0.87004895  0.34724459  1
  N  N61  1  0.09682538  0.75634006  0.09699343  1
  N  N62  1  0.86785482  0.88567558  0.87007809  1
  N  N63  1  0.79303873  0.76501910  0.62285073  1
  N  N64  1  0.57810028  0.85991856  0.35002558  1
  N  N65  1  0.46210501  0.75439505  0.09729310  1
  N  N66  1  0.22005323  0.87175787  0.85092549  1
  N  N67  1  0.09851291  0.75363235  0.60027763  1
  N  N68  1  0.86631914  0.88261160  0.35507238  1
  N  N69  1  0.78138571  0.75914491  0.10276321  1
  N  N70  1  0.57696395  0.86173736  0.85925850  1
  N  N71  1  0.45693069  0.73749577  0.60316146  1
