# generated using pymatgen
data_Sc4Al5N9
_symmetry_space_group_name_H-M   'P 1'
_cell_length_a   10.56125800
_cell_length_b   10.44518257
_cell_length_c   9.06734453
_cell_angle_alpha   89.98193496
_cell_angle_beta   90.09815340
_cell_angle_gamma   60.09346177
_symmetry_Int_Tables_number   1
_chemical_formula_structural   Sc4Al5N9
_chemical_formula_sum   'Sc16 Al20 N36'
_cell_volume   867.06098704
_cell_formula_units_Z   4
loop_
 _symmetry_equiv_pos_site_id
 _symmetry_equiv_pos_as_xyz
  1  'x, y, z'
loop_
 _atom_site_type_symbol
 _atom_site_label
 _atom_site_symmetry_multiplicity
 _atom_site_fract_x
 _atom_site_fract_y
 _atom_site_fract_z
 _atom_site_occupancy
  Sc  Sc0  1  0.09923473  0.10558860  0.34501686  1
  Sc  Sc1  1  0.86907331  0.21262863  0.59570541  1
  Sc  Sc2  1  0.45646744  0.09054556  0.34015279  1
  Sc  Sc3  1  0.09895635  0.10743181  0.85207034  1
  Sc  Sc4  1  0.22616375  0.21425521  0.60110481  1
  Sc  Sc5  1  0.45106014  0.09895025  0.85338321  1
  Sc  Sc6  1  0.10362712  0.43793971  0.34302685  1
  Sc  Sc7  1  0.88730267  0.54032852  0.60575437  1
  Sc  Sc8  1  0.45025198  0.42462566  0.34575297  1
  Sc  Sc9  1  0.10004073  0.76052248  0.34718089  1
  Sc  Sc10  1  0.22353363  0.87090679  0.09901330  1
  Sc  Sc11  1  0.45961979  0.75096575  0.34567785  1
  Sc  Sc12  1  0.09627252  0.76096904  0.85256829  1
  Sc  Sc13  1  0.22211292  0.86788365  0.59936625  1
  Sc  Sc14  1  0.45573805  0.74718270  0.84857055  1
  Sc  Sc15  1  0.57150179  0.86649440  0.60074499  1
  Al  Al16  1  0.21940042  0.21237419  0.09866339  1
  Al  Al17  1  0.77046421  0.09487068  0.83734353  1
  Al  Al18  1  0.56339155  0.20837369  0.08156357  1
  Al  Al19  1  0.77431619  0.09563321  0.32629694  1
  Al  Al20  1  0.87743077  0.21055008  0.08667354  1
  Al  Al21  1  0.56311818  0.20297725  0.58507762  1
  Al  Al22  1  0.22595823  0.53549200  0.10250079  1
  Al  Al23  1  0.76939940  0.42584780  0.84715703  1
  Al  Al24  1  0.56239549  0.52901066  0.08251822  1
  Al  Al25  1  0.11138165  0.43122824  0.87057853  1
  Al  Al26  1  0.22757384  0.53482303  0.62859145  1
  Al  Al27  1  0.77624410  0.42969476  0.31915820  1
  Al  Al28  1  0.88570728  0.54018404  0.08391427  1
  Al  Al29  1  0.45265215  0.42084128  0.84808304  1
  Al  Al30  1  0.56019736  0.53014671  0.58595851  1
  Al  Al31  1  0.78429672  0.76327912  0.84575464  1
  Al  Al32  1  0.87919385  0.87570011  0.57830089  1
  Al  Al33  1  0.56832246  0.86353770  0.08293112  1
  Al  Al34  1  0.77831785  0.75885700  0.32090379  1
  Al  Al35  1  0.87843119  0.87806122  0.08719688  1
  N  N36  1  0.22583094  0.20779048  0.34078411  1
  N  N37  1  0.09662472  0.11508171  0.09903879  1
  N  N38  1  0.86646767  0.21171546  0.86520398  1
  N  N39  1  0.76883249  0.08252130  0.62198126  1
  N  N40  1  0.57637463  0.19755273  0.36766987  1
  N  N41  1  0.45095922  0.09218455  0.09855327  1
  N  N42  1  0.21680296  0.22297059  0.85862506  1
  N  N43  1  0.10175970  0.10390430  0.60154892  1
  N  N44  1  0.86585518  0.21770931  0.34948475  1
  N  N45  1  0.77569956  0.09578839  0.11447796  1
  N  N46  1  0.56675113  0.21330372  0.86807220  1
  N  N47  1  0.45612129  0.10225909  0.60574767  1
  N  N48  1  0.22638237  0.53807047  0.32176795  1
  N  N49  1  0.10773907  0.43179307  0.09153451  1
  N  N50  1  0.89182535  0.53871966  0.86560655  1
  N  N51  1  0.75808209  0.43902952  0.63348298  1
  N  N52  1  0.57929091  0.52253147  0.36541255  1
  N  N53  1  0.44866224  0.42512323  0.09858488  1
  N  N54  1  0.23547898  0.52071037  0.85342539  1
  N  N55  1  0.11747340  0.44299475  0.59554288  1
  N  N56  1  0.86940860  0.54691262  0.34836236  1
  N  N57  1  0.77727348  0.42847642  0.10200965  1
  N  N58  1  0.56299731  0.51807312  0.87070436  1
  N  N59  1  0.44578835  0.42708388  0.61248817  1
  N  N60  1  0.22318739  0.87108839  0.34747586  1
  N  N61  1  0.09620917  0.75804354  0.09816103  1
  N  N62  1  0.86611197  0.88798129  0.87661564  1
  N  N63  1  0.79422842  0.76523599  0.63035713  1
  N  N64  1  0.57867239  0.86058837  0.35634173  1
  N  N65  1  0.46610872  0.74807366  0.10058778  1
  N  N66  1  0.22117557  0.87117767  0.85288573  1
  N  N67  1  0.09884287  0.75321829  0.60257271  1
  N  N68  1  0.86583846  0.88217028  0.35953791  1
  N  N69  1  0.78082599  0.75876561  0.10631881  1
  N  N70  1  0.57626577  0.86069879  0.86191784  1
  N  N71  1  0.45552752  0.74146645  0.60328039  1
