# generated using pymatgen
data_Sc4Al5N9
_symmetry_space_group_name_H-M   'P 1'
_cell_length_a   10.14485970
_cell_length_b   10.08773827
_cell_length_c   10.11644358
_cell_angle_alpha   89.85229718
_cell_angle_beta   89.75082130
_cell_angle_gamma   60.22128146
_symmetry_Int_Tables_number   1
_chemical_formula_structural   Sc4Al5N9
_chemical_formula_sum   'Sc16 Al20 N36'
_cell_volume   898.58312237
_cell_formula_units_Z   4
loop_
 _symmetry_equiv_pos_site_id
 _symmetry_equiv_pos_as_xyz
  1  'x, y, z'
loop_
 _atom_site_type_symbol
 _atom_site_label
 _atom_site_symmetry_multiplicity
 _atom_site_fract_x
 _atom_site_fract_y
 _atom_site_fract_z
 _atom_site_occupancy
  Sc  Sc0  1  0.10174441  0.10054968  0.37973674  1
  Sc  Sc1  1  0.87398981  0.21081442  0.63770756  1
  Sc  Sc2  1  0.45550233  0.09378553  0.38273651  1
  Sc  Sc3  1  0.09713178  0.11044971  0.90487290  1
  Sc  Sc4  1  0.22413567  0.21700164  0.64380751  1
  Sc  Sc5  1  0.45034125  0.09544897  0.89850412  1
  Sc  Sc6  1  0.10445904  0.43752553  0.37799803  1
  Sc  Sc7  1  0.89092655  0.54211105  0.64593267  1
  Sc  Sc8  1  0.45030576  0.42387140  0.39328139  1
  Sc  Sc9  1  0.09847086  0.75949575  0.40331386  1
  Sc  Sc10  1  0.22135429  0.86572443  0.13765180  1
  Sc  Sc11  1  0.45549255  0.74868121  0.38704862  1
  Sc  Sc12  1  0.10020234  0.75609536  0.88299531  1
  Sc  Sc13  1  0.22386745  0.87117760  0.64836449  1
  Sc  Sc14  1  0.46040006  0.74836907  0.89638579  1
  Sc  Sc15  1  0.56858128  0.86868546  0.63794046  1
  Al  Al16  1  0.22151645  0.21055461  0.15017867  1
  Al  Al17  1  0.77216515  0.09999265  0.90141676  1
  Al  Al18  1  0.56338821  0.20532910  0.14525520  1
  Al  Al19  1  0.77292235  0.09210348  0.39453044  1
  Al  Al20  1  0.87509459  0.21381603  0.15402291  1
  Al  Al21  1  0.56001199  0.20810059  0.65447478  1
  Al  Al22  1  0.22257753  0.53800919  0.14020897  1
  Al  Al23  1  0.77701006  0.42429722  0.90408765  1
  Al  Al24  1  0.56612698  0.52903400  0.14557945  1
  Al  Al25  1  0.11066889  0.43033415  0.91104936  1
  Al  Al26  1  0.23110935  0.53070030  0.66015244  1
  Al  Al27  1  0.77062594  0.43251336  0.39360009  1
  Al  Al28  1  0.88107594  0.54191329  0.14433163  1
  Al  Al29  1  0.45322780  0.41979712  0.89925954  1
  Al  Al30  1  0.55798078  0.52954203  0.65467597  1
  Al  Al31  1  0.77993084  0.76162506  0.90662938  1
  Al  Al32  1  0.87747183  0.87804052  0.65287959  1
  Al  Al33  1  0.56803057  0.86476804  0.15342880  1
  Al  Al34  1  0.78177370  0.76151182  0.39033659  1
  Al  Al35  1  0.88204138  0.87387137  0.14655606  1
  N  N36  1  0.22564094  0.20787374  0.33784770  1
  N  N37  1  0.09594065  0.11464564  0.11989269  1
  N  N38  1  0.86848640  0.21558916  0.84899972  1
  N  N39  1  0.76625714  0.08458065  0.58544141  1
  N  N40  1  0.57612480  0.20002439  0.32925526  1
  N  N41  1  0.44808537  0.09176026  0.11347070  1
  N  N42  1  0.21410861  0.22514068  0.85589779  1
  N  N43  1  0.10653861  0.10178416  0.59495137  1
  N  N44  1  0.86343557  0.21714861  0.34574717  1
  N  N45  1  0.77914071  0.09418463  0.09127389  1
  N  N46  1  0.56699870  0.21222516  0.84454460  1
  N  N47  1  0.45588870  0.10544622  0.60091060  1
  N  N48  1  0.22687187  0.54268069  0.32557991  1
  N  N49  1  0.10876496  0.42952239  0.10381696  1
  N  N50  1  0.89188890  0.53989322  0.86191827  1
  N  N51  1  0.75769747  0.44244970  0.58253239  1
  N  N52  1  0.57413341  0.52333330  0.32959854  1
  N  N53  1  0.44750794  0.42620865  0.09182402  1
  N  N54  1  0.23786568  0.51362478  0.85047945  1
  N  N55  1  0.11971716  0.44485518  0.58772176  1
  N  N56  1  0.86729365  0.54860585  0.33576480  1
  N  N57  1  0.77884898  0.42565369  0.09283912  1
  N  N58  1  0.57027192  0.51522864  0.84461043  1
  N  N59  1  0.44636347  0.42688567  0.60786465  1
  N  N60  1  0.22064783  0.86557335  0.35089856  1
  N  N61  1  0.09488364  0.75255692  0.09576451  1
  N  N62  1  0.86100629  0.88847731  0.84217743  1
  N  N63  1  0.79524934  0.76541400  0.57761013  1
  N  N64  1  0.57690976  0.86054722  0.34347176  1
  N  N65  1  0.46692927  0.74871014  0.11072663  1
  N  N66  1  0.22323033  0.87452818  0.86623825  1
  N  N67  1  0.10101565  0.75320577  0.62632944  1
  N  N68  1  0.87096240  0.88281261  0.33390847  1
  N  N69  1  0.77851621  0.76150926  0.09550634  1
  N  N70  1  0.57837260  0.86115531  0.84687865  1
  N  N71  1  0.45624405  0.73959077  0.60548559  1
