# generated using pymatgen
data_Sc4Al5N9
_symmetry_space_group_name_H-M   'P 1'
_cell_length_a   10.14495226
_cell_length_b   10.09746722
_cell_length_c   10.13033244
_cell_angle_alpha   89.95349139
_cell_angle_beta   90.08120293
_cell_angle_gamma   60.12471202
_symmetry_Int_Tables_number   1
_chemical_formula_structural   Sc4Al5N9
_chemical_formula_sum   'Sc16 Al20 N36'
_cell_volume   899.82920893
_cell_formula_units_Z   4
loop_
 _symmetry_equiv_pos_site_id
 _symmetry_equiv_pos_as_xyz
  1  'x, y, z'
loop_
 _atom_site_type_symbol
 _atom_site_label
 _atom_site_symmetry_multiplicity
 _atom_site_fract_x
 _atom_site_fract_y
 _atom_site_fract_z
 _atom_site_occupancy
  Sc  Sc0  1  0.10118924  0.10726690  0.30434657  1
  Sc  Sc1  1  0.87292541  0.21085229  0.56511971  1
  Sc  Sc2  1  0.45311432  0.09289869  0.30290084  1
  Sc  Sc3  1  0.09858759  0.10310700  0.82751878  1
  Sc  Sc4  1  0.22687653  0.21239183  0.57680132  1
  Sc  Sc5  1  0.45224000  0.09762208  0.83313355  1
  Sc  Sc6  1  0.10533861  0.43316938  0.30865871  1
  Sc  Sc7  1  0.88516305  0.54330618  0.57322252  1
  Sc  Sc8  1  0.45212487  0.42321261  0.32233500  1
  Sc  Sc9  1  0.09861472  0.75956572  0.31444905  1
  Sc  Sc10  1  0.22424672  0.86728686  0.07061676  1
  Sc  Sc11  1  0.46279412  0.74956891  0.31233575  1
  Sc  Sc12  1  0.10047502  0.75653700  0.81870086  1
  Sc  Sc13  1  0.22142343  0.86931300  0.56097957  1
  Sc  Sc14  1  0.45480349  0.74643556  0.82046200  1
  Sc  Sc15  1  0.56544045  0.87277329  0.57088914  1
  Al  Al16  1  0.21525679  0.21814803  0.04707592  1
  Al  Al17  1  0.76973069  0.09740783  0.81325057  1
  Al  Al18  1  0.56092954  0.21181068  0.05454535  1
  Al  Al19  1  0.77427388  0.09500936  0.30763565  1
  Al  Al20  1  0.87574194  0.21386230  0.05755764  1
  Al  Al21  1  0.56198037  0.20277811  0.56455254  1
  Al  Al22  1  0.22689271  0.52985698  0.05159817  1
  Al  Al23  1  0.77047309  0.42665121  0.81664814  1
  Al  Al24  1  0.56342791  0.52751952  0.05602294  1
  Al  Al25  1  0.11167287  0.43458527  0.81394475  1
  Al  Al26  1  0.22455107  0.53956317  0.56625938  1
  Al  Al27  1  0.77674824  0.42917638  0.30334523  1
  Al  Al28  1  0.88804675  0.53983713  0.05410047  1
  Al  Al29  1  0.45183575  0.42128667  0.80818955  1
  Al  Al30  1  0.55959636  0.53150811  0.56324916  1
  Al  Al31  1  0.78349572  0.76224092  0.81500307  1
  Al  Al32  1  0.88070798  0.87677437  0.55971955  1
  Al  Al33  1  0.57041089  0.86078695  0.05250437  1
  Al  Al34  1  0.77751922  0.76132181  0.30445170  1
  Al  Al35  1  0.87873473  0.87461555  0.05915269  1
  N  N36  1  0.22663982  0.20674112  0.36546325  1
  N  N37  1  0.09786711  0.11694311  0.08805000  1
  N  N38  1  0.86333267  0.21569246  0.86787576  1
  N  N39  1  0.76944690  0.08416388  0.62453315  1
  N  N40  1  0.57558879  0.19404017  0.37569578  1
  N  N41  1  0.44583230  0.09470997  0.08372479  1
  N  N42  1  0.21211827  0.22643867  0.85876870  1
  N  N43  1  0.10359853  0.09934946  0.61377096  1
  N  N44  1  0.86888023  0.21551026  0.35277712  1
  N  N45  1  0.77545008  0.09467719  0.11653537  1
  N  N46  1  0.56671082  0.21769672  0.86943867  1
  N  N47  1  0.45700324  0.10404825  0.62064173  1
  N  N48  1  0.22400348  0.53610995  0.37941499  1
  N  N49  1  0.10970059  0.43027146  0.09741101  1
  N  N50  1  0.88942511  0.54011385  0.86211708  1
  N  N51  1  0.75862524  0.43747066  0.63155867  1
  N  N52  1  0.58041742  0.52348534  0.37539325  1
  N  N53  1  0.44468400  0.42736870  0.10944115  1
  N  N54  1  0.23948621  0.51822601  0.86429986  1
  N  N55  1  0.11648185  0.44423271  0.62551197  1
  N  N56  1  0.87079419  0.54803983  0.35782317  1
  N  N57  1  0.77761636  0.42902405  0.11092771  1
  N  N58  1  0.56450805  0.51530793  0.87075589  1
  N  N59  1  0.44731752  0.42650580  0.61302543  1
  N  N60  1  0.22346594  0.87172236  0.33903245  1
  N  N61  1  0.09820421  0.74749745  0.09767443  1
  N  N62  1  0.86540108  0.88773348  0.87371705  1
  N  N63  1  0.79133618  0.76897822  0.62952870  1
  N  N64  1  0.57537328  0.86604591  0.36044975  1
  N  N65  1  0.46945644  0.74539768  0.09581334  1
  N  N66  1  0.22175803  0.86711419  0.86117433  1
  N  N67  1  0.09787333  0.75781863  0.60193363  1
  N  N68  1  0.86584221  0.88352109  0.36766426  1
  N  N69  1  0.78068620  0.75844200  0.11296043  1
  N  N70  1  0.57875084  0.85665030  0.86452162  1
  N  N71  1  0.45418540  0.74257489  0.60562707  1
