# generated using pymatgen
data_Sc4Al5N9
_symmetry_space_group_name_H-M   'P 1'
_cell_length_a   10.36212449
_cell_length_b   10.27216598
_cell_length_c   9.62371651
_cell_angle_alpha   89.85421539
_cell_angle_beta   90.08329873
_cell_angle_gamma   60.08593925
_symmetry_Int_Tables_number   1
_chemical_formula_structural   Sc4Al5N9
_chemical_formula_sum   'Sc16 Al20 N36'
_cell_volume   887.88389438
_cell_formula_units_Z   4
loop_
 _symmetry_equiv_pos_site_id
 _symmetry_equiv_pos_as_xyz
  1  'x, y, z'
loop_
 _atom_site_type_symbol
 _atom_site_label
 _atom_site_symmetry_multiplicity
 _atom_site_fract_x
 _atom_site_fract_y
 _atom_site_fract_z
 _atom_site_occupancy
  Sc  Sc0  1  0.10077719  0.10633361  0.33220084  1
  Sc  Sc1  1  0.87102100  0.21090547  0.58566410  1
  Sc  Sc2  1  0.45360184  0.09157395  0.32430069  1
  Sc  Sc3  1  0.09810523  0.10438753  0.84496090  1
  Sc  Sc4  1  0.22828816  0.20960090  0.59665074  1
  Sc  Sc5  1  0.45316873  0.09930517  0.84910229  1
  Sc  Sc6  1  0.10092456  0.43201338  0.33720248  1
  Sc  Sc7  1  0.88263313  0.54322370  0.59515477  1
  Sc  Sc8  1  0.45315686  0.42250036  0.34520600  1
  Sc  Sc9  1  0.09739406  0.76297914  0.34362292  1
  Sc  Sc10  1  0.22480636  0.86985296  0.09334299  1
  Sc  Sc11  1  0.46192006  0.75151317  0.33523742  1
  Sc  Sc12  1  0.09929504  0.75754021  0.85284791  1
  Sc  Sc13  1  0.22241941  0.86681365  0.59079188  1
  Sc  Sc14  1  0.45602122  0.74552549  0.84190581  1
  Sc  Sc15  1  0.56749374  0.87070007  0.59368470  1
  Al  Al16  1  0.21504687  0.21857776  0.06539568  1
  Al  Al17  1  0.76990962  0.09593949  0.82887839  1
  Al  Al18  1  0.56173548  0.21398056  0.07183720  1
  Al  Al19  1  0.77427217  0.09576238  0.32103134  1
  Al  Al20  1  0.87667058  0.21326198  0.07455448  1
  Al  Al21  1  0.56522763  0.19906832  0.57685420  1
  Al  Al22  1  0.22495161  0.53370274  0.11906384  1
  Al  Al23  1  0.76876832  0.42560118  0.83383588  1
  Al  Al24  1  0.56318105  0.52662906  0.07393711  1
  Al  Al25  1  0.11106450  0.43445289  0.83515377  1
  Al  Al26  1  0.22678044  0.53805472  0.62827448  1
  Al  Al27  1  0.77670000  0.42999556  0.31662706  1
  Al  Al28  1  0.88847986  0.53969735  0.06881650  1
  Al  Al29  1  0.45545497  0.41987252  0.82371246  1
  Al  Al30  1  0.56156424  0.53151552  0.57596585  1
  Al  Al31  1  0.78432896  0.76433763  0.83117630  1
  Al  Al32  1  0.87972953  0.87638459  0.57278226  1
  Al  Al33  1  0.57075970  0.86083917  0.06805588  1
  Al  Al34  1  0.77667160  0.76016476  0.31938640  1
  Al  Al35  1  0.87664312  0.87744327  0.07845402  1
  N  N36  1  0.22799410  0.20435627  0.37299201  1
  N  N37  1  0.09767278  0.11762531  0.09843908  1
  N  N38  1  0.86444521  0.21379001  0.87256749  1
  N  N39  1  0.76966117  0.08203147  0.63138043  1
  N  N40  1  0.57725651  0.19301145  0.37953834  1
  N  N41  1  0.44645625  0.09477456  0.09477035  1
  N  N42  1  0.21392915  0.22525936  0.86250061  1
  N  N43  1  0.10214440  0.09972390  0.61543647  1
  N  N44  1  0.86693632  0.21690532  0.36118961  1
  N  N45  1  0.77551948  0.09665702  0.12292419  1
  N  N46  1  0.56753925  0.21709734  0.87637470  1
  N  N47  1  0.45806927  0.10360516  0.62400765  1
  N  N48  1  0.22350766  0.53642648  0.32705044  1
  N  N49  1  0.10741385  0.43125064  0.10192851  1
  N  N50  1  0.89021844  0.54048881  0.86657754  1
  N  N51  1  0.75714299  0.43730867  0.63974673  1
  N  N52  1  0.58078917  0.52400312  0.37822210  1
  N  N53  1  0.44843275  0.42625472  0.11674519  1
  N  N54  1  0.23995087  0.51982110  0.83902168  1
  N  N55  1  0.11474534  0.44217558  0.61619657  1
  N  N56  1  0.86676825  0.54908064  0.36715028  1
  N  N57  1  0.77855134  0.42919908  0.11487064  1
  N  N58  1  0.56447533  0.51471174  0.87852510  1
  N  N59  1  0.44970239  0.42523422  0.61285302  1
  N  N60  1  0.22442184  0.87114193  0.34718624  1
  N  N61  1  0.09657966  0.75464041  0.09986278  1
  N  N62  1  0.86390588  0.88896577  0.88332407  1
  N  N63  1  0.79277993  0.76873691  0.63647897  1
  N  N64  1  0.57698232  0.86426664  0.37050452  1
  N  N65  1  0.46910812  0.74633158  0.10233734  1
  N  N66  1  0.22208190  0.86866387  0.86206796  1
  N  N67  1  0.09813901  0.75430127  0.60264879  1
  N  N68  1  0.86362738  0.88418198  0.37099110  1
  N  N69  1  0.78057465  0.75791166  0.11885461  1
  N  N70  1  0.57832462  0.85857034  0.86726739  1
  N  N71  1  0.45563352  0.74094496  0.61189336  1
