# generated using pymatgen
data_Sc4Al5N9
_symmetry_space_group_name_H-M   'P 1'
_cell_length_a   10.30227678
_cell_length_b   10.22172815
_cell_length_c   9.71656134
_cell_angle_alpha   89.90822131
_cell_angle_beta   89.83697772
_cell_angle_gamma   60.18670079
_symmetry_Int_Tables_number   1
_chemical_formula_structural   Sc4Al5N9
_chemical_formula_sum   'Sc16 Al20 N36'
_cell_volume   887.79557762
_cell_formula_units_Z   4
loop_
 _symmetry_equiv_pos_site_id
 _symmetry_equiv_pos_as_xyz
  1  'x, y, z'
loop_
 _atom_site_type_symbol
 _atom_site_label
 _atom_site_symmetry_multiplicity
 _atom_site_fract_x
 _atom_site_fract_y
 _atom_site_fract_z
 _atom_site_occupancy
  Sc  Sc0  1  0.10157307  0.10150098  0.36150743  1
  Sc  Sc1  1  0.87145496  0.21131275  0.61325003  1
  Sc  Sc2  1  0.45595458  0.09444006  0.36124010  1
  Sc  Sc3  1  0.09623350  0.11106587  0.87532440  1
  Sc  Sc4  1  0.22456666  0.21779829  0.61970578  1
  Sc  Sc5  1  0.45020707  0.09460902  0.87492998  1
  Sc  Sc6  1  0.10468099  0.43851528  0.35467706  1
  Sc  Sc7  1  0.89164581  0.54077460  0.62556478  1
  Sc  Sc8  1  0.45143704  0.42368431  0.37010726  1
  Sc  Sc9  1  0.09819303  0.76018041  0.37496902  1
  Sc  Sc10  1  0.22181015  0.86872774  0.11349809  1
  Sc  Sc11  1  0.45601534  0.74760657  0.36530253  1
  Sc  Sc12  1  0.09950329  0.75676468  0.86452767  1
  Sc  Sc13  1  0.22294443  0.86898212  0.62203912  1
  Sc  Sc14  1  0.45966259  0.74944304  0.87078096  1
  Sc  Sc15  1  0.56950506  0.86744235  0.61394317  1
  Al  Al16  1  0.22102358  0.20963002  0.13028712  1
  Al  Al17  1  0.77273772  0.10028809  0.88342374  1
  Al  Al18  1  0.56493911  0.20487838  0.12460399  1
  Al  Al19  1  0.77195204  0.09098171  0.37747549  1
  Al  Al20  1  0.87556223  0.21380264  0.13658922  1
  Al  Al21  1  0.55997159  0.20804109  0.63793947  1
  Al  Al22  1  0.22423641  0.53788912  0.11983850  1
  Al  Al23  1  0.77683175  0.42282993  0.88490914  1
  Al  Al24  1  0.56720031  0.52919851  0.12449892  1
  Al  Al25  1  0.11051844  0.43006488  0.89358524  1
  Al  Al26  1  0.23045986  0.53082105  0.64149139  1
  Al  Al27  1  0.77004472  0.43403287  0.37698654  1
  Al  Al28  1  0.88004625  0.54186336  0.12439605  1
  Al  Al29  1  0.45271200  0.41985955  0.88305773  1
  Al  Al30  1  0.55717955  0.52834056  0.63834322  1
  Al  Al31  1  0.77950139  0.76180611  0.88827349  1
  Al  Al32  1  0.87745405  0.87747938  0.63567441  1
  Al  Al33  1  0.56836885  0.86413634  0.13516858  1
  Al  Al34  1  0.78286637  0.76104933  0.37273383  1
  Al  Al35  1  0.88034203  0.87583220  0.12720973  1
  N  N36  1  0.22565247  0.20743749  0.32981052  1
  N  N37  1  0.09472003  0.11615051  0.10447240  1
  N  N38  1  0.86638374  0.21592133  0.83360475  1
  N  N39  1  0.76460086  0.08377572  0.57474293  1
  N  N40  1  0.57683519  0.19906489  0.31624756  1
  N  N41  1  0.44828890  0.09065852  0.10064206  1
  N  N42  1  0.21443156  0.22596024  0.84311464  1
  N  N43  1  0.10511404  0.10240864  0.59012129  1
  N  N44  1  0.86376537  0.21667248  0.33806356  1
  N  N45  1  0.78028272  0.09497626  0.07930851  1
  N  N46  1  0.56683356  0.21241427  0.83601090  1
  N  N47  1  0.45644776  0.10499986  0.59227233  1
  N  N48  1  0.22861223  0.54101301  0.31280305  1
  N  N49  1  0.10863005  0.42982182  0.09349979  1
  N  N50  1  0.89215370  0.53951181  0.85047103  1
  N  N51  1  0.75577783  0.44383013  0.57297527  1
  N  N52  1  0.57549072  0.52318980  0.31640039  1
  N  N53  1  0.44815158  0.42611185  0.08183207  1
  N  N54  1  0.23715231  0.51490074  0.84140458  1
  N  N55  1  0.11910087  0.44556775  0.57435783  1
  N  N56  1  0.86749682  0.54828849  0.32483934  1
  N  N57  1  0.77979449  0.42479147  0.08030896  1
  N  N58  1  0.56927323  0.51469104  0.83612535  1
  N  N59  1  0.44608065  0.42628605  0.59450400  1
  N  N60  1  0.22153879  0.86785807  0.34298489  1
  N  N61  1  0.09490362  0.75483890  0.08823577  1
  N  N62  1  0.86194186  0.88802180  0.83246858  1
  N  N63  1  0.79613985  0.76428251  0.56738503  1
  N  N64  1  0.57704814  0.86029764  0.33635052  1
  N  N65  1  0.46683625  0.74954153  0.09783646  1
  N  N66  1  0.22220040  0.87336632  0.85568054  1
  N  N67  1  0.09991516  0.75266808  0.61010866  1
  N  N68  1  0.86850256  0.88379347  0.32122206  1
  N  N69  1  0.77822567  0.76158896  0.08411313  1
  N  N70  1  0.57929940  0.86046707  0.83285692  1
  N  N71  1  0.45589892  0.73854039  0.59737447  1
