# generated using pymatgen
data_Sc4Al5N9
_symmetry_space_group_name_H-M   'P 1'
_cell_length_a   10.35025745
_cell_length_b   10.26099911
_cell_length_c   9.65897598
_cell_angle_alpha   89.83968120
_cell_angle_beta   90.07052744
_cell_angle_gamma   60.09077510
_symmetry_Int_Tables_number   1
_chemical_formula_structural   Sc4Al5N9
_chemical_formula_sum   'Sc16 Al20 N36'
_cell_volume   889.19160576
_cell_formula_units_Z   4
loop_
 _symmetry_equiv_pos_site_id
 _symmetry_equiv_pos_as_xyz
  1  'x, y, z'
loop_
 _atom_site_type_symbol
 _atom_site_label
 _atom_site_symmetry_multiplicity
 _atom_site_fract_x
 _atom_site_fract_y
 _atom_site_fract_z
 _atom_site_occupancy
  Sc  Sc0  1  0.10077551  0.10644762  0.33095302  1
  Sc  Sc1  1  0.87123188  0.21077210  0.58514878  1
  Sc  Sc2  1  0.45333234  0.09178203  0.32326756  1
  Sc  Sc3  1  0.09813164  0.10431884  0.84479146  1
  Sc  Sc4  1  0.22842964  0.20915718  0.59614896  1
  Sc  Sc5  1  0.45300829  0.09937855  0.84909878  1
  Sc  Sc6  1  0.10067966  0.43172247  0.33646169  1
  Sc  Sc7  1  0.88211883  0.54351284  0.59429023  1
  Sc  Sc8  1  0.45344917  0.42230251  0.34500534  1
  Sc  Sc9  1  0.09723522  0.76313841  0.34326149  1
  Sc  Sc10  1  0.22489077  0.86980242  0.09284800  1
  Sc  Sc11  1  0.46200245  0.75151721  0.33442300  1
  Sc  Sc12  1  0.09957920  0.75723268  0.85290488  1
  Sc  Sc13  1  0.22241453  0.86686317  0.58988343  1
  Sc  Sc14  1  0.45601749  0.74552170  0.84147391  1
  Sc  Sc15  1  0.56722543  0.87100951  0.59304191  1
  Al  Al16  1  0.21438871  0.21955222  0.06435023  1
  Al  Al17  1  0.76994778  0.09593759  0.82855446  1
  Al  Al18  1  0.56164017  0.21402309  0.07140173  1
  Al  Al19  1  0.77422792  0.09569262  0.32088018  1
  Al  Al20  1  0.87657047  0.21338072  0.07406088  1
  Al  Al21  1  0.56523712  0.19894020  0.57668916  1
  Al  Al22  1  0.22476454  0.53355433  0.12006140  1
  Al  Al23  1  0.76894623  0.42558126  0.83334855  1
  Al  Al24  1  0.56330793  0.52659309  0.07357143  1
  Al  Al25  1  0.11105824  0.43446426  0.83062068  1
  Al  Al26  1  0.22712523  0.53828274  0.62805199  1
  Al  Al27  1  0.77669543  0.43001436  0.31643963  1
  Al  Al28  1  0.88911863  0.53940574  0.06809706  1
  Al  Al29  1  0.45565500  0.41980506  0.82321156  1
  Al  Al30  1  0.56157566  0.53157414  0.57566834  1
  Al  Al31  1  0.78430736  0.76426882  0.83072824  1
  Al  Al32  1  0.87976801  0.87636155  0.57265881  1
  Al  Al33  1  0.57091248  0.86069687  0.06764254  1
  Al  Al34  1  0.77659472  0.76027715  0.31915421  1
  Al  Al35  1  0.87659889  0.87735662  0.07800976  1
  N  N36  1  0.22802266  0.20415089  0.37411151  1
  N  N37  1  0.09765515  0.11779801  0.09843921  1
  N  N38  1  0.86438319  0.21386139  0.87304787  1
  N  N39  1  0.76971833  0.08203788  0.63180166  1
  N  N40  1  0.57723267  0.19270541  0.38016188  1
  N  N41  1  0.44622709  0.09506153  0.09459487  1
  N  N42  1  0.21348067  0.22588751  0.86282830  1
  N  N43  1  0.10221187  0.09951147  0.61658598  1
  N  N44  1  0.86703082  0.21681934  0.36163565  1
  N  N45  1  0.77548872  0.09660500  0.12337921  1
  N  N46  1  0.56762162  0.21714664  0.87675086  1
  N  N47  1  0.45803857  0.10369505  0.62506493  1
  N  N48  1  0.22352036  0.53627492  0.32789833  1
  N  N49  1  0.10715860  0.43114850  0.10436698  1
  N  N50  1  0.89058463  0.54032176  0.86665257  1
  N  N51  1  0.75712205  0.43721225  0.64005345  1
  N  N52  1  0.58086348  0.52412426  0.37882378  1
  N  N53  1  0.44838646  0.42625336  0.11737662  1
  N  N54  1  0.24020709  0.51977875  0.83829694  1
  N  N55  1  0.11457734  0.44209843  0.61798531  1
  N  N56  1  0.86654906  0.54926720  0.36795720  1
  N  N57  1  0.77866892  0.42920840  0.11542808  1
  N  N58  1  0.56468680  0.51460513  0.87893788  1
  N  N59  1  0.44999618  0.42506164  0.61299505  1
  N  N60  1  0.22443784  0.87127794  0.34746679  1
  N  N61  1  0.09660698  0.75439532  0.10027045  1
  N  N62  1  0.86391801  0.88889675  0.88360464  1
  N  N63  1  0.79254077  0.76891230  0.63684444  1
  N  N64  1  0.57678012  0.86458638  0.37074916  1
  N  N65  1  0.46922710  0.74623816  0.10265524  1
  N  N66  1  0.22216863  0.86856110  0.86311616  1
  N  N67  1  0.09813229  0.75434908  0.60269889  1
  N  N68  1  0.86351052  0.88421405  0.37164421  1
  N  N69  1  0.78069463  0.75776653  0.11931017  1
  N  N70  1  0.57840966  0.85846395  0.86785930  1
  N  N71  1  0.45562651  0.74096160  0.61249847  1
