# generated using pymatgen
data_Sc4Al5N9
_symmetry_space_group_name_H-M   'P 1'
_cell_length_a   10.18516811
_cell_length_b   10.12115355
_cell_length_c   10.01623184
_cell_angle_alpha   89.87268183
_cell_angle_beta   89.77890323
_cell_angle_gamma   60.22121202
_symmetry_Int_Tables_number   1
_chemical_formula_structural   Sc4Al5N9
_chemical_formula_sum   'Sc16 Al20 N36'
_cell_volume   896.17685267
_cell_formula_units_Z   4
loop_
 _symmetry_equiv_pos_site_id
 _symmetry_equiv_pos_as_xyz
  1  'x, y, z'
loop_
 _atom_site_type_symbol
 _atom_site_label
 _atom_site_symmetry_multiplicity
 _atom_site_fract_x
 _atom_site_fract_y
 _atom_site_fract_z
 _atom_site_occupancy
  Sc  Sc0  1  0.10168395  0.10068333  0.36326294  1
  Sc  Sc1  1  0.87326244  0.21098275  0.61954496  1
  Sc  Sc2  1  0.45560819  0.09393989  0.36545442  1
  Sc  Sc3  1  0.09657873  0.11101108  0.88599244  1
  Sc  Sc4  1  0.22416439  0.21728118  0.62577268  1
  Sc  Sc5  1  0.45020671  0.09510652  0.88082293  1
  Sc  Sc6  1  0.10447919  0.43788273  0.35997043  1
  Sc  Sc7  1  0.89123703  0.54166728  0.62909128  1
  Sc  Sc8  1  0.45063184  0.42374687  0.37581709  1
  Sc  Sc9  1  0.09843598  0.75977148  0.38493367  1
  Sc  Sc10  1  0.22134754  0.86651050  0.11932004  1
  Sc  Sc11  1  0.45523482  0.74844464  0.36980333  1
  Sc  Sc12  1  0.09988399  0.75613796  0.86640228  1
  Sc  Sc13  1  0.22348434  0.87079969  0.63073532  1
  Sc  Sc14  1  0.46032764  0.74859917  0.87821559  1
  Sc  Sc15  1  0.56869264  0.86825561  0.61980738  1
  Al  Al16  1  0.22138128  0.21030850  0.13366772  1
  Al  Al17  1  0.77217889  0.10010893  0.88514194  1
  Al  Al18  1  0.56379915  0.20518022  0.12844108  1
  Al  Al19  1  0.77263812  0.09173566  0.37865590  1
  Al  Al20  1  0.87502434  0.21392038  0.13813644  1
  Al  Al21  1  0.55992368  0.20799934  0.63857191  1
  Al  Al22  1  0.22296359  0.53816932  0.12354928  1
  Al  Al23  1  0.77681223  0.42392792  0.88750939  1
  Al  Al24  1  0.56636699  0.52907597  0.12869055  1
  Al  Al25  1  0.11063168  0.43027691  0.89508043  1
  Al  Al26  1  0.23096796  0.53056431  0.64361716  1
  Al  Al27  1  0.77036062  0.43302280  0.37784388  1
  Al  Al28  1  0.88062248  0.54199579  0.12773302  1
  Al  Al29  1  0.45299529  0.41974720  0.88349910  1
  Al  Al30  1  0.55765306  0.52919096  0.63883231  1
  Al  Al31  1  0.77973151  0.76169455  0.89023934  1
  Al  Al32  1  0.87725700  0.87795483  0.63694362  1
  Al  Al33  1  0.56818542  0.86445311  0.13739324  1
  Al  Al34  1  0.78209941  0.76131934  0.37437310  1
  Al  Al35  1  0.88166501  0.87428326  0.13006088  1
  N  N36  1  0.22562468  0.20770650  0.32394920  1
  N  N37  1  0.09537296  0.11532479  0.10411251  1
  N  N38  1  0.86771242  0.21577272  0.83293998  1
  N  N39  1  0.76568402  0.08429497  0.57090758  1
  N  N40  1  0.57642199  0.19970361  0.31413872  1
  N  N41  1  0.44814494  0.09140245  0.09851358  1
  N  N42  1  0.21408866  0.22551406  0.84052583  1
  N  N43  1  0.10615294  0.10186849  0.58148343  1
  N  N44  1  0.86339831  0.21708247  0.33218940  1
  N  N45  1  0.77939799  0.09440928  0.07638768  1
  N  N46  1  0.56682081  0.21223265  0.83046293  1
  N  N47  1  0.45598581  0.10529197  0.58659580  1
  N  N48  1  0.22738879  0.54245619  0.31057710  1
  N  N49  1  0.10873214  0.42965174  0.08967705  1
  N  N50  1  0.89199278  0.53975519  0.84711022  1
  N  N51  1  0.75700272  0.44302542  0.56829193  1
  N  N52  1  0.57448902  0.52328710  0.31448159  1
  N  N53  1  0.44761055  0.42618380  0.07745159  1
  N  N54  1  0.23768585  0.51380371  0.83611567  1
  N  N55  1  0.11953627  0.44511565  0.57200949  1
  N  N56  1  0.86718733  0.54859662  0.32115004  1
  N  N57  1  0.77898321  0.42543724  0.07781192  1
  N  N58  1  0.56990420  0.51500025  0.83050837  1
  N  N59  1  0.44628231  0.42660646  0.59252553  1
  N  N60  1  0.22069528  0.86623701  0.33611349  1
  N  N61  1  0.09474952  0.75302747  0.08164287  1
  N  N62  1  0.86109731  0.88842784  0.82786071  1
  N  N63  1  0.79553735  0.76504178  0.56322631  1
  N  N64  1  0.57694971  0.86030993  0.33007961  1
  N  N65  1  0.46702594  0.74881682  0.09553501  1
  N  N66  1  0.22283565  0.87436442  0.85223520  1
  N  N67  1  0.10068560  0.75314053  0.61064131  1
  N  N68  1  0.87032979  0.88300043  0.31890731  1
  N  N69  1  0.77834104  0.76156618  0.08074484  1
  N  N70  1  0.57869099  0.86090923  0.83107449  1
  N  N71  1  0.45580112  0.73926711  0.59151015  1
