# generated using pymatgen
data_Sc4Al5N9
_symmetry_space_group_name_H-M   'P 1'
_cell_length_a   10.50981684
_cell_length_b   10.40384635
_cell_length_c   9.18607327
_cell_angle_alpha   89.96177656
_cell_angle_beta   90.00630718
_cell_angle_gamma   60.06566172
_symmetry_Int_Tables_number   1
_chemical_formula_structural   Sc4Al5N9
_chemical_formula_sum   'Sc16 Al20 N36'
_cell_volume   870.43517263
_cell_formula_units_Z   4
loop_
 _symmetry_equiv_pos_site_id
 _symmetry_equiv_pos_as_xyz
  1  'x, y, z'
loop_
 _atom_site_type_symbol
 _atom_site_label
 _atom_site_symmetry_multiplicity
 _atom_site_fract_x
 _atom_site_fract_y
 _atom_site_fract_z
 _atom_site_occupancy
  Sc  Sc0  1  0.10107958  0.10351997  0.35521853  1
  Sc  Sc1  1  0.86993133  0.21135196  0.60713627  1
  Sc  Sc2  1  0.45581365  0.09461183  0.35354559  1
  Sc  Sc3  1  0.09764156  0.10883595  0.86162658  1
  Sc  Sc4  1  0.22575393  0.21602493  0.61104562  1
  Sc  Sc5  1  0.45130201  0.09450535  0.86641554  1
  Sc  Sc6  1  0.10536184  0.43818942  0.34931234  1
  Sc  Sc7  1  0.88977005  0.54080848  0.61797027  1
  Sc  Sc8  1  0.45245985  0.42427732  0.35979061  1
  Sc  Sc9  1  0.09831697  0.76045897  0.36078424  1
  Sc  Sc10  1  0.22215384  0.87066856  0.10751930  1
  Sc  Sc11  1  0.45803459  0.74659986  0.35706322  1
  Sc  Sc12  1  0.09866106  0.75846693  0.86148325  1
  Sc  Sc13  1  0.22247790  0.86730889  0.60945010  1
  Sc  Sc14  1  0.45668735  0.75235524  0.86274601  1
  Sc  Sc15  1  0.57085235  0.86625864  0.60748094  1
  Al  Al16  1  0.22046700  0.21021626  0.11474339  1
  Al  Al17  1  0.77360274  0.09848078  0.87997208  1
  Al  Al18  1  0.56518643  0.20504788  0.11556883  1
  Al  Al19  1  0.77178952  0.09181852  0.36984813  1
  Al  Al20  1  0.87738599  0.21254834  0.12294037  1
  Al  Al21  1  0.56061733  0.20767287  0.63488761  1
  Al  Al22  1  0.22543014  0.53626699  0.11162828  1
  Al  Al23  1  0.77656136  0.42278077  0.87708942  1
  Al  Al24  1  0.56727500  0.52894254  0.11088626  1
  Al  Al25  1  0.11097261  0.43057299  0.88457379  1
  Al  Al26  1  0.22914521  0.53265747  0.63663198  1
  Al  Al27  1  0.77140875  0.43298935  0.36652146  1
  Al  Al28  1  0.88258498  0.54023172  0.11188658  1
  Al  Al29  1  0.45080966  0.42044810  0.87851648  1
  Al  Al30  1  0.55579856  0.52882197  0.63835107  1
  Al  Al31  1  0.78005414  0.76257156  0.88477541  1
  Al  Al32  1  0.87774498  0.87727522  0.62898410  1
  Al  Al33  1  0.56746747  0.86478120  0.12421323  1
  Al  Al34  1  0.78253689  0.76078462  0.36378108  1
  Al  Al35  1  0.87929794  0.87739910  0.12182665  1
  N  N36  1  0.22559470  0.20768424  0.33992513  1
  N  N37  1  0.09591379  0.11507828  0.10510764  1
  N  N38  1  0.86675721  0.21405629  0.84520655  1
  N  N39  1  0.76414872  0.08510295  0.58235797  1
  N  N40  1  0.57547238  0.19903285  0.32219372  1
  N  N41  1  0.44859444  0.09014580  0.10294890  1
  N  N42  1  0.21614946  0.22384579  0.85638971  1
  N  N43  1  0.10347922  0.10329423  0.60259479  1
  N  N44  1  0.86517914  0.21610234  0.34212346  1
  N  N45  1  0.78076603  0.09398032  0.08718957  1
  N  N46  1  0.56743273  0.21229126  0.84793502  1
  N  N47  1  0.45717331  0.10415751  0.60358106  1
  N  N48  1  0.22898879  0.53872112  0.32049747  1
  N  N49  1  0.10857763  0.43074253  0.09602036  1
  N  N50  1  0.89150486  0.54084051  0.86025094  1
  N  N51  1  0.75478211  0.44280314  0.58699233  1
  N  N52  1  0.57611888  0.52344348  0.31907862  1
  N  N53  1  0.44718885  0.42561494  0.08898303  1
  N  N54  1  0.23560592  0.51824102  0.85207169  1
  N  N55  1  0.11806378  0.44411738  0.58859124  1
  N  N56  1  0.87003998  0.54611910  0.33233321  1
  N  N57  1  0.78143833  0.42490190  0.08543882  1
  N  N58  1  0.56662060  0.51685787  0.85215054  1
  N  N59  1  0.44579500  0.42659244  0.60399537  1
  N  N60  1  0.22240341  0.86943475  0.35269188  1
  N  N61  1  0.09505061  0.75704398  0.09805109  1
  N  N62  1  0.86343188  0.88688581  0.84053791  1
  N  N63  1  0.79495677  0.76398042  0.57535025  1
  N  N64  1  0.57617739  0.86089064  0.34350076  1
  N  N65  1  0.46426446  0.75211760  0.10167641  1
  N  N66  1  0.22103175  0.87197014  0.85829362  1
  N  N67  1  0.09926444  0.75251830  0.60947715  1
  N  N68  1  0.86806388  0.88412732  0.32890193  1
  N  N69  1  0.77919230  0.76158301  0.09348294  1
  N  N70  1  0.57904609  0.86020600  0.84452045  1
  N  N71  1  0.45615372  0.73830626  0.60574720  1
