# generated using pymatgen
data_Sc4Al5N9
_symmetry_space_group_name_H-M   'P 1'
_cell_length_a   10.62449251
_cell_length_b   10.50895652
_cell_length_c   8.92959781
_cell_angle_alpha   89.91340104
_cell_angle_beta   90.22754206
_cell_angle_gamma   59.97368287
_symmetry_Int_Tables_number   1
_chemical_formula_structural   Sc4Al5N9
_chemical_formula_sum   'Sc16 Al20 N36'
_cell_volume   863.19341468
_cell_formula_units_Z   4
loop_
 _symmetry_equiv_pos_site_id
 _symmetry_equiv_pos_as_xyz
  1  'x, y, z'
loop_
 _atom_site_type_symbol
 _atom_site_label
 _atom_site_symmetry_multiplicity
 _atom_site_fract_x
 _atom_site_fract_y
 _atom_site_fract_z
 _atom_site_occupancy
  Sc  Sc0  1  0.10111254  0.10494715  0.34504273  1
  Sc  Sc1  1  0.86777271  0.21261494  0.59596133  1
  Sc  Sc2  1  0.45593436  0.09226436  0.34322464  1
  Sc  Sc3  1  0.09891092  0.10749936  0.85088088  1
  Sc  Sc4  1  0.22633401  0.21404618  0.60049308  1
  Sc  Sc5  1  0.45078859  0.09788888  0.85645036  1
  Sc  Sc6  1  0.10470814  0.43758546  0.34114186  1
  Sc  Sc7  1  0.88522375  0.54071457  0.60422262  1
  Sc  Sc8  1  0.45324587  0.42479363  0.35109383  1
  Sc  Sc9  1  0.10211807  0.75813565  0.34579195  1
  Sc  Sc10  1  0.22266041  0.87110457  0.09884615  1
  Sc  Sc11  1  0.46102005  0.74664585  0.34713843  1
  Sc  Sc12  1  0.09554283  0.76089888  0.85014660  1
  Sc  Sc13  1  0.22184184  0.86750343  0.59845131  1
  Sc  Sc14  1  0.45299200  0.75349962  0.85340598  1
  Sc  Sc15  1  0.57129961  0.86640211  0.59992167  1
  Al  Al16  1  0.21978747  0.21237308  0.09730514  1
  Al  Al17  1  0.77386654  0.09677521  0.87657667  1
  Al  Al18  1  0.56070723  0.20794530  0.10575217  1
  Al  Al19  1  0.77181411  0.09527226  0.34237404  1
  Al  Al20  1  0.88126301  0.21038737  0.09690740  1
  Al  Al21  1  0.56369610  0.20497225  0.62287403  1
  Al  Al22  1  0.22589315  0.53440386  0.10016616  1
  Al  Al23  1  0.77343751  0.42433458  0.85440308  1
  Al  Al24  1  0.56211335  0.53076803  0.09421498  1
  Al  Al25  1  0.11172547  0.43161757  0.86261318  1
  Al  Al26  1  0.22754218  0.53420724  0.62346166  1
  Al  Al27  1  0.77694587  0.43058448  0.31368625  1
  Al  Al28  1  0.88846085  0.53956748  0.08144783  1
  Al  Al29  1  0.44835489  0.42146378  0.86581021  1
  Al  Al30  1  0.55535182  0.52933686  0.63242454  1
  Al  Al31  1  0.78347810  0.76462929  0.84824264  1
  Al  Al32  1  0.87841357  0.87626030  0.57761101  1
  Al  Al33  1  0.56605797  0.86531843  0.08950980  1
  Al  Al34  1  0.77847251  0.75711354  0.31810385  1
  Al  Al35  1  0.88112784  0.87449913  0.09457793  1
  N  N36  1  0.22544452  0.20844379  0.33903276  1
  N  N37  1  0.09884747  0.11420701  0.09753573  1
  N  N38  1  0.86814090  0.21039252  0.85875682  1
  N  N39  1  0.76589283  0.08570100  0.57894208  1
  N  N40  1  0.57152690  0.20038727  0.32348758  1
  N  N41  1  0.44781635  0.09183923  0.09654965  1
  N  N42  1  0.21700172  0.22256139  0.85598575  1
  N  N43  1  0.10159579  0.10409284  0.59829226  1
  N  N44  1  0.86699910  0.21904759  0.33614016  1
  N  N45  1  0.77903272  0.09485269  0.10035551  1
  N  N46  1  0.56919568  0.21200706  0.84918941  1
  N  N47  1  0.45776714  0.10354930  0.60146900  1
  N  N48  1  0.22936873  0.53550043  0.32352733  1
  N  N49  1  0.10891363  0.43179551  0.08826136  1
  N  N50  1  0.89348513  0.53984493  0.86007687  1
  N  N51  1  0.75639314  0.43933499  0.62668851  1
  N  N52  1  0.57812665  0.52273012  0.31796921  1
  N  N53  1  0.44416654  0.42569462  0.08594506  1
  N  N54  1  0.23434367  0.52125456  0.84835487  1
  N  N55  1  0.11620485  0.44264823  0.59655205  1
  N  N56  1  0.87034890  0.54574244  0.34052481  1
  N  N57  1  0.78240362  0.42760375  0.08660733  1
  N  N58  1  0.56072456  0.52018158  0.86007451  1
  N  N59  1  0.44669176  0.42629217  0.60602832  1
  N  N60  1  0.22368123  0.86998240  0.34669977  1
  N  N61  1  0.09833490  0.75519016  0.09562202  1
  N  N62  1  0.86618753  0.88912177  0.86893066  1
  N  N63  1  0.79283443  0.76586763  0.62266401  1
  N  N64  1  0.57793547  0.85994793  0.34684226  1
  N  N65  1  0.46166850  0.75376360  0.09648264  1
  N  N66  1  0.21943040  0.87191529  0.85001848  1
  N  N67  1  0.09772545  0.75388950  0.59870853  1
  N  N68  1  0.86850621  0.87734118  0.34344257  1
  N  N69  1  0.78059205  0.75795311  0.09773854  1
  N  N70  1  0.57539556  0.86249797  0.85801903  1
  N  N71  1  0.45693067  0.73798282  0.60193820  1
