# generated using pymatgen
data_Sc4Al5N9
_symmetry_space_group_name_H-M   'P 1'
_cell_length_a   10.61027634
_cell_length_b   10.48370765
_cell_length_c   8.96941433
_cell_angle_alpha   89.98947501
_cell_angle_beta   90.29349071
_cell_angle_gamma   60.01363779
_symmetry_Int_Tables_number   1
_chemical_formula_structural   Sc4Al5N9
_chemical_formula_sum   'Sc16 Al20 N36'
_cell_volume   864.14794913
_cell_formula_units_Z   4
loop_
 _symmetry_equiv_pos_site_id
 _symmetry_equiv_pos_as_xyz
  1  'x, y, z'
loop_
 _atom_site_type_symbol
 _atom_site_label
 _atom_site_symmetry_multiplicity
 _atom_site_fract_x
 _atom_site_fract_y
 _atom_site_fract_z
 _atom_site_occupancy
  Sc  Sc0  1  0.10007392  0.10511656  0.34462331  1
  Sc  Sc1  1  0.86769651  0.21388010  0.59497071  1
  Sc  Sc2  1  0.45573218  0.09105678  0.34124046  1
  Sc  Sc3  1  0.09924212  0.10724542  0.85059706  1
  Sc  Sc4  1  0.22609785  0.21384086  0.60048633  1
  Sc  Sc5  1  0.45171043  0.09916455  0.85377372  1
  Sc  Sc6  1  0.10448986  0.43753856  0.34225922  1
  Sc  Sc7  1  0.88553972  0.53985476  0.60442735  1
  Sc  Sc8  1  0.45239235  0.42723239  0.34803035  1
  Sc  Sc9  1  0.10016989  0.76002548  0.34698439  1
  Sc  Sc10  1  0.22272361  0.87117840  0.09951556  1
  Sc  Sc11  1  0.46141562  0.74681062  0.34770215  1
  Sc  Sc12  1  0.09668984  0.76014658  0.85071620  1
  Sc  Sc13  1  0.22224324  0.86720387  0.59899861  1
  Sc  Sc14  1  0.45308451  0.75384222  0.85445741  1
  Sc  Sc15  1  0.57117647  0.86572131  0.60047951  1
  Al  Al16  1  0.21951504  0.21256094  0.09740098  1
  Al  Al17  1  0.77048043  0.09513287  0.84058420  1
  Al  Al18  1  0.56284575  0.20651793  0.08941937  1
  Al  Al19  1  0.77523285  0.09511335  0.32431132  1
  Al  Al20  1  0.88011233  0.20838610  0.08638488  1
  Al  Al21  1  0.56228686  0.20444344  0.58820774  1
  Al  Al22  1  0.22465440  0.53529860  0.10254189  1
  Al  Al23  1  0.77308411  0.42437869  0.85506171  1
  Al  Al24  1  0.56218396  0.53133831  0.09466047  1
  Al  Al25  1  0.11181488  0.43168059  0.86479894  1
  Al  Al26  1  0.22808544  0.53401585  0.62469107  1
  Al  Al27  1  0.77794838  0.42928864  0.31141002  1
  Al  Al28  1  0.88855507  0.54067655  0.08229959  1
  Al  Al29  1  0.44813880  0.42005442  0.86624033  1
  Al  Al30  1  0.55452080  0.52879788  0.63510892  1
  Al  Al31  1  0.78449996  0.76329042  0.84531001  1
  Al  Al32  1  0.87831652  0.87671217  0.57898798  1
  Al  Al33  1  0.56773938  0.86530464  0.08796425  1
  Al  Al34  1  0.77871429  0.75884402  0.32129289  1
  Al  Al35  1  0.87953081  0.87666939  0.08631849  1
  N  N36  1  0.22542939  0.20795510  0.33931807  1
  N  N37  1  0.09793144  0.11422573  0.09768875  1
  N  N38  1  0.86803449  0.20974563  0.86146612  1
  N  N39  1  0.76756066  0.08423718  0.61781354  1
  N  N40  1  0.57585848  0.19865154  0.35555252  1
  N  N41  1  0.45036788  0.09209222  0.09833352  1
  N  N42  1  0.21725028  0.22258206  0.85744601  1
  N  N43  1  0.10133988  0.10416119  0.59911775  1
  N  N44  1  0.86619846  0.21841891  0.34265571  1
  N  N45  1  0.77777451  0.09415593  0.10858725  1
  N  N46  1  0.56664041  0.21278159  0.86649557  1
  N  N47  1  0.45659368  0.10243706  0.60213126  1
  N  N48  1  0.22786591  0.53699554  0.32437512  1
  N  N49  1  0.10867614  0.43201413  0.08969952  1
  N  N50  1  0.89360519  0.54059879  0.86174835  1
  N  N51  1  0.75570630  0.43984145  0.63105954  1
  N  N52  1  0.57910956  0.52299840  0.31712942  1
  N  N53  1  0.44405162  0.42555751  0.09086010  1
  N  N54  1  0.23457977  0.52100533  0.85008324  1
  N  N55  1  0.11645336  0.44256732  0.59666742  1
  N  N56  1  0.87036135  0.54559230  0.34267905  1
  N  N57  1  0.78310944  0.42677826  0.08733798  1
  N  N58  1  0.55965508  0.52015163  0.86243685  1
  N  N59  1  0.44601869  0.42637510  0.60666510  1
  N  N60  1  0.22375391  0.87001845  0.34729786  1
  N  N61  1  0.09645167  0.75677809  0.09713184  1
  N  N62  1  0.86720614  0.88680348  0.87131340  1
  N  N63  1  0.79318522  0.76505571  0.62383339  1
  N  N64  1  0.57817577  0.85984095  0.35063668  1
  N  N65  1  0.46214510  0.75468611  0.09718652  1
  N  N66  1  0.21997782  0.87175034  0.85105997  1
  N  N67  1  0.09860612  0.75345950  0.60063675  1
  N  N68  1  0.86622694  0.88229169  0.35603143  1
  N  N69  1  0.78138146  0.75914730  0.10309343  1
  N  N70  1  0.57688570  0.86205064  0.85945762  1
  N  N71  1  0.45694308  0.73738674  0.60329016  1
