# generated using pymatgen
data_Sc4Al5N9
_symmetry_space_group_name_H-M   'P 1'
_cell_length_a   10.34628693
_cell_length_b   10.25872363
_cell_length_c   9.67270004
_cell_angle_alpha   89.90898729
_cell_angle_beta   90.17296023
_cell_angle_gamma   60.11300798
_symmetry_Int_Tables_number   1
_chemical_formula_structural   Sc4Al5N9
_chemical_formula_sum   'Sc16 Al20 N36'
_cell_volume   890.11246485
_cell_formula_units_Z   4
loop_
 _symmetry_equiv_pos_site_id
 _symmetry_equiv_pos_as_xyz
  1  'x, y, z'
loop_
 _atom_site_type_symbol
 _atom_site_label
 _atom_site_symmetry_multiplicity
 _atom_site_fract_x
 _atom_site_fract_y
 _atom_site_fract_z
 _atom_site_occupancy
  Sc  Sc0  1  0.10035945  0.10577775  0.33138573  1
  Sc  Sc1  1  0.87086435  0.21129565  0.58481969  1
  Sc  Sc2  1  0.45566524  0.08975833  0.32382589  1
  Sc  Sc3  1  0.09809362  0.10542996  0.84405267  1
  Sc  Sc4  1  0.22732256  0.21293381  0.59477858  1
  Sc  Sc5  1  0.45242450  0.09951006  0.84811208  1
  Sc  Sc6  1  0.10321028  0.43301665  0.34487886  1
  Sc  Sc7  1  0.88641781  0.54177847  0.59316268  1
  Sc  Sc8  1  0.45376887  0.42241748  0.34523646  1
  Sc  Sc9  1  0.09714761  0.76345820  0.34399229  1
  Sc  Sc10  1  0.22446759  0.86949214  0.09203379  1
  Sc  Sc11  1  0.46200444  0.75121724  0.33432468  1
  Sc  Sc12  1  0.09867501  0.75811299  0.85032514  1
  Sc  Sc13  1  0.22241326  0.86752877  0.58994563  1
  Sc  Sc14  1  0.45561511  0.74573515  0.84107939  1
  Sc  Sc15  1  0.56774473  0.87023123  0.59395748  1
  Al  Al16  1  0.21985682  0.21120389  0.07103055  1
  Al  Al17  1  0.76953795  0.09628860  0.82806846  1
  Al  Al18  1  0.56219225  0.21387062  0.07090335  1
  Al  Al19  1  0.77422668  0.09565264  0.32102526  1
  Al  Al20  1  0.87633185  0.21303599  0.07373473  1
  Al  Al21  1  0.56483571  0.19935604  0.57658056  1
  Al  Al22  1  0.22689243  0.53563941  0.12226616  1
  Al  Al23  1  0.76906553  0.42595505  0.83308670  1
  Al  Al24  1  0.56278650  0.52638366  0.07223154  1
  Al  Al25  1  0.11125122  0.43532984  0.88086137  1
  Al  Al26  1  0.22345605  0.53592052  0.62887954  1
  Al  Al27  1  0.77583349  0.42968403  0.31672212  1
  Al  Al28  1  0.88185204  0.54301649  0.07486110  1
  Al  Al29  1  0.45473129  0.41945487  0.82146845  1
  Al  Al30  1  0.56168109  0.53173569  0.57666496  1
  Al  Al31  1  0.78468372  0.76348825  0.83093085  1
  Al  Al32  1  0.87980643  0.87619344  0.57308926  1
  Al  Al33  1  0.57022359  0.86134716  0.06668188  1
  Al  Al34  1  0.77610493  0.76084426  0.31945626  1
  Al  Al35  1  0.87664106  0.87776974  0.07708912  1
  N  N36  1  0.22983424  0.20168245  0.36695902  1
  N  N37  1  0.09720600  0.11681117  0.09915331  1
  N  N38  1  0.86419814  0.21414448  0.87326392  1
  N  N39  1  0.76949636  0.08218224  0.63189932  1
  N  N40  1  0.57745689  0.19297725  0.38042415  1
  N  N41  1  0.44777490  0.09283256  0.09498656  1
  N  N42  1  0.21398181  0.22555918  0.86527212  1
  N  N43  1  0.10218583  0.10123762  0.61577117  1
  N  N44  1  0.86644067  0.21695135  0.36191516  1
  N  N45  1  0.77551510  0.09639600  0.12353318  1
  N  N46  1  0.56708629  0.21715740  0.87667231  1
  N  N47  1  0.45752643  0.10396581  0.62457626  1
  N  N48  1  0.22487044  0.53823050  0.32087784  1
  N  N49  1  0.10989791  0.43150926  0.09183389  1
  N  N50  1  0.88981098  0.54107139  0.87117725  1
  N  N51  1  0.75830657  0.43782717  0.64013976  1
  N  N52  1  0.58061824  0.52427266  0.38017674  1
  N  N53  1  0.44960444  0.42579799  0.11643016  1
  N  N54  1  0.23639917  0.51764571  0.83463661  1
  N  N55  1  0.11664595  0.44373995  0.57881282  1
  N  N56  1  0.86609086  0.54912937  0.36200189  1
  N  N57  1  0.77706543  0.42874005  0.11598157  1
  N  N58  1  0.56399600  0.51458140  0.87783893  1
  N  N59  1  0.44943154  0.42528036  0.61336188  1
  N  N60  1  0.22452935  0.87080694  0.34797812  1
  N  N61  1  0.09622778  0.75508963  0.09815295  1
  N  N62  1  0.86354492  0.88922598  0.88318660  1
  N  N63  1  0.79391127  0.76732344  0.63738567  1
  N  N64  1  0.57726798  0.86333241  0.37269032  1
  N  N65  1  0.46930737  0.74606218  0.10226291  1
  N  N66  1  0.22166181  0.86928834  0.86248967  1
  N  N67  1  0.09826020  0.75473972  0.60385534  1
  N  N68  1  0.86337535  0.88429648  0.37226003  1
  N  N69  1  0.77895726  0.76017569  0.11998071  1
  N  N70  1  0.57844422  0.85843347  0.86732054  1
  N  N71  1  0.45533523  0.74113787  0.61329804  1
