# generated using pymatgen
data_Sc4Al5N9
_symmetry_space_group_name_H-M   'P 1'
_cell_length_a   10.62554560
_cell_length_b   10.50518725
_cell_length_c   8.92804737
_cell_angle_alpha   89.94912389
_cell_angle_beta   90.29844771
_cell_angle_gamma   59.98404866
_symmetry_Int_Tables_number   1
_chemical_formula_structural   Sc4Al5N9
_chemical_formula_sum   'Sc16 Al20 N36'
_cell_volume   862.90482788
_cell_formula_units_Z   4
loop_
 _symmetry_equiv_pos_site_id
 _symmetry_equiv_pos_as_xyz
  1  'x, y, z'
loop_
 _atom_site_type_symbol
 _atom_site_label
 _atom_site_symmetry_multiplicity
 _atom_site_fract_x
 _atom_site_fract_y
 _atom_site_fract_z
 _atom_site_occupancy
  Sc  Sc0  1  0.10100506  0.10495545  0.34456136  1
  Sc  Sc1  1  0.86754707  0.21290828  0.59525715  1
  Sc  Sc2  1  0.45652507  0.09246050  0.34300318  1
  Sc  Sc3  1  0.09919356  0.10743545  0.85025764  1
  Sc  Sc4  1  0.22626505  0.21405733  0.60014430  1
  Sc  Sc5  1  0.45005311  0.09747314  0.85683612  1
  Sc  Sc6  1  0.10479536  0.43748704  0.34123013  1
  Sc  Sc7  1  0.88516310  0.54040675  0.60363998  1
  Sc  Sc8  1  0.45397317  0.42406814  0.35058891  1
  Sc  Sc9  1  0.10159701  0.75869256  0.34585388  1
  Sc  Sc10  1  0.22267593  0.87105684  0.09865610  1
  Sc  Sc11  1  0.46108526  0.74652138  0.34719127  1
  Sc  Sc12  1  0.09609154  0.76026050  0.84956830  1
  Sc  Sc13  1  0.22187428  0.86745653  0.59824929  1
  Sc  Sc14  1  0.45305593  0.75344428  0.85345200  1
  Sc  Sc15  1  0.57106836  0.86649203  0.59990877  1
  Al  Al16  1  0.21984505  0.21223698  0.09749222  1
  Al  Al17  1  0.77416602  0.09566364  0.86652449  1
  Al  Al18  1  0.56138340  0.20762045  0.10229780  1
  Al  Al19  1  0.77331830  0.09539786  0.33391490  1
  Al  Al20  1  0.88146893  0.20985167  0.09260440  1
  Al  Al21  1  0.56235433  0.20589421  0.62470635  1
  Al  Al22  1  0.22561330  0.53473138  0.10110541  1
  Al  Al23  1  0.77338872  0.42474830  0.85423300  1
  Al  Al24  1  0.56190752  0.53102233  0.09425208  1
  Al  Al25  1  0.11164388  0.43184632  0.86263069  1
  Al  Al26  1  0.22741532  0.53427416  0.62240015  1
  Al  Al27  1  0.77720269  0.43010793  0.31256736  1
  Al  Al28  1  0.88844769  0.54010470  0.08185700  1
  Al  Al29  1  0.44727943  0.42232433  0.86659063  1
  Al  Al30  1  0.55523966  0.52916831  0.63270668  1
  Al  Al31  1  0.78380032  0.76382123  0.84682514  1
  Al  Al32  1  0.87766102  0.87708399  0.57728719  1
  Al  Al33  1  0.56640284  0.86512866  0.08985608  1
  Al  Al34  1  0.77844359  0.75790616  0.31940644  1
  Al  Al35  1  0.88101803  0.87459028  0.09097748  1
  N  N36  1  0.22570876  0.20828056  0.33895259  1
  N  N37  1  0.09889515  0.11415052  0.09719863  1
  N  N38  1  0.86855458  0.21079309  0.85930954  1
  N  N39  1  0.76577291  0.08591596  0.59325595  1
  N  N40  1  0.57326392  0.19950857  0.32266898  1
  N  N41  1  0.44748439  0.09129824  0.09667959  1
  N  N42  1  0.21668745  0.22283465  0.85590731  1
  N  N43  1  0.10160084  0.10406398  0.59800006  1
  N  N44  1  0.86682908  0.21843064  0.33691460  1
  N  N45  1  0.78019901  0.09384932  0.09892204  1
  N  N46  1  0.56736652  0.21263044  0.85279438  1
  N  N47  1  0.45756709  0.10380658  0.60176986  1
  N  N48  1  0.22947613  0.53563312  0.32483307  1
  N  N49  1  0.10903157  0.43195212  0.08844743  1
  N  N50  1  0.89336717  0.54025221  0.86025080  1
  N  N51  1  0.75613727  0.43952965  0.62737680  1
  N  N52  1  0.57845976  0.52249607  0.31798253  1
  N  N53  1  0.44340254  0.42665578  0.08661075  1
  N  N54  1  0.23414901  0.52132494  0.84789660  1
  N  N55  1  0.11598546  0.44261292  0.59641258  1
  N  N56  1  0.87047647  0.54562347  0.34058765  1
  N  N57  1  0.78253901  0.42758099  0.08658284  1
  N  N58  1  0.56050830  0.52013847  0.86038037  1
  N  N59  1  0.44679213  0.42592450  0.60620552  1
  N  N60  1  0.22365246  0.86998335  0.34650843  1
  N  N61  1  0.09794425  0.75523383  0.09588310  1
  N  N62  1  0.86694878  0.88726080  0.86900150  1
  N  N63  1  0.79273509  0.76559797  0.62168734  1
  N  N64  1  0.57776934  0.86012034  0.34734037  1
  N  N65  1  0.46176524  0.75378686  0.09658092  1
  N  N66  1  0.21959599  0.87176316  0.84994229  1
  N  N67  1  0.09773875  0.75401286  0.59864264  1
  N  N68  1  0.86757673  0.87962710  0.34711009  1
  N  N69  1  0.78079280  0.75838436  0.09936760  1
  N  N70  1  0.57597211  0.86195635  0.85806547  1
  N  N71  1  0.45686988  0.73782730  0.60197658  1
