# generated using pymatgen
data_Sc4Al5N9
_symmetry_space_group_name_H-M   'P 1'
_cell_length_a   10.59351622
_cell_length_b   10.46861343
_cell_length_c   9.01233198
_cell_angle_alpha   89.98141067
_cell_angle_beta   90.27385261
_cell_angle_gamma   60.02773967
_symmetry_Int_Tables_number   1
_chemical_formula_structural   Sc4Al5N9
_chemical_formula_sum   'Sc16 Al20 N36'
_cell_volume   865.78757695
_cell_formula_units_Z   4
loop_
 _symmetry_equiv_pos_site_id
 _symmetry_equiv_pos_as_xyz
  1  'x, y, z'
loop_
 _atom_site_type_symbol
 _atom_site_label
 _atom_site_symmetry_multiplicity
 _atom_site_fract_x
 _atom_site_fract_y
 _atom_site_fract_z
 _atom_site_occupancy
  Sc  Sc0  1  0.09985573  0.10524578  0.34567867  1
  Sc  Sc1  1  0.86789826  0.21431873  0.59572434  1
  Sc  Sc2  1  0.45611630  0.09062097  0.34153419  1
  Sc  Sc3  1  0.09914291  0.10728763  0.85170003  1
  Sc  Sc4  1  0.22627628  0.21388034  0.60138332  1
  Sc  Sc5  1  0.45181794  0.09934198  0.85387284  1
  Sc  Sc6  1  0.10446254  0.43757263  0.34347146  1
  Sc  Sc7  1  0.88590657  0.53984429  0.60571309  1
  Sc  Sc8  1  0.45226187  0.42728146  0.34883343  1
  Sc  Sc9  1  0.10035477  0.75984397  0.34793787  1
  Sc  Sc10  1  0.22261789  0.87138719  0.10076164  1
  Sc  Sc11  1  0.46146239  0.74701968  0.34878076  1
  Sc  Sc12  1  0.09612085  0.76069529  0.85239391  1
  Sc  Sc13  1  0.22213491  0.86718767  0.60017376  1
  Sc  Sc14  1  0.45278532  0.75390104  0.85560264  1
  Sc  Sc15  1  0.57132133  0.86548841  0.60156974  1
  Al  Al16  1  0.21954289  0.21244064  0.09855692  1
  Al  Al17  1  0.77034818  0.09482888  0.83772759  1
  Al  Al18  1  0.56375478  0.20611538  0.08690864  1
  Al  Al19  1  0.77484656  0.09557127  0.32681584  1
  Al  Al20  1  0.87963137  0.20805810  0.08636048  1
  Al  Al21  1  0.56256436  0.20386393  0.58523378  1
  Al  Al22  1  0.22465866  0.53533385  0.10388527  1
  Al  Al23  1  0.77290377  0.42428186  0.85608613  1
  Al  Al24  1  0.56219282  0.53139142  0.09595616  1
  Al  Al25  1  0.11179813  0.43150866  0.86760379  1
  Al  Al26  1  0.22826121  0.53391115  0.62772842  1
  Al  Al27  1  0.77814162  0.42922538  0.31193929  1
  Al  Al28  1  0.88847937  0.54069700  0.08249437  1
  Al  Al29  1  0.44837978  0.41983589  0.86726587  1
  Al  Al30  1  0.55423442  0.52883868  0.63707269  1
  Al  Al31  1  0.78468833  0.76360639  0.84569243  1
  Al  Al32  1  0.87884325  0.87591774  0.57862641  1
  Al  Al33  1  0.56789269  0.86539121  0.08666240  1
  Al  Al34  1  0.77845998  0.75857412  0.32161037  1
  Al  Al35  1  0.87882296  0.87767490  0.08760774  1
  N  N36  1  0.22574964  0.20767616  0.34036339  1
  N  N37  1  0.09749648  0.11445354  0.09888729  1
  N  N38  1  0.86762542  0.20934796  0.86304560  1
  N  N39  1  0.76824727  0.08355648  0.61901760  1
  N  N40  1  0.57588597  0.19862597  0.36237960  1
  N  N41  1  0.45131083  0.09203399  0.09920437  1
  N  N42  1  0.21730029  0.22263582  0.85866021  1
  N  N43  1  0.10147875  0.10416862  0.60064639  1
  N  N44  1  0.86604588  0.21895874  0.34603143  1
  N  N45  1  0.77706405  0.09480793  0.11331456  1
  N  N46  1  0.56739984  0.21245413  0.86864453  1
  N  N47  1  0.45660566  0.10212010  0.60404133  1
  N  N48  1  0.22785586  0.53706902  0.32342170  1
  N  N49  1  0.10848248  0.43182129  0.09104989  1
  N  N50  1  0.89383475  0.54067163  0.86325522  1
  N  N51  1  0.75567478  0.44007865  0.63390007  1
  N  N52  1  0.57901120  0.52316907  0.31736781  1
  N  N53  1  0.44465886  0.42478719  0.09203238  1
  N  N54  1  0.23446470  0.52098727  0.85169382  1
  N  N55  1  0.11688945  0.44264758  0.59652387  1
  N  N56  1  0.87014106  0.54563087  0.34521805  1
  N  N57  1  0.78325877  0.42653291  0.08863698  1
  N  N58  1  0.55945337  0.52025724  0.86393070  1
  N  N59  1  0.44572627  0.42654848  0.60811333  1
  N  N60  1  0.22372047  0.87012080  0.34844671  1
  N  N61  1  0.09607969  0.75728429  0.09828368  1
  N  N62  1  0.86644807  0.88780695  0.87439674  1
  N  N63  1  0.79359924  0.76510723  0.62700570  1
  N  N64  1  0.57839857  0.85971302  0.35415467  1
  N  N65  1  0.46226009  0.75500192  0.09816003  1
  N  N66  1  0.21972305  0.87189847  0.85248619  1
  N  N67  1  0.09873239  0.75317110  0.60217300  1
  N  N68  1  0.86619016  0.88189174  0.35818590  1
  N  N69  1  0.78113168  0.75914479  0.10512042  1
  N  N70  1  0.57696325  0.86200605  0.86082893  1
  N  N71  1  0.45673639  0.73733956  0.60482951  1
