# generated using pymatgen
data_Sc4Al5N9
_symmetry_space_group_name_H-M   'P 1'
_cell_length_a   10.60222060
_cell_length_b   10.47986987
_cell_length_c   8.96798739
_cell_angle_alpha   89.97666178
_cell_angle_beta   90.14166200
_cell_angle_gamma   60.07668107
_symmetry_Int_Tables_number   1
_chemical_formula_structural   Sc4Al5N9
_chemical_formula_sum   'Sc16 Al20 N36'
_cell_volume   863.59734322
_cell_formula_units_Z   4
loop_
 _symmetry_equiv_pos_site_id
 _symmetry_equiv_pos_as_xyz
  1  'x, y, z'
loop_
 _atom_site_type_symbol
 _atom_site_label
 _atom_site_symmetry_multiplicity
 _atom_site_fract_x
 _atom_site_fract_y
 _atom_site_fract_z
 _atom_site_occupancy
  Sc  Sc0  1  0.09974606  0.10554261  0.34553222  1
  Sc  Sc1  1  0.86885959  0.21290473  0.59650214  1
  Sc  Sc2  1  0.45601141  0.09110269  0.34146313  1
  Sc  Sc3  1  0.09886388  0.10751855  0.85241467  1
  Sc  Sc4  1  0.22635090  0.21381650  0.60157225  1
  Sc  Sc5  1  0.45158285  0.09860549  0.85416868  1
  Sc  Sc6  1  0.10422268  0.43777530  0.34305654  1
  Sc  Sc7  1  0.88661807  0.54021476  0.60661231  1
  Sc  Sc8  1  0.45021487  0.42526158  0.34686419  1
  Sc  Sc9  1  0.10016923  0.76010580  0.34765244  1
  Sc  Sc10  1  0.22308347  0.87112070  0.09973038  1
  Sc  Sc11  1  0.45943571  0.75032579  0.34720387  1
  Sc  Sc12  1  0.09620312  0.76102065  0.85244388  1
  Sc  Sc13  1  0.22199448  0.86792307  0.59998807  1
  Sc  Sc14  1  0.45524847  0.74884031  0.85147917  1
  Sc  Sc15  1  0.57169523  0.86609424  0.60129618  1
  Al  Al16  1  0.21922026  0.21297474  0.09806298  1
  Al  Al17  1  0.77069342  0.09498483  0.83985784  1
  Al  Al18  1  0.56355470  0.20713207  0.08514882  1
  Al  Al19  1  0.77446605  0.09522562  0.32751786  1
  Al  Al20  1  0.87809106  0.20981449  0.08923174  1
  Al  Al21  1  0.56281395  0.20349396  0.58746585  1
  Al  Al22  1  0.22515185  0.53533338  0.10082862  1
  Al  Al23  1  0.76999643  0.42554612  0.85171719  1
  Al  Al24  1  0.56236033  0.53012742  0.08979342  1
  Al  Al25  1  0.11140657  0.43133391  0.86659526  1
  Al  Al26  1  0.22813997  0.53447963  0.62770737  1
  Al  Al27  1  0.77697503  0.42958725  0.31850794  1
  Al  Al28  1  0.88706282  0.53992685  0.08500067  1
  Al  Al29  1  0.45168392  0.42088729  0.85696640  1
  Al  Al30  1  0.55790187  0.52996271  0.59993387  1
  Al  Al31  1  0.78404571  0.76319592  0.84834893  1
  Al  Al32  1  0.87902105  0.87580767  0.58026626  1
  Al  Al33  1  0.56810477  0.86419312  0.08772309  1
  Al  Al34  1  0.77891128  0.75867744  0.32179672  1
  Al  Al35  1  0.87890100  0.87774949  0.08855529  1
  N  N36  1  0.22566659  0.20818049  0.34071023  1
  N  N37  1  0.09716517  0.11475970  0.09911318  1
  N  N38  1  0.86704762  0.21105242  0.86393409  1
  N  N39  1  0.76871601  0.08311653  0.61915843  1
  N  N40  1  0.57600808  0.19808171  0.36353507  1
  N  N41  1  0.45100511  0.09260165  0.09897047  1
  N  N42  1  0.21735614  0.22241226  0.85910408  1
  N  N43  1  0.10159394  0.10420110  0.60090714  1
  N  N44  1  0.86629783  0.21768163  0.34560527  1
  N  N45  1  0.77615885  0.09511712  0.11210290  1
  N  N46  1  0.56685619  0.21283125  0.86637289  1
  N  N47  1  0.45638210  0.10190715  0.60407509  1
  N  N48  1  0.22670013  0.53764281  0.32336694  1
  N  N49  1  0.10785415  0.43192590  0.09094990  1
  N  N50  1  0.89223988  0.53898048  0.86441711  1
  N  N51  1  0.75762533  0.43907627  0.63093106  1
  N  N52  1  0.57871969  0.52276653  0.35067655  1
  N  N53  1  0.44763137  0.42498377  0.09458934  1
  N  N54  1  0.23516399  0.52123602  0.85429723  1
  N  N55  1  0.11716797  0.44267909  0.59935517  1
  N  N56  1  0.87035315  0.54630490  0.34509291  1
  N  N57  1  0.77874000  0.42811453  0.09676669  1
  N  N58  1  0.56212738  0.51916282  0.86731577  1
  N  N59  1  0.44530362  0.42697881  0.61067711  1
  N  N60  1  0.22288168  0.87102131  0.34807220  1
  N  N61  1  0.09618006  0.75796548  0.09831252  1
  N  N62  1  0.86669229  0.88751649  0.87389795  1
  N  N63  1  0.79364738  0.76494635  0.62730055  1
  N  N64  1  0.57857439  0.86043601  0.35158255  1
  N  N65  1  0.46445833  0.75012922  0.10019094  1
  N  N66  1  0.22080263  0.87149343  0.85240469  1
  N  N67  1  0.09889654  0.75309370  0.60227224  1
  N  N68  1  0.86629427  0.88184228  0.35733469  1
  N  N69  1  0.78144472  0.75868507  0.10383737  1
  N  N70  1  0.57621363  0.86121158  0.86146040  1
  N  N71  1  0.45585739  0.74076752  0.60272134  1
