# generated using pymatgen
data_Sc4Al5N9
_symmetry_space_group_name_H-M   'P 1'
_cell_length_a   10.62497545
_cell_length_b   10.50353515
_cell_length_c   8.92971994
_cell_angle_alpha   89.95953241
_cell_angle_beta   90.31603369
_cell_angle_gamma   59.98792718
_symmetry_Int_Tables_number   1
_chemical_formula_structural   Sc4Al5N9
_chemical_formula_sum   'Sc16 Al20 N36'
_cell_volume   862.91688689
_cell_formula_units_Z   4
loop_
 _symmetry_equiv_pos_site_id
 _symmetry_equiv_pos_as_xyz
  1  'x, y, z'
loop_
 _atom_site_type_symbol
 _atom_site_label
 _atom_site_symmetry_multiplicity
 _atom_site_fract_x
 _atom_site_fract_y
 _atom_site_fract_z
 _atom_site_occupancy
  Sc  Sc0  1  0.10093484  0.10495729  0.34445064  1
  Sc  Sc1  1  0.86744367  0.21295351  0.59499013  1
  Sc  Sc2  1  0.45670034  0.09250769  0.34297046  1
  Sc  Sc3  1  0.09925599  0.10743916  0.85009826  1
  Sc  Sc4  1  0.22622840  0.21406508  0.60007246  1
  Sc  Sc5  1  0.44985366  0.09740463  0.85695791  1
  Sc  Sc6  1  0.10482545  0.43746608  0.34127153  1
  Sc  Sc7  1  0.88516938  0.54031849  0.60349805  1
  Sc  Sc8  1  0.45413834  0.42390236  0.35047879  1
  Sc  Sc9  1  0.10135413  0.75890945  0.34598001  1
  Sc  Sc10  1  0.22267184  0.87106486  0.09865515  1
  Sc  Sc11  1  0.46108436  0.74651731  0.34722067  1
  Sc  Sc12  1  0.09635518  0.76004293  0.84949809  1
  Sc  Sc13  1  0.22190251  0.86745114  0.59824456  1
  Sc  Sc14  1  0.45310034  0.75342962  0.85350441  1
  Sc  Sc15  1  0.57102406  0.86650864  0.59992433  1
  Al  Al16  1  0.21984420  0.21220693  0.09757873  1
  Al  Al17  1  0.77417726  0.09519368  0.86122624  1
  Al  Al18  1  0.56151051  0.20755385  0.10108850  1
  Al  Al19  1  0.77397913  0.09530579  0.32912266  1
  Al  Al20  1  0.88148510  0.20970401  0.09090698  1
  Al  Al21  1  0.56180816  0.20625736  0.62509707  1
  Al  Al22  1  0.22553145  0.53483329  0.10138321  1
  Al  Al23  1  0.77342219  0.42483385  0.85414678  1
  Al  Al24  1  0.56188209  0.53108009  0.09432711  1
  Al  Al25  1  0.11161226  0.43187777  0.86273363  1
  Al  Al26  1  0.22738889  0.53430285  0.62230141  1
  Al  Al27  1  0.77723851  0.42994247  0.31238686  1
  Al  Al28  1  0.88842521  0.54020360  0.08203992  1
  Al  Al29  1  0.44703493  0.42252975  0.86690100  1
  Al  Al30  1  0.55520764  0.52914399  0.63277776  1
  Al  Al31  1  0.78390775  0.76352376  0.84647353  1
  Al  Al32  1  0.87742308  0.87744429  0.57767128  1
  Al  Al33  1  0.56649799  0.86510572  0.08996955  1
  Al  Al34  1  0.77844295  0.75821949  0.31978918  1
  Al  Al35  1  0.88103001  0.87460148  0.08948702  1
  N  N36  1  0.22576432  0.20823370  0.33896194  1
  N  N37  1  0.09886235  0.11416249  0.09715829  1
  N  N38  1  0.86870172  0.21097712  0.85956285  1
  N  N39  1  0.76592273  0.08573568  0.60098784  1
  N  N40  1  0.57396426  0.19917469  0.32291573  1
  N  N41  1  0.44741872  0.09121849  0.09678382  1
  N  N42  1  0.21661180  0.22290050  0.85589517  1
  N  N43  1  0.10155886  0.10407825  0.59794145  1
  N  N44  1  0.86667916  0.21813117  0.33745410  1
  N  N45  1  0.78054803  0.09350019  0.09867491  1
  N  N46  1  0.56661680  0.21294869  0.85403269  1
  N  N47  1  0.45750339  0.10386033  0.60181039  1
  N  N48  1  0.22945280  0.53572444  0.32506452  1
  N  N49  1  0.10904154  0.43197715  0.08851654  1
  N  N50  1  0.89328485  0.54027895  0.86034938  1
  N  N51  1  0.75609054  0.43953763  0.62745288  1
  N  N52  1  0.57850668  0.52246762  0.31804119  1
  N  N53  1  0.44324766  0.42692214  0.08689518  1
  N  N54  1  0.23411414  0.52131920  0.84788952  1
  N  N55  1  0.11595674  0.44261382  0.59638275  1
  N  N56  1  0.87050751  0.54561012  0.34061100  1
  N  N57  1  0.78254954  0.42753291  0.08672256  1
  N  N58  1  0.56049023  0.52012266  0.86043889  1
  N  N59  1  0.44676160  0.42589947  0.60622889  1
  N  N60  1  0.22361161  0.86999741  0.34650582  1
  N  N61  1  0.09781065  0.75530598  0.09604024  1
  N  N62  1  0.86734825  0.88647016  0.86909714  1
  N  N63  1  0.79271844  0.76549549  0.62150292  1
  N  N64  1  0.57772213  0.86018289  0.34747518  1
  N  N65  1  0.46180559  0.75378989  0.09663268  1
  N  N66  1  0.21968262  0.87174363  0.84997413  1
  N  N67  1  0.09780681  0.75401264  0.59874594  1
  N  N68  1  0.86712538  0.88064604  0.34863361  1
  N  N69  1  0.78088983  0.75852572  0.09989990  1
  N  N70  1  0.57614265  0.86183240  0.85813668  1
  N  N71  1  0.45687270  0.73780835  0.60200791  1
