# generated using pymatgen
data_Sc4Al5N9
_symmetry_space_group_name_H-M   'P 1'
_cell_length_a   10.56951758
_cell_length_b   10.45439052
_cell_length_c   9.07034838
_cell_angle_alpha   89.98763234
_cell_angle_beta   90.17177482
_cell_angle_gamma   59.96428038
_symmetry_Int_Tables_number   1
_chemical_formula_structural   Sc4Al5N9
_chemical_formula_sum   'Sc16 Al20 N36'
_cell_volume   867.65934458
_cell_formula_units_Z   4
loop_
 _symmetry_equiv_pos_site_id
 _symmetry_equiv_pos_as_xyz
  1  'x, y, z'
loop_
 _atom_site_type_symbol
 _atom_site_label
 _atom_site_symmetry_multiplicity
 _atom_site_fract_x
 _atom_site_fract_y
 _atom_site_fract_z
 _atom_site_occupancy
  Sc  Sc0  1  0.09983906  0.10466385  0.34652543  1
  Sc  Sc1  1  0.86788921  0.21491474  0.59879172  1
  Sc  Sc2  1  0.45540360  0.09454166  0.34662623  1
  Sc  Sc3  1  0.09970953  0.10739661  0.85264999  1
  Sc  Sc4  1  0.22590401  0.21517636  0.60295822  1
  Sc  Sc5  1  0.45168801  0.09503287  0.85898606  1
  Sc  Sc6  1  0.10510712  0.43778949  0.34292878  1
  Sc  Sc7  1  0.88762377  0.54028017  0.61037918  1
  Sc  Sc8  1  0.45383056  0.42450902  0.35226870  1
  Sc  Sc9  1  0.09890816  0.76038228  0.35360864  1
  Sc  Sc10  1  0.22216088  0.87062391  0.10127505  1
  Sc  Sc11  1  0.45987552  0.74521968  0.34996816  1
  Sc  Sc12  1  0.09834060  0.75843306  0.85447437  1
  Sc  Sc13  1  0.22220406  0.86741629  0.60161203  1
  Sc  Sc14  1  0.45467828  0.75520400  0.85680000  1
  Sc  Sc15  1  0.57142610  0.86579455  0.60108941  1
  Al  Al16  1  0.22093380  0.21056317  0.10359503  1
  Al  Al17  1  0.77298895  0.09580001  0.87287076  1
  Al  Al18  1  0.56395909  0.20467429  0.10877266  1
  Al  Al19  1  0.77221580  0.09325605  0.35941919  1
  Al  Al20  1  0.88073458  0.20691184  0.09498433  1
  Al  Al21  1  0.56114621  0.20747733  0.62704324  1
  Al  Al22  1  0.22532623  0.53531190  0.10591631  1
  Al  Al23  1  0.77284292  0.42416538  0.85620650  1
  Al  Al24  1  0.56138704  0.53096716  0.09470029  1
  Al  Al25  1  0.11248836  0.43142170  0.87341122  1
  Al  Al26  1  0.22847287  0.53332450  0.62764122  1
  Al  Al27  1  0.77752364  0.42849057  0.30786110  1
  Al  Al28  1  0.88750505  0.54185172  0.09337910  1
  Al  Al29  1  0.44759251  0.42039163  0.87210292  1
  Al  Al30  1  0.55376137  0.52973310  0.63780928  1
  Al  Al31  1  0.78112022  0.76386093  0.87731826  1
  Al  Al32  1  0.87768992  0.87753125  0.61863807  1
  Al  Al33  1  0.56695003  0.86559103  0.11450260  1
  Al  Al34  1  0.78189504  0.76030599  0.35422482  1
  Al  Al35  1  0.87948892  0.87689463  0.11622593  1
  N  N36  1  0.22516170  0.20768921  0.33669341  1
  N  N37  1  0.09826370  0.11371850  0.09800648  1
  N  N38  1  0.86893081  0.20954876  0.85467510  1
  N  N39  1  0.76480391  0.08683723  0.57846726  1
  N  N40  1  0.57462124  0.19912646  0.31944934  1
  N  N41  1  0.44851672  0.09067248  0.09733465  1
  N  N42  1  0.21696306  0.22332924  0.85372976  1
  N  N43  1  0.10164925  0.10443836  0.59837060  1
  N  N44  1  0.86507041  0.21756512  0.33592206  1
  N  N45  1  0.77931231  0.09164729  0.08475231  1
  N  N46  1  0.56732183  0.21234289  0.84432114  1
  N  N47  1  0.45749683  0.10391798  0.59924008  1
  N  N48  1  0.22905867  0.53783328  0.31967259  1
  N  N49  1  0.11046788  0.43052271  0.09006002  1
  N  N50  1  0.89471915  0.54460775  0.86058808  1
  N  N51  1  0.75582458  0.44186583  0.63152439  1
  N  N52  1  0.57824927  0.52227880  0.31289801  1
  N  N53  1  0.44436965  0.42413319  0.08606989  1
  N  N54  1  0.23527792  0.51917380  0.84665108  1
  N  N55  1  0.11706578  0.44342258  0.58827725  1
  N  N56  1  0.87057841  0.54461425  0.32778032  1
  N  N57  1  0.78257454  0.42548932  0.08316017  1
  N  N58  1  0.55862839  0.52077653  0.86064453  1
  N  N59  1  0.44645202  0.42692588  0.60152017  1
  N  N60  1  0.22286644  0.86962811  0.34766819  1
  N  N61  1  0.09506506  0.75672081  0.09373029  1
  N  N62  1  0.86391248  0.88653874  0.83472216  1
  N  N63  1  0.79432944  0.76354714  0.57117681  1
  N  N64  1  0.57568170  0.86105969  0.33842106  1
  N  N65  1  0.46237658  0.75455033  0.09686041  1
  N  N66  1  0.22053658  0.87160204  0.85183558  1
  N  N67  1  0.09942922  0.75276750  0.60278441  1
  N  N68  1  0.86872477  0.88373061  0.32708358  1
  N  N69  1  0.77944544  0.76277551  0.09078228  1
  N  N70  1  0.57923006  0.86058513  0.84316687  1
  N  N71  1  0.45669941  0.73761081  0.60151312  1
