# generated using pymatgen
data_Sc4Al5N9
_symmetry_space_group_name_H-M   'P 1'
_cell_length_a   10.53520961
_cell_length_b   10.42187913
_cell_length_c   9.13529787
_cell_angle_alpha   89.98305652
_cell_angle_beta   90.10868635
_cell_angle_gamma   60.10026606
_symmetry_Int_Tables_number   1
_chemical_formula_structural   Sc4Al5N9
_chemical_formula_sum   'Sc16 Al20 N36'
_cell_volume   869.51931369
_cell_formula_units_Z   4
loop_
 _symmetry_equiv_pos_site_id
 _symmetry_equiv_pos_as_xyz
  1  'x, y, z'
loop_
 _atom_site_type_symbol
 _atom_site_label
 _atom_site_symmetry_multiplicity
 _atom_site_fract_x
 _atom_site_fract_y
 _atom_site_fract_z
 _atom_site_occupancy
  Sc  Sc0  1  0.09889302  0.10558880  0.34464648  1
  Sc  Sc1  1  0.86909647  0.21256524  0.59511829  1
  Sc  Sc2  1  0.45700568  0.08990535  0.33923705  1
  Sc  Sc3  1  0.09914041  0.10743851  0.85166204  1
  Sc  Sc4  1  0.22609838  0.21457177  0.60074786  1
  Sc  Sc5  1  0.45071153  0.09933732  0.85287991  1
  Sc  Sc6  1  0.10336127  0.43796502  0.34303402  1
  Sc  Sc7  1  0.88769511  0.54023648  0.60466254  1
  Sc  Sc8  1  0.45059043  0.42437654  0.34570170  1
  Sc  Sc9  1  0.09985560  0.76089883  0.34696400  1
  Sc  Sc10  1  0.22364812  0.87091430  0.09872523  1
  Sc  Sc11  1  0.45991709  0.75107397  0.34504721  1
  Sc  Sc12  1  0.09638256  0.76072410  0.85265024  1
  Sc  Sc13  1  0.22204752  0.86785017  0.59905035  1
  Sc  Sc14  1  0.45562762  0.74682305  0.84779238  1
  Sc  Sc15  1  0.57127357  0.86662462  0.60067832  1
  Al  Al16  1  0.21970850  0.21180416  0.09974349  1
  Al  Al17  1  0.77025217  0.09476810  0.83583943  1
  Al  Al18  1  0.56325676  0.20909041  0.07988813  1
  Al  Al19  1  0.77437208  0.09595706  0.32543592  1
  Al  Al20  1  0.87730922  0.21078146  0.08423904  1
  Al  Al21  1  0.56344563  0.20242930  0.58360056  1
  Al  Al22  1  0.22645743  0.53563253  0.10470493  1
  Al  Al23  1  0.76919157  0.42601574  0.84523358  1
  Al  Al24  1  0.56233918  0.52858704  0.08098100  1
  Al  Al25  1  0.11158500  0.43119499  0.87361937  1
  Al  Al26  1  0.22690925  0.53504048  0.62878013  1
  Al  Al27  1  0.77623556  0.42952332  0.31882192  1
  Al  Al28  1  0.88500249  0.54060590  0.08288272  1
  Al  Al29  1  0.45271437  0.42069015  0.84402058  1
  Al  Al30  1  0.56050093  0.53029970  0.58415652  1
  Al  Al31  1  0.78467027  0.76327012  0.84345405  1
  Al  Al32  1  0.87928895  0.87570992  0.57699155  1
  Al  Al33  1  0.56858755  0.86327466  0.07970707  1
  Al  Al34  1  0.77785598  0.75896995  0.32079853  1
  Al  Al35  1  0.87809482  0.87811836  0.08629549  1
  N  N36  1  0.22614164  0.20730911  0.34016154  1
  N  N37  1  0.09628982  0.11529019  0.09888343  1
  N  N38  1  0.86621543  0.21194303  0.86561671  1
  N  N39  1  0.76887263  0.08217195  0.62362834  1
  N  N40  1  0.57673075  0.19708754  0.36974204  1
  N  N41  1  0.45113260  0.09168167  0.09828682  1
  N  N42  1  0.21643973  0.22348018  0.85795398  1
  N  N43  1  0.10189789  0.10379608  0.60192022  1
  N  N44  1  0.86563094  0.21781290  0.35213245  1
  N  N45  1  0.77563312  0.09619900  0.11579743  1
  N  N46  1  0.56670471  0.21364675  0.86928045  1
  N  N47  1  0.45601301  0.10249644  0.60699609  1
  N  N48  1  0.22629150  0.53840489  0.32115067  1
  N  N49  1  0.10795971  0.43172114  0.09190951  1
  N  N50  1  0.89186253  0.53892099  0.86614687  1
  N  N51  1  0.75797900  0.43919474  0.63477351  1
  N  N52  1  0.57951703  0.52260136  0.36775835  1
  N  N53  1  0.44872425  0.42518470  0.10096492  1
  N  N54  1  0.23553642  0.52027426  0.85166011  1
  N  N55  1  0.11762361  0.44312240  0.59179286  1
  N  N56  1  0.86893453  0.54708984  0.35032763  1
  N  N57  1  0.77721473  0.42837563  0.10378092  1
  N  N58  1  0.56303266  0.51757649  0.87187695  1
  N  N59  1  0.44614015  0.42689261  0.61296521  1
  N  N60  1  0.22335553  0.87110639  0.34720955  1
  N  N61  1  0.09626648  0.75784691  0.09803706  1
  N  N62  1  0.86569716  0.88818728  0.87816899  1
  N  N63  1  0.79465783  0.76531806  0.63159829  1
  N  N64  1  0.57879392  0.86052274  0.36010956  1
  N  N65  1  0.46666315  0.74787510  0.10061409  1
  N  N66  1  0.22114195  0.87110799  0.85330734  1
  N  N67  1  0.09867851  0.75341909  0.60270824  1
  N  N68  1  0.86553104  0.88249662  0.36089707  1
  N  N69  1  0.78034299  0.75892816  0.10836847  1
  N  N70  1  0.57657006  0.86039228  0.86194615  1
  N  N71  1  0.45528653  0.74137814  0.60414587  1
