# generated using pymatgen
data_Sc4Al5N9
_symmetry_space_group_name_H-M   'P 1'
_cell_length_a   10.54582381
_cell_length_b   10.43438132
_cell_length_c   9.13154395
_cell_angle_alpha   89.99299692
_cell_angle_beta   90.18123066
_cell_angle_gamma   59.96116326
_symmetry_Int_Tables_number   1
_chemical_formula_structural   Sc4Al5N9
_chemical_formula_sum   'Sc16 Al20 N36'
_cell_volume   869.85918441
_cell_formula_units_Z   4
loop_
 _symmetry_equiv_pos_site_id
 _symmetry_equiv_pos_as_xyz
  1  'x, y, z'
loop_
 _atom_site_type_symbol
 _atom_site_label
 _atom_site_symmetry_multiplicity
 _atom_site_fract_x
 _atom_site_fract_y
 _atom_site_fract_z
 _atom_site_occupancy
  Sc  Sc0  1  0.09952867  0.10443227  0.35210418  1
  Sc  Sc1  1  0.86782039  0.21539693  0.60455401  1
  Sc  Sc2  1  0.45549556  0.09466784  0.35296559  1
  Sc  Sc3  1  0.10004893  0.10748584  0.85817483  1
  Sc  Sc4  1  0.22568356  0.21566751  0.60867357  1
  Sc  Sc5  1  0.45164331  0.09485945  0.86456250  1
  Sc  Sc6  1  0.10476423  0.43803819  0.34835251  1
  Sc  Sc7  1  0.88844938  0.54032724  0.61802746  1
  Sc  Sc8  1  0.45422643  0.42444149  0.35814038  1
  Sc  Sc9  1  0.09886999  0.76037954  0.35966518  1
  Sc  Sc10  1  0.22209497  0.87049093  0.10663710  1
  Sc  Sc11  1  0.45978113  0.74487549  0.35574610  1
  Sc  Sc12  1  0.09851819  0.75800272  0.85987257  1
  Sc  Sc13  1  0.22211470  0.86742550  0.60733440  1
  Sc  Sc14  1  0.45479800  0.75564738  0.86249638  1
  Sc  Sc15  1  0.57139349  0.86565884  0.60631439  1
  Al  Al16  1  0.22149913  0.20982645  0.11217169  1
  Al  Al17  1  0.77274614  0.09583535  0.87824634  1
  Al  Al18  1  0.56418772  0.20410507  0.11556097  1
  Al  Al19  1  0.77229085  0.09319112  0.36665833  1
  Al  Al20  1  0.88089041  0.20650764  0.09952168  1
  Al  Al21  1  0.56088749  0.20784125  0.63282492  1
  Al  Al22  1  0.22535964  0.53544778  0.11300555  1
  Al  Al23  1  0.77278306  0.42403773  0.86155498  1
  Al  Al24  1  0.56112591  0.53120720  0.09980929  1
  Al  Al25  1  0.11330048  0.43089356  0.88152239  1
  Al  Al26  1  0.22875956  0.53290929  0.63329285  1
  Al  Al27  1  0.77775404  0.42837724  0.31088409  1
  Al  Al28  1  0.88728471  0.54253291  0.09879902  1
  Al  Al29  1  0.44731706  0.41998220  0.87911529  1
  Al  Al30  1  0.55329246  0.52975776  0.64466835  1
  Al  Al31  1  0.78065251  0.76468076  0.88318211  1
  Al  Al32  1  0.87782755  0.87744603  0.62499624  1
  Al  Al33  1  0.56695327  0.86575757  0.12274482  1
  Al  Al34  1  0.78228841  0.76009187  0.36113844  1
  Al  Al35  1  0.87925770  0.87707042  0.12236374  1
  N  N36  1  0.22509401  0.20742274  0.34038027  1
  N  N37  1  0.09834287  0.11367765  0.10301356  1
  N  N38  1  0.86910291  0.20936379  0.85914288  1
  N  N39  1  0.76484050  0.08677792  0.58274624  1
  N  N40  1  0.57505466  0.19885986  0.32373875  1
  N  N41  1  0.44866250  0.09040833  0.10249882  1
  N  N42  1  0.21695988  0.22366816  0.85634830  1
  N  N43  1  0.10164608  0.10445361  0.60298890  1
  N  N44  1  0.86472134  0.21772468  0.34102614  1
  N  N45  1  0.77911071  0.09160136  0.08811452  1
  N  N46  1  0.56709128  0.21250877  0.84757602  1
  N  N47  1  0.45743349  0.10407267  0.60322050  1
  N  N48  1  0.22926015  0.53800032  0.32379702  1
  N  N49  1  0.11131531  0.42985563  0.09547493  1
  N  N50  1  0.89559238  0.54489056  0.86596053  1
  N  N51  1  0.75578235  0.44250296  0.63849199  1
  N  N52  1  0.57819444  0.52236707  0.31580096  1
  N  N53  1  0.44423417  0.42365492  0.09093915  1
  N  N54  1  0.23558054  0.51845619  0.85001883  1
  N  N55  1  0.11721829  0.44376525  0.58984343  1
  N  N56  1  0.87014868  0.54527875  0.33023773  1
  N  N57  1  0.78268949  0.42521076  0.08740414  1
  N  N58  1  0.55798450  0.52087695  0.86587145  1
  N  N59  1  0.44666890  0.42698361  0.60464689  1
  N  N60  1  0.22282549  0.86945685  0.35246283  1
  N  N61  1  0.09497422  0.75638600  0.09820114  1
  N  N62  1  0.86380621  0.88673360  0.83835486  1
  N  N63  1  0.79490599  0.76329590  0.57486297  1
  N  N64  1  0.57582219  0.86090263  0.34342903  1
  N  N65  1  0.46254806  0.75496581  0.10163482  1
  N  N66  1  0.22054441  0.87157652  0.85701763  1
  N  N67  1  0.09947863  0.75268299  0.60795161  1
  N  N68  1  0.86850487  0.88395750  0.33101214  1
  N  N69  1  0.77866532  0.76374374  0.09423847  1
  N  N70  1  0.57939117  0.86065930  0.84499523  1
  N  N71  1  0.45653918  0.73735856  0.60627887  1
