# generated using pymatgen
data_Sc4Al5N9
_symmetry_space_group_name_H-M   'P 1'
_cell_length_a   10.61864700
_cell_length_b   10.49478668
_cell_length_c   8.94795866
_cell_angle_alpha   89.98666684
_cell_angle_beta   90.36111369
_cell_angle_gamma   60.00325778
_symmetry_Int_Tables_number   1
_chemical_formula_structural   Sc4Al5N9
_chemical_formula_sum   'Sc16 Al20 N36'
_cell_volume   863.57431094
_cell_formula_units_Z   4
loop_
 _symmetry_equiv_pos_site_id
 _symmetry_equiv_pos_as_xyz
  1  'x, y, z'
loop_
 _atom_site_type_symbol
 _atom_site_label
 _atom_site_symmetry_multiplicity
 _atom_site_fract_x
 _atom_site_fract_y
 _atom_site_fract_z
 _atom_site_occupancy
  Sc  Sc0  1  0.10064263  0.10500597  0.34419381  1
  Sc  Sc1  1  0.86704670  0.21302078  0.59436386  1
  Sc  Sc2  1  0.45719891  0.09262471  0.34286275  1
  Sc  Sc3  1  0.09940295  0.10742801  0.84959578  1
  Sc  Sc4  1  0.22613596  0.21415948  0.59984230  1
  Sc  Sc5  1  0.44929005  0.09721820  0.85728597  1
  Sc  Sc6  1  0.10486290  0.43743409  0.34139164  1
  Sc  Sc7  1  0.88521419  0.54002448  0.60294037  1
  Sc  Sc8  1  0.45463943  0.42341707  0.35032010  1
  Sc  Sc9  1  0.10069532  0.75953557  0.34635745  1
  Sc  Sc10  1  0.22269180  0.87110389  0.09866168  1
  Sc  Sc11  1  0.46115248  0.74648019  0.34727670  1
  Sc  Sc12  1  0.09713271  0.75946099  0.84923779  1
  Sc  Sc13  1  0.22202525  0.86743996  0.59818576  1
  Sc  Sc14  1  0.45323213  0.75340395  0.85366754  1
  Sc  Sc15  1  0.57083819  0.86661904  0.59988754  1
  Al  Al16  1  0.21987078  0.21203645  0.09796634  1
  Al  Al17  1  0.77415933  0.09416443  0.85242805  1
  Al  Al18  1  0.56152798  0.20752058  0.09861693  1
  Al  Al19  1  0.77521487  0.09500623  0.32000845  1
  Al  Al20  1  0.88175249  0.20937711  0.08701537  1
  Al  Al21  1  0.56070825  0.20714311  0.62679752  1
  Al  Al22  1  0.22526255  0.53521144  0.10256347  1
  Al  Al23  1  0.77349883  0.42498826  0.85384614  1
  Al  Al24  1  0.56178590  0.53130389  0.09455223  1
  Al  Al25  1  0.11153812  0.43196043  0.86344783  1
  Al  Al26  1  0.22736880  0.53428605  0.62219575  1
  Al  Al27  1  0.77743299  0.42941906  0.31157394  1
  Al  Al28  1  0.88832994  0.54057005  0.08226503  1
  Al  Al29  1  0.44631487  0.42309017  0.86810107  1
  Al  Al30  1  0.55505210  0.52903037  0.63335387  1
  Al  Al31  1  0.78424207  0.76276739  0.84498711  1
  Al  Al32  1  0.87685213  0.87840899  0.57856707  1
  Al  Al33  1  0.56680681  0.86504038  0.08991246  1
  Al  Al34  1  0.77846734  0.75903152  0.32071065  1
  Al  Al35  1  0.88129955  0.87421205  0.08593703  1
  N  N36  1  0.22593580  0.20805672  0.33893931  1
  N  N37  1  0.09874068  0.11423941  0.09697575  1
  N  N38  1  0.86897219  0.21124146  0.85979400  1
  N  N39  1  0.76577348  0.08555971  0.61497976  1
  N  N40  1  0.57542155  0.19851258  0.32220101  1
  N  N41  1  0.44713257  0.09091366  0.09689147  1
  N  N42  1  0.21634259  0.22314971  0.85565770  1
  N  N43  1  0.10132857  0.10417016  0.59778556  1
  N  N44  1  0.86628144  0.21752546  0.33882844  1
  N  N45  1  0.78160059  0.09252807  0.09759545  1
  N  N46  1  0.56513321  0.21358914  0.85673799  1
  N  N47  1  0.45744341  0.10411782  0.60202441  1
  N  N48  1  0.22942152  0.53602039  0.32537052  1
  N  N49  1  0.10909258  0.43202507  0.08872195  1
  N  N50  1  0.89314633  0.54040944  0.86058181  1
  N  N51  1  0.75597867  0.43946268  0.62803908  1
  N  N52  1  0.57866199  0.52239605  0.31770175  1
  N  N53  1  0.44266257  0.42773110  0.08741470  1
  N  N54  1  0.23402963  0.52120039  0.84746635  1
  N  N55  1  0.11586956  0.44265435  0.59569458  1
  N  N56  1  0.87049277  0.54557197  0.34086212  1
  N  N57  1  0.78267256  0.42734985  0.08686070  1
  N  N58  1  0.56037599  0.52007316  0.86061763  1
  N  N59  1  0.44677026  0.42574184  0.60598335  1
  N  N60  1  0.22355915  0.87006141  0.34643890  1
  N  N61  1  0.09751090  0.75545069  0.09629321  1
  N  N62  1  0.86829461  0.88467111  0.86895579  1
  N  N63  1  0.79268991  0.76529788  0.62120480  1
  N  N64  1  0.57763899  0.86035024  0.34826495  1
  N  N65  1  0.46197974  0.75384962  0.09668937  1
  N  N66  1  0.21996075  0.87171565  0.85006978  1
  N  N67  1  0.09805963  0.75402147  0.59901284  1
  N  N68  1  0.86620517  0.88285019  0.35228224  1
  N  N69  1  0.78111365  0.75891825  0.10147373  1
  N  N70  1  0.57667703  0.86149202  0.85828889  1
  N  N71  1  0.45691686  0.73767817  0.60215366  1
