# generated using pymatgen
data_Sc4Al5N9
_symmetry_space_group_name_H-M   'P 1'
_cell_length_a   10.60564114
_cell_length_b   10.48195009
_cell_length_c   8.96488138
_cell_angle_alpha   89.97468243
_cell_angle_beta   90.18349373
_cell_angle_gamma   60.07275032
_symmetry_Int_Tables_number   1
_chemical_formula_structural   Sc4Al5N9
_chemical_formula_sum   'Sc16 Al20 N36'
_cell_volume   863.71143813
_cell_formula_units_Z   4
loop_
 _symmetry_equiv_pos_site_id
 _symmetry_equiv_pos_as_xyz
  1  'x, y, z'
loop_
 _atom_site_type_symbol
 _atom_site_label
 _atom_site_symmetry_multiplicity
 _atom_site_fract_x
 _atom_site_fract_y
 _atom_site_fract_z
 _atom_site_occupancy
  Sc  Sc0  1  0.09990470  0.10542823  0.34561283  1
  Sc  Sc1  1  0.86863351  0.21317086  0.59630612  1
  Sc  Sc2  1  0.45600139  0.09110621  0.34163852  1
  Sc  Sc3  1  0.09888804  0.10749110  0.85227898  1
  Sc  Sc4  1  0.22633856  0.21380721  0.60153770  1
  Sc  Sc5  1  0.45165298  0.09869611  0.85417856  1
  Sc  Sc6  1  0.10448683  0.43772249  0.34305765  1
  Sc  Sc7  1  0.88634241  0.54016416  0.60629212  1
  Sc  Sc8  1  0.45109051  0.42612236  0.34822562  1
  Sc  Sc9  1  0.10032670  0.75991297  0.34771771  1
  Sc  Sc10  1  0.22291351  0.87130024  0.10025534  1
  Sc  Sc11  1  0.46026233  0.74870160  0.34822935  1
  Sc  Sc12  1  0.09612572  0.76103449  0.85249823  1
  Sc  Sc13  1  0.22204610  0.86773485  0.60013074  1
  Sc  Sc14  1  0.45416389  0.75122967  0.85390007  1
  Sc  Sc15  1  0.57170617  0.86580298  0.60141388  1
  Al  Al16  1  0.21924496  0.21296526  0.09811188  1
  Al  Al17  1  0.77073413  0.09485683  0.83971515  1
  Al  Al18  1  0.56350017  0.20687313  0.08586012  1
  Al  Al19  1  0.77445051  0.09533427  0.32745313  1
  Al  Al20  1  0.87856940  0.20936602  0.08887352  1
  Al  Al21  1  0.56282993  0.20342260  0.58755913  1
  Al  Al22  1  0.22512641  0.53521913  0.10128134  1
  Al  Al23  1  0.77157721  0.42498274  0.85411149  1
  Al  Al24  1  0.56260076  0.53054024  0.09589131  1
  Al  Al25  1  0.11141554  0.43140980  0.86635653  1
  Al  Al26  1  0.22800036  0.53445770  0.62765393  1
  Al  Al27  1  0.77740074  0.42942335  0.31702785  1
  Al  Al28  1  0.88758493  0.53994009  0.08456166  1
  Al  Al29  1  0.45034182  0.42038798  0.86148957  1
  Al  Al30  1  0.55578815  0.52971369  0.62197305  1
  Al  Al31  1  0.78418412  0.76326849  0.84815907  1
  Al  Al32  1  0.87899542  0.87581867  0.58006775  1
  Al  Al33  1  0.56793958  0.86465739  0.08828475  1
  Al  Al34  1  0.77884242  0.75861874  0.32177141  1
  Al  Al35  1  0.87893995  0.87769512  0.08860403  1
  N  N36  1  0.22567680  0.20814832  0.34057057  1
  N  N37  1  0.09729830  0.11465687  0.09905262  1
  N  N38  1  0.86728218  0.21049374  0.86327150  1
  N  N39  1  0.76870112  0.08315074  0.61875790  1
  N  N40  1  0.57591358  0.19838291  0.36300517  1
  N  N41  1  0.45111437  0.09259829  0.09904465  1
  N  N42  1  0.21737482  0.22243768  0.85903190  1
  N  N43  1  0.10159786  0.10419903  0.60072624  1
  N  N44  1  0.86634455  0.21794838  0.34507910  1
  N  N45  1  0.77628038  0.09508626  0.11195082  1
  N  N46  1  0.56703633  0.21256918  0.86624404  1
  N  N47  1  0.45642746  0.10181607  0.60388380  1
  N  N48  1  0.22728833  0.53737479  0.32339998  1
  N  N49  1  0.10798619  0.43195599  0.09082575  1
  N  N50  1  0.89262559  0.53937959  0.86375064  1
  N  N51  1  0.75702646  0.43931283  0.62997256  1
  N  N52  1  0.57840926  0.52309977  0.33128413  1
  N  N53  1  0.44665319  0.42483642  0.09250918  1
  N  N54  1  0.23475350  0.52135465  0.85363893  1
  N  N55  1  0.11704746  0.44264261  0.59901254  1
  N  N56  1  0.87049358  0.54602653  0.34453263  1
  N  N57  1  0.78064046  0.42737038  0.09272989  1
  N  N58  1  0.56122316  0.51967775  0.86274192  1
  N  N59  1  0.44520254  0.42686017  0.60979941  1
  N  N60  1  0.22314391  0.87074649  0.34828652  1
  N  N61  1  0.09617031  0.75781012  0.09829692  1
  N  N62  1  0.86673536  0.88748971  0.87372252  1
  N  N63  1  0.79358469  0.76495168  0.62682234  1
  N  N64  1  0.57849584  0.86019899  0.35152222  1
  N  N65  1  0.46332707  0.75222520  0.09912528  1
  N  N66  1  0.22039697  0.87175975  0.85231348  1
  N  N67  1  0.09885744  0.75312884  0.60218086  1
  N  N68  1  0.86634345  0.88180819  0.35709880  1
  N  N69  1  0.78142422  0.75873203  0.10368922  1
  N  N70  1  0.57644739  0.86157695  0.86115611  1
  N  N71  1  0.45635170  0.73932636  0.60330809  1
