# generated using pymatgen
data_Sc4Al5N9
_symmetry_space_group_name_H-M   'P 1'
_cell_length_a   10.42882051
_cell_length_b   10.32867456
_cell_length_c   9.43605052
_cell_angle_alpha   89.93837187
_cell_angle_beta   90.14300837
_cell_angle_gamma   60.10186292
_symmetry_Int_Tables_number   1
_chemical_formula_structural   Sc4Al5N9
_chemical_formula_sum   'Sc16 Al20 N36'
_cell_volume   881.13535984
_cell_formula_units_Z   4
loop_
 _symmetry_equiv_pos_site_id
 _symmetry_equiv_pos_as_xyz
  1  'x, y, z'
loop_
 _atom_site_type_symbol
 _atom_site_label
 _atom_site_symmetry_multiplicity
 _atom_site_fract_x
 _atom_site_fract_y
 _atom_site_fract_z
 _atom_site_occupancy
  Sc  Sc0  1  0.09953088  0.10599855  0.33920258  1
  Sc  Sc1  1  0.86964148  0.21200865  0.59019243  1
  Sc  Sc2  1  0.45618273  0.08940588  0.33107011  1
  Sc  Sc3  1  0.09853283  0.10620772  0.84717377  1
  Sc  Sc4  1  0.22693635  0.21372491  0.59702670  1
  Sc  Sc5  1  0.45214934  0.09962944  0.84974156  1
  Sc  Sc6  1  0.10297425  0.43487482  0.34376137  1
  Sc  Sc7  1  0.88738802  0.54077888  0.59867806  1
  Sc  Sc8  1  0.45232229  0.42318908  0.34682947  1
  Sc  Sc9  1  0.09828044  0.76260225  0.34642020  1
  Sc  Sc10  1  0.22402133  0.87046149  0.09620060  1
  Sc  Sc11  1  0.46092432  0.75151862  0.34029738  1
  Sc  Sc12  1  0.09795555  0.75861844  0.85230318  1
  Sc  Sc13  1  0.22199869  0.86755101  0.59587357  1
  Sc  Sc14  1  0.45556692  0.74577405  0.84448229  1
  Sc  Sc15  1  0.56944267  0.86831139  0.59802054  1
  Al  Al16  1  0.21988856  0.21142050  0.07962119  1
  Al  Al17  1  0.76967688  0.09534120  0.83125143  1
  Al  Al18  1  0.56229291  0.21283450  0.07475406  1
  Al  Al19  1  0.77453651  0.09609141  0.32250476  1
  Al  Al20  1  0.87685972  0.21220081  0.07696856  1
  Al  Al21  1  0.56495649  0.19978603  0.57845476  1
  Al  Al22  1  0.22734621  0.53568322  0.11695205  1
  Al  Al23  1  0.76849990  0.42621240  0.83783188  1
  Al  Al24  1  0.56212049  0.52705320  0.07609919  1
  Al  Al25  1  0.11182018  0.43382433  0.87752800  1
  Al  Al26  1  0.22438965  0.53598637  0.62802884  1
  Al  Al27  1  0.77618233  0.42945600  0.31770902  1
  Al  Al28  1  0.88302712  0.54215518  0.07759204  1
  Al  Al29  1  0.45375509  0.41997349  0.82760240  1
  Al  Al30  1  0.56156382  0.53123867  0.57874846  1
  Al  Al31  1  0.78520732  0.76342264  0.83515678  1
  Al  Al32  1  0.87949463  0.87609554  0.57406585  1
  Al  Al33  1  0.56960585  0.86196268  0.07074451  1
  Al  Al34  1  0.77665102  0.75981375  0.32058895  1
  Al  Al35  1  0.87714009  0.87782895  0.08142870  1
  N  N36  1  0.22815366  0.20442892  0.35896147  1
  N  N37  1  0.09668685  0.11660019  0.09871496  1
  N  N38  1  0.86497816  0.21320754  0.86930698  1
  N  N39  1  0.76915260  0.08171651  0.62926555  1
  N  N40  1  0.57754153  0.19439143  0.37621128  1
  N  N41  1  0.44884955  0.09214818  0.09644434  1
  N  N42  1  0.21523407  0.22465464  0.86311732  1
  N  N43  1  0.10190009  0.10239069  0.60898512  1
  N  N44  1  0.86571558  0.21759093  0.35966887  1
  N  N45  1  0.77568830  0.09679085  0.12049612  1
  N  N46  1  0.56685942  0.21610444  0.87439740  1
  N  N47  1  0.45714060  0.10321026  0.61722390  1
  N  N48  1  0.22512966  0.53854081  0.32266669  1
  N  N49  1  0.10943652  0.43168286  0.09236297  1
  N  N50  1  0.89102926  0.54024981  0.86869315  1
  N  N51  1  0.75773639  0.43890142  0.63864000  1
  N  N52  1  0.58029295  0.52352996  0.37537282  1
  N  N53  1  0.44873606  0.42590570  0.11245638  1
  N  N54  1  0.23676144  0.51856984  0.84082368  1
  N  N55  1  0.11688199  0.44335653  0.58510680  1
  N  N56  1  0.86729382  0.54803912  0.35854372  1
  N  N57  1  0.77714489  0.42855586  0.11122804  1
  N  N58  1  0.56321194  0.51544334  0.87610203  1
  N  N59  1  0.44844970  0.42571358  0.61266965  1
  N  N60  1  0.22387869  0.87114803  0.34675664  1
  N  N61  1  0.09663616  0.75587468  0.09816852  1
  N  N62  1  0.86444601  0.88870524  0.88205696  1
  N  N63  1  0.79476442  0.76640234  0.63513706  1
  N  N64  1  0.57822580  0.86176156  0.36976361  1
  N  N65  1  0.46816082  0.74697637  0.10124614  1
  N  N66  1  0.22124428  0.86999980  0.85712239  1
  N  N67  1  0.09806468  0.75440820  0.60294149  1
  N  N68  1  0.86417562  0.88374890  0.36742287  1
  N  N69  1  0.77924608  0.75954657  0.11608895  1
  N  N70  1  0.57790048  0.85904910  0.86417201  1
  N  N71  1  0.45500192  0.74112882  0.60898218  1
