# generated using pymatgen
data_Sc4Al5N9
_symmetry_space_group_name_H-M   'P 1'
_cell_length_a   10.50999696
_cell_length_b   10.39908019
_cell_length_c   9.20400394
_cell_angle_alpha   89.98446082
_cell_angle_beta   90.12232096
_cell_angle_gamma   60.10547022
_symmetry_Int_Tables_number   1
_chemical_formula_structural   Sc4Al5N9
_chemical_formula_sum   'Sc16 Al20 N36'
_cell_volume   872.09545474
_cell_formula_units_Z   4
loop_
 _symmetry_equiv_pos_site_id
 _symmetry_equiv_pos_as_xyz
  1  'x, y, z'
loop_
 _atom_site_type_symbol
 _atom_site_label
 _atom_site_symmetry_multiplicity
 _atom_site_fract_x
 _atom_site_fract_y
 _atom_site_fract_z
 _atom_site_occupancy
  Sc  Sc0  1  0.09854034  0.10559344  0.34426990  1
  Sc  Sc1  1  0.86911664  0.21247178  0.59454058  1
  Sc  Sc2  1  0.45757293  0.08928087  0.33821668  1
  Sc  Sc3  1  0.09933994  0.10750571  0.85130054  1
  Sc  Sc4  1  0.22606925  0.21485256  0.60059340  1
  Sc  Sc5  1  0.45037205  0.09972113  0.85249376  1
  Sc  Sc6  1  0.10301547  0.43799411  0.34314659  1
  Sc  Sc7  1  0.88799559  0.54014217  0.60347242  1
  Sc  Sc8  1  0.45098968  0.42411480  0.34596990  1
  Sc  Sc9  1  0.09952822  0.76143950  0.34685812  1
  Sc  Sc10  1  0.22371336  0.87092802  0.09838585  1
  Sc  Sc11  1  0.46015805  0.75117849  0.34426776  1
  Sc  Sc12  1  0.09667673  0.76025447  0.85267344  1
  Sc  Sc13  1  0.22197514  0.86784536  0.59874442  1
  Sc  Sc14  1  0.45552760  0.74646842  0.84710286  1
  Sc  Sc15  1  0.57097463  0.86676983  0.60058410  1
  Al  Al16  1  0.22007107  0.21126477  0.10138294  1
  Al  Al17  1  0.77001944  0.09472872  0.83464814  1
  Al  Al18  1  0.56298311  0.20999822  0.07843995  1
  Al  Al19  1  0.77445742  0.09619354  0.32456475  1
  Al  Al20  1  0.87718143  0.21105175  0.08192049  1
  Al  Al21  1  0.56388411  0.20173265  0.58221070  1
  Al  Al22  1  0.22699428  0.53575239  0.10757185  1
  Al  Al23  1  0.76895365  0.42617956  0.84340923  1
  Al  Al24  1  0.56218545  0.52810823  0.07964058  1
  Al  Al25  1  0.11203127  0.43114416  0.87639874  1
  Al  Al26  1  0.22610606  0.53532361  0.62851467  1
  Al  Al27  1  0.77620618  0.42937766  0.31851551  1
  Al  Al28  1  0.88434134  0.54103143  0.08177879  1
  Al  Al29  1  0.45279186  0.42050379  0.83928015  1
  Al  Al30  1  0.56082354  0.53052408  0.58256373  1
  Al  Al31  1  0.78500648  0.76320795  0.84125626  1
  Al  Al32  1  0.87933696  0.87577421  0.57598935  1
  Al  Al33  1  0.56888816  0.86298317  0.07692632  1
  Al  Al34  1  0.77745497  0.75909240  0.32080404  1
  Al  Al35  1  0.87781342  0.87807376  0.08527072  1
  N  N36  1  0.22646093  0.20683437  0.33915840  1
  N  N37  1  0.09599035  0.11552588  0.09874994  1
  N  N38  1  0.86598340  0.21219933  0.86604129  1
  N  N39  1  0.76889739  0.08187684  0.62523645  1
  N  N40  1  0.57713173  0.19653767  0.37154797  1
  N  N41  1  0.45123387  0.09130939  0.09804219  1
  N  N42  1  0.21609043  0.22401228  0.85686536  1
  N  N43  1  0.10203279  0.10371505  0.60227232  1
  N  N44  1  0.86537823  0.21789762  0.35461755  1
  N  N45  1  0.77560424  0.09653261  0.11689087  1
  N  N46  1  0.56657200  0.21415062  0.87044289  1
  N  N47  1  0.45596592  0.10270128  0.60830702  1
  N  N48  1  0.22612650  0.53879855  0.32119754  1
  N  N49  1  0.10839058  0.43167540  0.09224606  1
  N  N50  1  0.89192296  0.53911616  0.86675270  1
  N  N51  1  0.75787340  0.43933967  0.63591194  1
  N  N52  1  0.57972953  0.52276251  0.36983778  1
  N  N53  1  0.44871071  0.42530448  0.10392372  1
  N  N54  1  0.23571525  0.51975781  0.84914394  1
  N  N55  1  0.11770021  0.44318911  0.58805241  1
  N  N56  1  0.86843335  0.54726928  0.35224672  1
  N  N57  1  0.77713549  0.42829658  0.10551769  1
  N  N58  1  0.56298666  0.51698735  0.87296290  1
  N  N59  1  0.44662821  0.42661938  0.61308799  1
  N  N60  1  0.22349774  0.87115767  0.34696893  1
  N  N61  1  0.09639985  0.75747210  0.09795937  1
  N  N62  1  0.86536993  0.88827765  0.87942936  1
  N  N63  1  0.79498879  0.76537850  0.63258401  1
  N  N64  1  0.57887125  0.86045854  0.36339645  1
  N  N65  1  0.46711427  0.74767669  0.10065006  1
  N  N66  1  0.22108487  0.87104971  0.85380615  1
  N  N67  1  0.09845203  0.75371654  0.60278581  1
  N  N68  1  0.86516937  0.88286464  0.36231213  1
  N  N69  1  0.77994587  0.75908041  0.11039535  1
  N  N70  1  0.57688562  0.86007121  0.86206181  1
  N  N71  1  0.45505520  0.74129041  0.60514158  1
