# generated using pymatgen
data_Sc4Al5N9
_symmetry_space_group_name_H-M   'P 1'
_cell_length_a   10.36852212
_cell_length_b   10.27891983
_cell_length_c   9.60419603
_cell_angle_alpha   89.87160663
_cell_angle_beta   90.10551998
_cell_angle_gamma   60.08622277
_symmetry_Int_Tables_number   1
_chemical_formula_structural   Sc4Al5N9
_chemical_formula_sum   'Sc16 Al20 N36'
_cell_volume   887.21533433
_cell_formula_units_Z   4
loop_
 _symmetry_equiv_pos_site_id
 _symmetry_equiv_pos_as_xyz
  1  'x, y, z'
loop_
 _atom_site_type_symbol
 _atom_site_label
 _atom_site_symmetry_multiplicity
 _atom_site_fract_x
 _atom_site_fract_y
 _atom_site_fract_z
 _atom_site_occupancy
  Sc  Sc0  1  0.10075235  0.10614773  0.33291735  1
  Sc  Sc1  1  0.87087306  0.21101928  0.58576765  1
  Sc  Sc2  1  0.45402465  0.09124326  0.32495023  1
  Sc  Sc3  1  0.09804357  0.10443461  0.84489703  1
  Sc  Sc4  1  0.22792381  0.21059151  0.59724526  1
  Sc  Sc5  1  0.45336870  0.09916356  0.84889500  1
  Sc  Sc6  1  0.10147877  0.43253755  0.34105605  1
  Sc  Sc7  1  0.88381105  0.54271746  0.59608913  1
  Sc  Sc8  1  0.45302668  0.42264091  0.34543488  1
  Sc  Sc9  1  0.09746386  0.76293478  0.34395948  1
  Sc  Sc10  1  0.22474347  0.86975607  0.09352620  1
  Sc  Sc11  1  0.46191137  0.75145788  0.33564528  1
  Sc  Sc12  1  0.09899012  0.75794806  0.85231331  1
  Sc  Sc13  1  0.22247353  0.86685771  0.59116795  1
  Sc  Sc14  1  0.45601984  0.74555723  0.84203076  1
  Sc  Sc15  1  0.56770575  0.87046500  0.59400269  1
  Al  Al16  1  0.21657900  0.21626250  0.06719045  1
  Al  Al17  1  0.76984556  0.09601623  0.82897210  1
  Al  Al18  1  0.56185778  0.21402246  0.07201714  1
  Al  Al19  1  0.77427419  0.09579668  0.32113417  1
  Al  Al20  1  0.87669085  0.21315091  0.07486417  1
  Al  Al21  1  0.56516687  0.19921706  0.57692883  1
  Al  Al22  1  0.22538269  0.53415204  0.11930855  1
  Al  Al23  1  0.76855251  0.42551028  0.83400356  1
  Al  Al24  1  0.56299945  0.52663394  0.07399399  1
  Al  Al25  1  0.11099901  0.43467696  0.85066226  1
  Al  Al26  1  0.22578114  0.53733744  0.62870592  1
  Al  Al27  1  0.77659243  0.42999399  0.31680352  1
  Al  Al28  1  0.88663073  0.54065216  0.07044268  1
  Al  Al29  1  0.45529365  0.41981795  0.82351884  1
  Al  Al30  1  0.56162137  0.53148355  0.57623561  1
  Al  Al31  1  0.78428446  0.76451519  0.83138896  1
  Al  Al32  1  0.87975898  0.87637390  0.57291275  1
  Al  Al33  1  0.57056035  0.86100187  0.06823561  1
  Al  Al34  1  0.77664736  0.76015319  0.31960286  1
  Al  Al35  1  0.87670881  0.87755426  0.07861040  1
  N  N36  1  0.22826482  0.20396825  0.37104167  1
  N  N37  1  0.09767181  0.11736645  0.09847958  1
  N  N38  1  0.86445061  0.21376080  0.87243448  1
  N  N39  1  0.76961716  0.08205881  0.63113588  1
  N  N40  1  0.57728273  0.19325050  0.37918662  1
  N  N41  1  0.44670993  0.09434837  0.09486469  1
  N  N42  1  0.21442426  0.22453804  0.86232694  1
  N  N43  1  0.10204714  0.09998694  0.61476745  1
  N  N44  1  0.86680761  0.21698226  0.36082690  1
  N  N45  1  0.77551503  0.09665689  0.12268463  1
  N  N46  1  0.56742433  0.21710797  0.87614882  1
  N  N47  1  0.45810316  0.10356977  0.62337918  1
  N  N48  1  0.22364871  0.53678602  0.32487784  1
  N  N49  1  0.10811481  0.43153325  0.09607777  1
  N  N50  1  0.88970268  0.54089949  0.86706500  1
  N  N51  1  0.75733045  0.43730091  0.63958915  1
  N  N52  1  0.58069406  0.52395277  0.37799539  1
  N  N53  1  0.44863927  0.42621319  0.11623358  1
  N  N54  1  0.23912679  0.51945888  0.83827971  1
  N  N55  1  0.11517077  0.44251991  0.60552166  1
  N  N56  1  0.86667011  0.54903644  0.36565480  1
  N  N57  1  0.77826507  0.42917033  0.11458541  1
  N  N58  1  0.56418871  0.51479168  0.87815832  1
  N  N59  1  0.44951821  0.42538527  0.61276170  1
  N  N60  1  0.22444335  0.87095074  0.34702900  1
  N  N61  1  0.09651649  0.75488189  0.09926088  1
  N  N62  1  0.86388086  0.88909219  0.88312105  1
  N  N63  1  0.79301676  0.76857318  0.63633375  1
  N  N64  1  0.57711433  0.86399913  0.37047271  1
  N  N65  1  0.46908790  0.74633129  0.10212924  1
  N  N66  1  0.22204957  0.86873107  0.86150154  1
  N  N67  1  0.09819452  0.75441188  0.60279085  1
  N  N68  1  0.86369199  0.88416709  0.37065890  1
  N  N69  1  0.78025400  0.75836500  0.11868378  1
  N  N70  1  0.57830283  0.85861053  0.86696950  1
  N  N71  1  0.45566935  0.74094718  0.61163641  1
