# generated using pymatgen
data_Sc4Al5N9
_symmetry_space_group_name_H-M   'P 1'
_cell_length_a   10.46709386
_cell_length_b   10.36094680
_cell_length_c   9.32464677
_cell_angle_alpha   89.96636678
_cell_angle_beta   90.13956841
_cell_angle_gamma   60.10871762
_symmetry_Int_Tables_number   1
_chemical_formula_structural   Sc4Al5N9
_chemical_formula_sum   'Sc16 Al20 N36'
_cell_volume   876.72035556
_cell_formula_units_Z   4
loop_
 _symmetry_equiv_pos_site_id
 _symmetry_equiv_pos_as_xyz
  1  'x, y, z'
loop_
 _atom_site_type_symbol
 _atom_site_label
 _atom_site_symmetry_multiplicity
 _atom_site_fract_x
 _atom_site_fract_y
 _atom_site_fract_z
 _atom_site_occupancy
  Sc  Sc0  1  0.09859632  0.10577406  0.34211475  1
  Sc  Sc1  1  0.86929743  0.21225877  0.59274295  1
  Sc  Sc2  1  0.45755958  0.08884621  0.33471428  1
  Sc  Sc3  1  0.09919232  0.10708832  0.84956543  1
  Sc  Sc4  1  0.22651195  0.21443644  0.59828492  1
  Sc  Sc5  1  0.45084977  0.09993945  0.85120847  1
  Sc  Sc6  1  0.10263063  0.43697117  0.34314774  1
  Sc  Sc7  1  0.88797861  0.54024508  0.60102147  1
  Sc  Sc8  1  0.45174726  0.42358979  0.34677365  1
  Sc  Sc9  1  0.09878646  0.76234102  0.34679104  1
  Sc  Sc10  1  0.22382645  0.87075417  0.09739220  1
  Sc  Sc11  1  0.46051748  0.75141373  0.34235767  1
  Sc  Sc12  1  0.09740951  0.75918923  0.85250364  1
  Sc  Sc13  1  0.22192709  0.86773736  0.59762006  1
  Sc  Sc14  1  0.45547123  0.74596384  0.84580175  1
  Sc  Sc15  1  0.57024291  0.86736340  0.59967633  1
  Al  Al16  1  0.22023388  0.21106392  0.09350518  1
  Al  Al17  1  0.76974294  0.09492016  0.83283907  1
  Al  Al18  1  0.56252302  0.21168380  0.07632180  1
  Al  Al19  1  0.77455429  0.09631304  0.32328786  1
  Al  Al20  1  0.87695351  0.21164172  0.07869120  1
  Al  Al21  1  0.56464744  0.20048239  0.57998806  1
  Al  Al22  1  0.22747782  0.53591624  0.11330228  1
  Al  Al23  1  0.76857054  0.42632098  0.84035653  1
  Al  Al24  1  0.56198116  0.52741030  0.07770123  1
  Al  Al25  1  0.11239309  0.43214903  0.87839703  1
  Al  Al26  1  0.22492597  0.53572777  0.62772899  1
  Al  Al27  1  0.77616957  0.42933272  0.31808566  1
  Al  Al28  1  0.88339362  0.54179516  0.07949452  1
  Al  Al29  1  0.45313604  0.42021178  0.83178622  1
  Al  Al30  1  0.56132530  0.53096848  0.58022244  1
  Al  Al31  1  0.78531695  0.76321893  0.83771149  1
  Al  Al32  1  0.87937550  0.87596493  0.57475177  1
  Al  Al33  1  0.56939844  0.86239269  0.07304900  1
  Al  Al34  1  0.77691007  0.75940492  0.32084982  1
  Al  Al35  1  0.87742201  0.87790733  0.08331462  1
  N  N36  1  0.22724580  0.20580793  0.34539601  1
  N  N37  1  0.09591867  0.11597953  0.09863600  1
  N  N38  1  0.86548731  0.21273373  0.86731647  1
  N  N39  1  0.76900716  0.08161329  0.62764279  1
  N  N40  1  0.57759325  0.19535851  0.37420967  1
  N  N41  1  0.45070016  0.09126266  0.09728640  1
  N  N42  1  0.21571098  0.22440140  0.86032041  1
  N  N43  1  0.10213623  0.10327801  0.60482788  1
  N  N44  1  0.86525456  0.21789406  0.35799857  1
  N  N45  1  0.77563699  0.09685024  0.11871893  1
  N  N46  1  0.56655380  0.21528581  0.87252605  1
  N  N47  1  0.45631204  0.10303941  0.61236912  1
  N  N48  1  0.22563128  0.53905428  0.32244970  1
  N  N49  1  0.10895905  0.43205209  0.09264211  1
  N  N50  1  0.89167871  0.53964211  0.86778912  1
  N  N51  1  0.75773034  0.43931215  0.63752795  1
  N  N52  1  0.58004434  0.52320904  0.37290742  1
  N  N53  1  0.44858744  0.42565380  0.10915492  1
  N  N54  1  0.23627808  0.51895069  0.84404998  1
  N  N55  1  0.11751197  0.44298301  0.58497375  1
  N  N56  1  0.86764050  0.54767555  0.35582018  1
  N  N57  1  0.77708285  0.42835369  0.10856771  1
  N  N58  1  0.56295572  0.51600457  0.87473130  1
  N  N59  1  0.44769862  0.42606096  0.61266835  1
  N  N60  1  0.22370335  0.87122189  0.34673715  1
  N  N61  1  0.09664266  0.75654794  0.09803968  1
  N  N62  1  0.86490244  0.88841667  0.88106564  1
  N  N63  1  0.79512513  0.76573520  0.63394690  1
  N  N64  1  0.57869875  0.86081574  0.36766327  1
  N  N65  1  0.46771756  0.74733189  0.10081371  1
  N  N66  1  0.22106422  0.87060934  0.85516707  1
  N  N67  1  0.09808405  0.75421301  0.60277354  1
  N  N68  1  0.86453134  0.88345336  0.36492951  1
  N  N69  1  0.77946105  0.75932388  0.11368485  1
  N  N70  1  0.57747293  0.85946924  0.86277852  1
  N  N71  1  0.45485811  0.74117618  0.60712382  1
