# generated using pymatgen
data_Sc4Al5N9
_symmetry_space_group_name_H-M   'P 1'
_cell_length_a   10.30313646
_cell_length_b   10.21953168
_cell_length_c   9.79205944
_cell_angle_alpha   89.80775914
_cell_angle_beta   90.06131508
_cell_angle_gamma   60.11591739
_symmetry_Int_Tables_number   1
_chemical_formula_structural   Sc4Al5N9
_chemical_formula_sum   'Sc16 Al20 N36'
_cell_volume   893.93635702
_cell_formula_units_Z   4
loop_
 _symmetry_equiv_pos_site_id
 _symmetry_equiv_pos_as_xyz
  1  'x, y, z'
loop_
 _atom_site_type_symbol
 _atom_site_label
 _atom_site_symmetry_multiplicity
 _atom_site_fract_x
 _atom_site_fract_y
 _atom_site_fract_z
 _atom_site_occupancy
  Sc  Sc0  1  0.10086851  0.10658245  0.32503465  1
  Sc  Sc1  1  0.87212282  0.21033261  0.58160284  1
  Sc  Sc2  1  0.45288454  0.09225195  0.31864732  1
  Sc  Sc3  1  0.09818082  0.10394828  0.84273095  1
  Sc  Sc4  1  0.22848226  0.20851147  0.59328333  1
  Sc  Sc5  1  0.45265704  0.09926011  0.84747320  1
  Sc  Sc6  1  0.10040480  0.43090584  0.33332703  1
  Sc  Sc7  1  0.88147259  0.54412434  0.59015557  1
  Sc  Sc8  1  0.45435824  0.42182652  0.34266367  1
  Sc  Sc9  1  0.09650471  0.76376954  0.33975835  1
  Sc  Sc10  1  0.22526995  0.86944878  0.08941266  1
  Sc  Sc11  1  0.46249341  0.75116218  0.32991667  1
  Sc  Sc12  1  0.10008559  0.75709927  0.85086664  1
  Sc  Sc13  1  0.22255193  0.86705633  0.58430938  1
  Sc  Sc14  1  0.45588949  0.74570292  0.83834204  1
  Sc  Sc15  1  0.56634520  0.87197384  0.58920254  1
  Al  Al16  1  0.21378003  0.22053911  0.06091071  1
  Al  Al17  1  0.76997494  0.09629881  0.82611115  1
  Al  Al18  1  0.56151213  0.21401370  0.06856104  1
  Al  Al19  1  0.77398022  0.09543195  0.31933521  1
  Al  Al20  1  0.87617669  0.21373149  0.07147160  1
  Al  Al21  1  0.56499371  0.19887969  0.57510741  1
  Al  Al22  1  0.22455020  0.53351221  0.12147322  1
  Al  Al23  1  0.76963920  0.42554597  0.83035749  1
  Al  Al24  1  0.56378162  0.52641746  0.07061036  1
  Al  Al25  1  0.11042633  0.43448738  0.82532938  1
  Al  Al26  1  0.22745818  0.53842550  0.62836735  1
  Al  Al27  1  0.77643865  0.43003313  0.31479775  1
  Al  Al28  1  0.88935667  0.53942307  0.06605628  1
  Al  Al29  1  0.45642702  0.41944732  0.82034861  1
  Al  Al30  1  0.56158472  0.53176189  0.57398175  1
  Al  Al31  1  0.78392488  0.76410860  0.82804399  1
  Al  Al32  1  0.88012593  0.87620280  0.57144600  1
  Al  Al33  1  0.57118685  0.86044084  0.06512282  1
  Al  Al34  1  0.77628527  0.76098344  0.31728565  1
  Al  Al35  1  0.87630622  0.87736663  0.07486393  1
  N  N36  1  0.22833794  0.20324643  0.37513074  1
  N  N37  1  0.09764527  0.11796917  0.09757637  1
  N  N38  1  0.86408317  0.21428050  0.87407823  1
  N  N39  1  0.76993264  0.08231389  0.63209252  1
  N  N40  1  0.57701787  0.19199007  0.38135625  1
  N  N41  1  0.44580090  0.09547709  0.09300287  1
  N  N42  1  0.21256977  0.22687021  0.86342585  1
  N  N43  1  0.10254523  0.09873030  0.61940680  1
  N  N44  1  0.86748096  0.21641993  0.36162575  1
  N  N45  1  0.77529161  0.09629626  0.12397195  1
  N  N46  1  0.56779280  0.21727837  0.87687662  1
  N  N47  1  0.45790790  0.10395079  0.62733328  1
  N  N48  1  0.22357049  0.53610427  0.32617906  1
  N  N49  1  0.10690886  0.43084399  0.10624247  1
  N  N50  1  0.89061175  0.54034925  0.86706683  1
  N  N51  1  0.75756370  0.43669022  0.63988629  1
  N  N52  1  0.58105278  0.52450780  0.38037541  1
  N  N53  1  0.44887794  0.42603705  0.11781259  1
  N  N54  1  0.24045583  0.51964899  0.83487212  1
  N  N55  1  0.11409245  0.44181519  0.61867336  1
  N  N56  1  0.86609469  0.54985876  0.36801586  1
  N  N57  1  0.77861494  0.42920304  0.11656499  1
  N  N58  1  0.56534795  0.51441455  0.87878652  1
  N  N59  1  0.45065498  0.42463291  0.61293012  1
  N  N60  1  0.22462233  0.87147207  0.34767989  1
  N  N61  1  0.09630043  0.75421147  0.10001473  1
  N  N62  1  0.86361899  0.88898697  0.88317186  1
  N  N63  1  0.79178814  0.76934280  0.63709328  1
  N  N64  1  0.57603677  0.86551003  0.37042774  1
  N  N65  1  0.46985153  0.74566979  0.10273250  1
  N  N66  1  0.22257928  0.86832284  0.86616468  1
  N  N67  1  0.09836577  0.75446207  0.60278593  1
  N  N68  1  0.86315905  0.88439261  0.37324772  1
  N  N69  1  0.78067565  0.75804973  0.12001443  1
  N  N70  1  0.57863136  0.85805729  0.86910606  1
  N  N71  1  0.45559768  0.74109490  0.61373336  1
