# generated using pymatgen
data_Sc4Al5N9
_symmetry_space_group_name_H-M   'P 1'
_cell_length_a   10.14425413
_cell_length_b   10.09670867
_cell_length_c   10.13197870
_cell_angle_alpha   89.95184893
_cell_angle_beta   90.08039627
_cell_angle_gamma   60.12495805
_symmetry_Int_Tables_number   1
_chemical_formula_structural   Sc4Al5N9
_chemical_formula_sum   'Sc16 Al20 N36'
_cell_volume   899.84810002
_cell_formula_units_Z   4
loop_
 _symmetry_equiv_pos_site_id
 _symmetry_equiv_pos_as_xyz
  1  'x, y, z'
loop_
 _atom_site_type_symbol
 _atom_site_label
 _atom_site_symmetry_multiplicity
 _atom_site_fract_x
 _atom_site_fract_y
 _atom_site_fract_z
 _atom_site_occupancy
  Sc  Sc0  1  0.10113559  0.10724841  0.29339350  1
  Sc  Sc1  1  0.87286645  0.21086138  0.55418875  1
  Sc  Sc2  1  0.45302870  0.09294611  0.29197101  1
  Sc  Sc3  1  0.09851440  0.10310007  0.81661753  1
  Sc  Sc4  1  0.22679349  0.21242415  0.56586936  1
  Sc  Sc5  1  0.45216119  0.09762283  0.82221704  1
  Sc  Sc6  1  0.10526330  0.43317969  0.29771387  1
  Sc  Sc7  1  0.88510460  0.54333423  0.56232721  1
  Sc  Sc8  1  0.45208711  0.42320983  0.31139776  1
  Sc  Sc9  1  0.09857275  0.75956056  0.30363475  1
  Sc  Sc10  1  0.22417607  0.86723605  0.05966758  1
  Sc  Sc11  1  0.46273497  0.74957264  0.30141931  1
  Sc  Sc12  1  0.10040908  0.75652233  0.80768097  1
  Sc  Sc13  1  0.22139149  0.86934770  0.55006786  1
  Sc  Sc14  1  0.45476254  0.74644465  0.80952526  1
  Sc  Sc15  1  0.56539197  0.87281555  0.55991318  1
  Al  Al16  1  0.21518913  0.21812862  0.03616760  1
  Al  Al17  1  0.76966852  0.09740976  0.80236484  1
  Al  Al18  1  0.56085389  0.21179749  0.04362423  1
  Al  Al19  1  0.77420013  0.09500839  0.29673678  1
  Al  Al20  1  0.87566812  0.21385089  0.04666402  1
  Al  Al21  1  0.56190586  0.20281225  0.55367661  1
  Al  Al22  1  0.22680267  0.52987606  0.04070536  1
  Al  Al23  1  0.77041670  0.42664960  0.80575002  1
  Al  Al24  1  0.56336351  0.52752409  0.04510969  1
  Al  Al25  1  0.11160091  0.43458484  0.80307128  1
  Al  Al26  1  0.22452251  0.53953668  0.55534593  1
  Al  Al27  1  0.77669114  0.42917941  0.29245265  1
  Al  Al28  1  0.88796709  0.53983385  0.04319635  1
  Al  Al29  1  0.45176196  0.42130228  0.79731780  1
  Al  Al30  1  0.55954620  0.53152164  0.55235869  1
  Al  Al31  1  0.78341668  0.76225327  0.80412356  1
  Al  Al32  1  0.88062987  0.87680217  0.54881643  1
  Al  Al33  1  0.57032992  0.86079767  0.04163461  1
  Al  Al34  1  0.77745658  0.76133308  0.29353703  1
  Al  Al35  1  0.87870458  0.87458376  0.04826487  1
  N  N36  1  0.22654358  0.20675692  0.35455803  1
  N  N37  1  0.09781344  0.11689156  0.07714394  1
  N  N38  1  0.86326314  0.21569583  0.85701997  1
  N  N39  1  0.76938924  0.08418321  0.61366559  1
  N  N40  1  0.57552016  0.19405495  0.36483892  1
  N  N41  1  0.44574717  0.09472054  0.07283917  1
  N  N42  1  0.21204036  0.22643084  0.84790371  1
  N  N43  1  0.10352670  0.09937595  0.60291318  1
  N  N44  1  0.86883310  0.21549681  0.34187262  1
  N  N45  1  0.77537214  0.09466216  0.10565930  1
  N  N46  1  0.56663706  0.21768930  0.85855257  1
  N  N47  1  0.45691457  0.10407502  0.60975681  1
  N  N48  1  0.22397724  0.53605359  0.36853484  1
  N  N49  1  0.10962323  0.43025723  0.08650702  1
  N  N50  1  0.88934401  0.54011724  0.85124325  1
  N  N51  1  0.75858477  0.43746711  0.62068171  1
  N  N52  1  0.58036387  0.52348810  0.36452932  1
  N  N53  1  0.44461919  0.42736124  0.09853898  1
  N  N54  1  0.23939625  0.51825380  0.85343706  1
  N  N55  1  0.11642275  0.44425231  0.61466739  1
  N  N56  1  0.87073047  0.54805539  0.34695314  1
  N  N57  1  0.77755068  0.42901746  0.10005977  1
  N  N58  1  0.56444565  0.51532866  0.85987311  1
  N  N59  1  0.44725604  0.42653382  0.60217750  1
  N  N60  1  0.22342192  0.87172722  0.32821159  1
  N  N61  1  0.09814272  0.74747605  0.08689816  1
  N  N62  1  0.86537805  0.88771196  0.86285025  1
  N  N63  1  0.79126325  0.76900668  0.61867150  1
  N  N64  1  0.57529253  0.86608536  0.34950471  1
  N  N65  1  0.46937491  0.74539487  0.08494698  1
  N  N66  1  0.22169909  0.86707619  0.85025514  1
  N  N67  1  0.09783338  0.75782889  0.59095882  1
  N  N68  1  0.86576951  0.88352729  0.35679448  1
  N  N69  1  0.78062623  0.75843183  0.10207823  1
  N  N70  1  0.57868331  0.85666175  0.85369222  1
  N  N71  1  0.45416635  0.74260483  0.59472888  1
