# generated using pymatgen
data_Sc4Al5N9
_symmetry_space_group_name_H-M   'P 1'
_cell_length_a   10.29686660
_cell_length_b   10.22213774
_cell_length_c   9.75557251
_cell_angle_alpha   89.92677788
_cell_angle_beta   90.07965925
_cell_angle_gamma   60.11257371
_symmetry_Int_Tables_number   1
_chemical_formula_structural   Sc4Al5N9
_chemical_formula_sum   'Sc16 Al20 N36'
_cell_volume   890.26684405
_cell_formula_units_Z   4
loop_
 _symmetry_equiv_pos_site_id
 _symmetry_equiv_pos_as_xyz
  1  'x, y, z'
loop_
 _atom_site_type_symbol
 _atom_site_label
 _atom_site_symmetry_multiplicity
 _atom_site_fract_x
 _atom_site_fract_y
 _atom_site_fract_z
 _atom_site_occupancy
  Sc  Sc0  1  0.10047974  0.10723547  0.32676793  1
  Sc  Sc1  1  0.87138255  0.21080117  0.58265705  1
  Sc  Sc2  1  0.45293643  0.09203660  0.32122177  1
  Sc  Sc3  1  0.09824294  0.10411069  0.84245148  1
  Sc  Sc4  1  0.22761774  0.21106238  0.59423323  1
  Sc  Sc5  1  0.45284177  0.09891821  0.84737866  1
  Sc  Sc6  1  0.10335829  0.43308036  0.32769839  1
  Sc  Sc7  1  0.88428064  0.54263097  0.59170928  1
  Sc  Sc8  1  0.45239607  0.42279741  0.33920134  1
  Sc  Sc9  1  0.09816908  0.76106448  0.33204815  1
  Sc  Sc10  1  0.22476284  0.86932805  0.08874909  1
  Sc  Sc11  1  0.46206081  0.75085047  0.33148901  1
  Sc  Sc12  1  0.09992662  0.75679097  0.84042151  1
  Sc  Sc13  1  0.22175374  0.86762163  0.58355937  1
  Sc  Sc14  1  0.45566259  0.74549784  0.83837647  1
  Sc  Sc15  1  0.56688152  0.87102671  0.59027227  1
  Al  Al16  1  0.21463837  0.21899835  0.06181793  1
  Al  Al17  1  0.76954020  0.09642950  0.82657690  1
  Al  Al18  1  0.56159857  0.21305680  0.06944564  1
  Al  Al19  1  0.77437621  0.09537767  0.31983244  1
  Al  Al20  1  0.87624625  0.21362570  0.07177715  1
  Al  Al21  1  0.56386967  0.20050914  0.57590209  1
  Al  Al22  1  0.22790128  0.52966781  0.06958351  1
  Al  Al23  1  0.76899208  0.42603080  0.83097302  1
  Al  Al24  1  0.56347136  0.52703573  0.07138084  1
  Al  Al25  1  0.11282801  0.43514531  0.82670967  1
  Al  Al26  1  0.22473529  0.53963502  0.57968045  1
  Al  Al27  1  0.77699844  0.42963607  0.31578516  1
  Al  Al28  1  0.88846339  0.53974181  0.06645012  1
  Al  Al29  1  0.45218097  0.42119088  0.82046383  1
  Al  Al30  1  0.56048219  0.53118555  0.57495777  1
  Al  Al31  1  0.78452434  0.76338736  0.82851207  1
  Al  Al32  1  0.88047417  0.87634107  0.57124483  1
  Al  Al33  1  0.57096484  0.86064378  0.06576496  1
  Al  Al34  1  0.77706997  0.76032184  0.31804623  1
  Al  Al35  1  0.87739448  0.87625884  0.07481611  1
  N  N36  1  0.22671292  0.20635333  0.37427778  1
  N  N37  1  0.09747484  0.11800006  0.09781739  1
  N  N38  1  0.86393749  0.21443987  0.87333719  1
  N  N39  1  0.76919876  0.08254977  0.63172466  1
  N  N40  1  0.57667760  0.19338586  0.38088657  1
  N  N41  1  0.44616292  0.09491430  0.09402583  1
  N  N42  1  0.21314374  0.22608201  0.86368513  1
  N  N43  1  0.10256325  0.09977548  0.61745427  1
  N  N44  1  0.86717719  0.21659415  0.36173473  1
  N  N45  1  0.77565697  0.09600728  0.12368025  1
  N  N46  1  0.56701989  0.21775407  0.87712529  1
  N  N47  1  0.45762744  0.10367169  0.62558575  1
  N  N48  1  0.22406797  0.53651480  0.38076459  1
  N  N49  1  0.10875865  0.43121824  0.10648535  1
  N  N50  1  0.89036333  0.54012879  0.86768590  1
  N  N51  1  0.75726781  0.43765204  0.63955512  1
  N  N52  1  0.58060298  0.52352257  0.37998901  1
  N  N53  1  0.44568974  0.42732097  0.11901888  1
  N  N54  1  0.24051943  0.51783786  0.87202784  1
  N  N55  1  0.11662637  0.44366718  0.62866002  1
  N  N56  1  0.86902560  0.54820084  0.36776481  1
  N  N57  1  0.77843102  0.42917270  0.11665100  1
  N  N58  1  0.56418050  0.51446183  0.87916953  1
  N  N59  1  0.44783485  0.42601311  0.61781734  1
  N  N60  1  0.22368924  0.87150152  0.34657809  1
  N  N61  1  0.09821269  0.75016571  0.10310615  1
  N  N62  1  0.86466894  0.88849159  0.88296671  1
  N  N63  1  0.79271501  0.76845488  0.63646345  1
  N  N64  1  0.57657782  0.86470942  0.37046357  1
  N  N65  1  0.46935469  0.74608825  0.10274182  1
  N  N66  1  0.22198073  0.86838508  0.86506290  1
  N  N67  1  0.09709492  0.75680431  0.60928729  1
  N  N68  1  0.86501559  0.88363014  0.37260444  1
  N  N69  1  0.78076527  0.75782551  0.11990766  1
  N  N70  1  0.57867270  0.85795944  0.86839742  1
  N  N71  1  0.45498392  0.74118101  0.61243832  1
