# generated using pymatgen
data_Sc4Al5N9
_symmetry_space_group_name_H-M   'P 1'
_cell_length_a   10.61881662
_cell_length_b   10.50473368
_cell_length_c   8.93835685
_cell_angle_alpha   89.89795714
_cell_angle_beta   90.07595464
_cell_angle_gamma   59.97278150
_symmetry_Int_Tables_number   1
_chemical_formula_structural   Sc4Al5N9
_chemical_formula_sum   'Sc16 Al20 N36'
_cell_volume   863.23332133
_cell_formula_units_Z   4
loop_
 _symmetry_equiv_pos_site_id
 _symmetry_equiv_pos_as_xyz
  1  'x, y, z'
loop_
 _atom_site_type_symbol
 _atom_site_label
 _atom_site_symmetry_multiplicity
 _atom_site_fract_x
 _atom_site_fract_y
 _atom_site_fract_z
 _atom_site_occupancy
  Sc  Sc0  1  0.10065476  0.10500961  0.34586159  1
  Sc  Sc1  1  0.86799365  0.21335932  0.59664346  1
  Sc  Sc2  1  0.45624670  0.09231463  0.34367044  1
  Sc  Sc3  1  0.09913656  0.10756734  0.85192234  1
  Sc  Sc4  1  0.22646996  0.21407779  0.60097579  1
  Sc  Sc5  1  0.45086463  0.09800627  0.85682777  1
  Sc  Sc6  1  0.10496976  0.43765854  0.34170455  1
  Sc  Sc7  1  0.88572055  0.54051148  0.60440081  1
  Sc  Sc8  1  0.45266174  0.42516694  0.35150252  1
  Sc  Sc9  1  0.09661425  0.76113819  0.35101608  1
  Sc  Sc10  1  0.22237674  0.87106708  0.10106495  1
  Sc  Sc11  1  0.46032923  0.74658277  0.34780006  1
  Sc  Sc12  1  0.10120298  0.75759832  0.85460152  1
  Sc  Sc13  1  0.22192630  0.86774385  0.59981485  1
  Sc  Sc14  1  0.45335119  0.75359116  0.85437359  1
  Sc  Sc15  1  0.57146288  0.86617348  0.59976575  1
  Al  Al16  1  0.22011602  0.21212411  0.09863960  1
  Al  Al17  1  0.77292414  0.09922812  0.87605775  1
  Al  Al18  1  0.56215766  0.20703970  0.10751196  1
  Al  Al19  1  0.77272465  0.09107464  0.35049239  1
  Al  Al20  1  0.88053589  0.20965524  0.09805025  1
  Al  Al21  1  0.56299031  0.20568330  0.62263346  1
  Al  Al22  1  0.22579124  0.53463729  0.10284138  1
  Al  Al23  1  0.77382676  0.42439810  0.85471274  1
  Al  Al24  1  0.56214741  0.53054743  0.09479156  1
  Al  Al25  1  0.11215973  0.43103458  0.86460002  1
  Al  Al26  1  0.22775198  0.53404090  0.62441493  1
  Al  Al27  1  0.77657803  0.43009848  0.31387527  1
  Al  Al28  1  0.88854661  0.53898047  0.08409810  1
  Al  Al29  1  0.44875932  0.42078904  0.86710887  1
  Al  Al30  1  0.55503418  0.52952701  0.63278550  1
  Al  Al31  1  0.78243790  0.76171803  0.85397369  1
  Al  Al32  1  0.87885896  0.87894769  0.62124666  1
  Al  Al33  1  0.56569172  0.86564670  0.09218610  1
  Al  Al34  1  0.77938249  0.75900203  0.32072391  1
  Al  Al35  1  0.88065923  0.87592421  0.10202980  1
  N  N36  1  0.22559349  0.20825060  0.33893100  1
  N  N37  1  0.09844057  0.11423533  0.09828678  1
  N  N38  1  0.86862653  0.21105972  0.85670166  1
  N  N39  1  0.76663785  0.08464639  0.57921941  1
  N  N40  1  0.57289065  0.19996371  0.32434863  1
  N  N41  1  0.44822380  0.09229413  0.09697551  1
  N  N42  1  0.21725112  0.22237423  0.85628032  1
  N  N43  1  0.10164983  0.10433609  0.59879038  1
  N  N44  1  0.86622288  0.21785264  0.33622791  1
  N  N45  1  0.77831149  0.09495203  0.09330740  1
  N  N46  1  0.56879935  0.21233491  0.84675460  1
  N  N47  1  0.45787413  0.10338826  0.60099645  1
  N  N48  1  0.22792320  0.53784268  0.32438389  1
  N  N49  1  0.10945362  0.43156091  0.08903288  1
  N  N50  1  0.89411575  0.53845442  0.86054816  1
  N  N51  1  0.75608407  0.44006648  0.62594465  1
  N  N52  1  0.57769888  0.52285901  0.31812772  1
  N  N53  1  0.44442447  0.42499078  0.08681989  1
  N  N54  1  0.23560241  0.51955493  0.84861057  1
  N  N55  1  0.11656365  0.44262646  0.59578464  1
  N  N56  1  0.87027015  0.54618327  0.33710175  1
  N  N57  1  0.78219747  0.42678614  0.08677783  1
  N  N58  1  0.56076976  0.52000873  0.86032880  1
  N  N59  1  0.44650347  0.42676232  0.60518353  1
  N  N60  1  0.22231605  0.86997301  0.34822177  1
  N  N61  1  0.09796066  0.75545742  0.09536747  1
  N  N62  1  0.86762031  0.88938418  0.85158050  1
  N  N63  1  0.79249151  0.76467373  0.61818981  1
  N  N64  1  0.57780345  0.85974762  0.34427565  1
  N  N65  1  0.46142602  0.75365625  0.09718345  1
  N  N66  1  0.22042261  0.87208029  0.85146486  1
  N  N67  1  0.09765385  0.75424716  0.60316207  1
  N  N68  1  0.86689766  0.87974687  0.32650990  1
  N  N69  1  0.78072538  0.75833680  0.09212183  1
  N  N70  1  0.57486945  0.86302859  0.85740164  1
  N  N71  1  0.45682193  0.73811714  0.60226974  1
