# generated using pymatgen
data_Sc4Al5N9
_symmetry_space_group_name_H-M   'P 1'
_cell_length_a   10.41789433
_cell_length_b   10.31931031
_cell_length_c   9.46768037
_cell_angle_alpha   89.93399803
_cell_angle_beta   90.14669451
_cell_angle_gamma   60.10222929
_symmetry_Int_Tables_number   1
_chemical_formula_structural   Sc4Al5N9
_chemical_formula_sum   'Sc16 Al20 N36'
_cell_volume   882.36479337
_cell_formula_units_Z   4
loop_
 _symmetry_equiv_pos_site_id
 _symmetry_equiv_pos_as_xyz
  1  'x, y, z'
loop_
 _atom_site_type_symbol
 _atom_site_label
 _atom_site_symmetry_multiplicity
 _atom_site_fract_x
 _atom_site_fract_y
 _atom_site_fract_z
 _atom_site_occupancy
  Sc  Sc0  1  0.09966064  0.10599479  0.33837428  1
  Sc  Sc1  1  0.86976243  0.21192715  0.58954572  1
  Sc  Sc2  1  0.45606121  0.08944004  0.33013391  1
  Sc  Sc3  1  0.09844579  0.10608875  0.84674298  1
  Sc  Sc4  1  0.22700127  0.21363793  0.59684745  1
  Sc  Sc5  1  0.45225714  0.09962117  0.84952425  1
  Sc  Sc6  1  0.10300790  0.43455100  0.34395208  1
  Sc  Sc7  1  0.88728403  0.54089566  0.59799540  1
  Sc  Sc8  1  0.45250186  0.42308108  0.34678775  1
  Sc  Sc9  1  0.09813687  0.76271540  0.34629258  1
  Sc  Sc10  1  0.22406463  0.87035953  0.09579843  1
  Sc  Sc11  1  0.46105399  0.75151739  0.33963834  1
  Sc  Sc12  1  0.09808491  0.75848404  0.85218552  1
  Sc  Sc13  1  0.22203774  0.86753460  0.59534286  1
  Sc  Sc14  1  0.45557628  0.74573407  0.84410686  1
  Sc  Sc15  1  0.56921381  0.86856188  0.59760682  1
  Al  Al16  1  0.21987325  0.21140176  0.07805376  1
  Al  Al17  1  0.76964584  0.09545415  0.83083365  1
  Al  Al18  1  0.56225952  0.21306417  0.07427497  1
  Al  Al19  1  0.77451320  0.09603919  0.32231343  1
  Al  Al20  1  0.87680012  0.21233172  0.07648894  1
  Al  Al21  1  0.56499074  0.19964935  0.57814924  1
  Al  Al22  1  0.22731501  0.53567814  0.11792754  1
  Al  Al23  1  0.76852914  0.42619084  0.83715503  1
  Al  Al24  1  0.56218562  0.52694201  0.07561689  1
  Al  Al25  1  0.11176073  0.43407703  0.87793645  1
  Al  Al26  1  0.22422672  0.53601216  0.62811992  1
  Al  Al27  1  0.77614901  0.42948033  0.31762592  1
  Al  Al28  1  0.88286533  0.54227191  0.07719783  1
  Al  Al29  1  0.45389405  0.41989859  0.82657325  1
  Al  Al30  1  0.56160421  0.53132155  0.57842396  1
  Al  Al31  1  0.78517772  0.76343438  0.83453247  1
  Al  Al32  1  0.87952140  0.87612049  0.57392957  1
  Al  Al33  1  0.56969674  0.86185623  0.07012309  1
  Al  Al34  1  0.77656730  0.75994061  0.32051015  1
  Al  Al35  1  0.87706841  0.87781131  0.08088210  1
  N  N36  1  0.22839148  0.20406237  0.36057296  1
  N  N37  1  0.09677056  0.11667781  0.09878098  1
  N  N38  1  0.86485427  0.21334319  0.86983786  1
  N  N39  1  0.76918764  0.08174841  0.62971062  1
  N  N40  1  0.57755583  0.19415636  0.37682284  1
  N  N41  1  0.44862839  0.09225370  0.09626573  1
  N  N42  1  0.21506636  0.22479093  0.86339612  1
  N  N43  1  0.10190465  0.10223984  0.60990540  1
  N  N44  1  0.86578936  0.21751652  0.36014071  1
  N  N45  1  0.77568480  0.09676272  0.12097014  1
  N  N46  1  0.56689678  0.21629186  0.87481191  1
  N  N47  1  0.45723882  0.10330414  0.61835811  1
  N  N48  1  0.22505649  0.53850170  0.32259119  1
  N  N49  1  0.10954736  0.43163314  0.09234596  1
  N  N50  1  0.89088562  0.54036726  0.86902983  1
  N  N51  1  0.75777527  0.43879376  0.63890740  1
  N  N52  1  0.58034929  0.52363224  0.37608335  1
  N  N53  1  0.44882243  0.42592714  0.11322678  1
  N  N54  1  0.23677618  0.51842779  0.83988071  1
  N  N55  1  0.11680723  0.44342735  0.58437095  1
  N  N56  1  0.86713967  0.54816944  0.35916472  1
  N  N57  1  0.77713926  0.42858247  0.11196767  1
  N  N58  1  0.56330343  0.51528517  0.87642212  1
  N  N59  1  0.44862354  0.42563238  0.61270514  1
  N  N60  1  0.22395357  0.87111437  0.34683001  1
  N  N61  1  0.09661115  0.75572649  0.09817852  1
  N  N62  1  0.86431839  0.88877424  0.88229645  1
  N  N63  1  0.79468491  0.76653106  0.63548620  1
  N  N64  1  0.57812172  0.86196189  0.37036370  1
  N  N65  1  0.46830760  0.74686609  0.10138059  1
  N  N66  1  0.22128063  0.86989179  0.85772492  1
  N  N67  1  0.09806595  0.75446448  0.60301353  1
  N  N68  1  0.86405744  0.88383764  0.36813181  1
  N  N69  1  0.77918781  0.75962575  0.11672696  1
  N  N70  1  0.57799928  0.85894775  0.86456298  1
  N  N71  1  0.45503437  0.74111939  0.60957831  1
