# generated using pymatgen
data_Sc4Al5N9
_symmetry_space_group_name_H-M   'P 1'
_cell_length_a   10.35321783
_cell_length_b   10.26435056
_cell_length_c   9.65211124
_cell_angle_alpha   89.91347521
_cell_angle_beta   90.17322746
_cell_angle_gamma   60.11900927
_symmetry_Int_Tables_number   1
_chemical_formula_structural   Sc4Al5N9
_chemical_formula_sum   'Sc16 Al20 N36'
_cell_volume   889.35413749
_cell_formula_units_Z   4
loop_
 _symmetry_equiv_pos_site_id
 _symmetry_equiv_pos_as_xyz
  1  'x, y, z'
loop_
 _atom_site_type_symbol
 _atom_site_label
 _atom_site_symmetry_multiplicity
 _atom_site_fract_x
 _atom_site_fract_y
 _atom_site_fract_z
 _atom_site_occupancy
  Sc  Sc0  1  0.10020312  0.10587271  0.33238249  1
  Sc  Sc1  1  0.87068014  0.21142395  0.58561211  1
  Sc  Sc2  1  0.45582062  0.08953618  0.32466361  1
  Sc  Sc3  1  0.09810278  0.10561995  0.84450506  1
  Sc  Sc4  1  0.22732021  0.21308506  0.59503117  1
  Sc  Sc5  1  0.45236915  0.09952087  0.84844524  1
  Sc  Sc6  1  0.10330109  0.43315221  0.34476337  1
  Sc  Sc7  1  0.88661647  0.54163008  0.59357106  1
  Sc  Sc8  1  0.45369282  0.42242696  0.34569999  1
  Sc  Sc9  1  0.09725001  0.76343404  0.34461361  1
  Sc  Sc10  1  0.22435937  0.86967108  0.09266292  1
  Sc  Sc11  1  0.46185783  0.75125555  0.33511725  1
  Sc  Sc12  1  0.09860806  0.75813713  0.85075249  1
  Sc  Sc13  1  0.22232308  0.86763648  0.59086758  1
  Sc  Sc14  1  0.45554339  0.74570700  0.84163618  1
  Sc  Sc15  1  0.56793736  0.86995848  0.59471744  1
  Al  Al16  1  0.21991781  0.21116589  0.07199040  1
  Al  Al17  1  0.76951509  0.09617842  0.82852774  1
  Al  Al18  1  0.56220543  0.21378190  0.07144026  1
  Al  Al19  1  0.77427503  0.09568295  0.32136390  1
  Al  Al20  1  0.87633923  0.21298336  0.07409243  1
  Al  Al21  1  0.56487609  0.19929735  0.57690273  1
  Al  Al22  1  0.22703122  0.53572800  0.12218291  1
  Al  Al23  1  0.76902694  0.42608059  0.83366426  1
  Al  Al24  1  0.56270427  0.52640134  0.07272675  1
  Al  Al25  1  0.11130537  0.43524269  0.88110244  1
  Al  Al26  1  0.22349668  0.53595390  0.62893992  1
  Al  Al27  1  0.77582480  0.42961516  0.31701556  1
  Al  Al28  1  0.88187853  0.54296849  0.07551726  1
  Al  Al29  1  0.45463827  0.41945721  0.82204463  1
  Al  Al30  1  0.56167595  0.53171879  0.57706593  1
  Al  Al31  1  0.78482118  0.76334487  0.83147684  1
  Al  Al32  1  0.87975710  0.87617732  0.57337960  1
  Al  Al33  1  0.57017706  0.86136537  0.06708759  1
  Al  Al34  1  0.77612243  0.76077847  0.31976659  1
  Al  Al35  1  0.87668102  0.87777899  0.07764615  1
  N  N36  1  0.22977403  0.20190258  0.36643857  1
  N  N37  1  0.09707431  0.11686596  0.09933651  1
  N  N38  1  0.86422452  0.21411242  0.87303301  1
  N  N39  1  0.76944039  0.08209643  0.63192169  1
  N  N40  1  0.57749820  0.19301651  0.38028201  1
  N  N41  1  0.44792728  0.09264671  0.09532421  1
  N  N42  1  0.21409895  0.22555538  0.86543599  1
  N  N43  1  0.10211614  0.10149945  0.61534347  1
  N  N44  1  0.86630030  0.21703677  0.36211652  1
  N  N45  1  0.77555155  0.09643652  0.12349448  1
  N  N46  1  0.56704686  0.21706251  0.87672000  1
  N  N47  1  0.45749809  0.10384662  0.62420193  1
  N  N48  1  0.22496394  0.53836534  0.32130076  1
  N  N49  1  0.10995393  0.43152677  0.09224621  1
  N  N50  1  0.88995716  0.54096342  0.87136751  1
  N  N51  1  0.75825460  0.43804740  0.64022726  1
  N  N52  1  0.58059489  0.52422762  0.38005151  1
  N  N53  1  0.44955148  0.42577936  0.11640468  1
  N  N54  1  0.23641440  0.51771513  0.83524335  1
  N  N55  1  0.11670516  0.44373474  0.57921294  1
  N  N56  1  0.86627711  0.54897165  0.36169354  1
  N  N57  1  0.77700608  0.42868464  0.11583673  1
  N  N58  1  0.56392648  0.51460963  0.87787869  1
  N  N59  1  0.44938515  0.42525564  0.61344756  1
  N  N60  1  0.22442690  0.87093883  0.34802330  1
  N  N61  1  0.09627954  0.75516308  0.09830025  1
  N  N62  1  0.86361162  0.88915859  0.88330753  1
  N  N63  1  0.79410525  0.76710683  0.63742453  1
  N  N64  1  0.57742246  0.86305349  0.37290126  1
  N  N65  1  0.46917126  0.74614202  0.10232999  1
  N  N66  1  0.22153482  0.86946128  0.86210514  1
  N  N67  1  0.09823071  0.75474946  0.60389949  1
  N  N68  1  0.86342809  0.88425884  0.37208569  1
  N  N69  1  0.77890615  0.76019353  0.11990420  1
  N  N70  1  0.57842629  0.85842344  0.86712673  1
  N  N71  1  0.45521569  0.74112726  0.61318779  1
