# generated using pymatgen
data_Sc4Al5N9
_symmetry_space_group_name_H-M   'P 1'
_cell_length_a   10.35910655
_cell_length_b   10.27039394
_cell_length_c   9.63635297
_cell_angle_alpha   89.90472269
_cell_angle_beta   90.15735789
_cell_angle_gamma   60.10007931
_symmetry_Int_Tables_number   1
_chemical_formula_structural   Sc4Al5N9
_chemical_formula_sum   'Sc16 Al20 N36'
_cell_volume   888.76210167
_cell_formula_units_Z   4
loop_
 _symmetry_equiv_pos_site_id
 _symmetry_equiv_pos_as_xyz
  1  'x, y, z'
loop_
 _atom_site_type_symbol
 _atom_site_label
 _atom_site_symmetry_multiplicity
 _atom_site_fract_x
 _atom_site_fract_y
 _atom_site_fract_z
 _atom_site_occupancy
  Sc  Sc0  1  0.10048175  0.10577334  0.33253004  1
  Sc  Sc1  1  0.87076719  0.21126193  0.58529510  1
  Sc  Sc2  1  0.45527940  0.09014708  0.32470869  1
  Sc  Sc3  1  0.09811286  0.10520873  0.84442088  1
  Sc  Sc4  1  0.22727064  0.21280611  0.59588586  1
  Sc  Sc5  1  0.45271062  0.09944953  0.84832551  1
  Sc  Sc6  1  0.10283047  0.43320525  0.34541346  1
  Sc  Sc7  1  0.88621586  0.54179698  0.59482943  1
  Sc  Sc8  1  0.45338233  0.42259776  0.34549166  1
  Sc  Sc9  1  0.09734381  0.76319739  0.34431781  1
  Sc  Sc10  1  0.22452358  0.86952470  0.09276313  1
  Sc  Sc11  1  0.46193583  0.75130847  0.33516180  1
  Sc  Sc12  1  0.09867774  0.75808698  0.85086216  1
  Sc  Sc13  1  0.22244380  0.86727949  0.59084290  1
  Sc  Sc14  1  0.45579404  0.74567916  0.84153175  1
  Sc  Sc15  1  0.56786234  0.87018236  0.59420049  1
  Al  Al16  1  0.21954395  0.21165991  0.07102256  1
  Al  Al17  1  0.76962948  0.09618042  0.82846519  1
  Al  Al18  1  0.56214418  0.21394168  0.07141073  1
  Al  Al19  1  0.77425275  0.09573704  0.32109543  1
  Al  Al20  1  0.87650313  0.21297539  0.07430294  1
  Al  Al21  1  0.56492799  0.19938622  0.57671538  1
  Al  Al22  1  0.22669519  0.53540431  0.12148119  1
  Al  Al23  1  0.76880530  0.42573035  0.83357729  1
  Al  Al24  1  0.56273699  0.52649817  0.07291939  1
  Al  Al25  1  0.11139392  0.43511535  0.87847826  1
  Al  Al26  1  0.22369976  0.53601953  0.62875458  1
  Al  Al27  1  0.77604790  0.42980415  0.31685407  1
  Al  Al28  1  0.88242463  0.54272725  0.07422204  1
  Al  Al29  1  0.45470917  0.41959226  0.82215823  1
  Al  Al30  1  0.56169562  0.53161726  0.57661787  1
  Al  Al31  1  0.78460605  0.76388938  0.83128675  1
  Al  Al32  1  0.87976852  0.87625352  0.57303981  1
  Al  Al33  1  0.57021105  0.86135606  0.06734809  1
  Al  Al34  1  0.77628013  0.76054619  0.31964319  1
  Al  Al35  1  0.87671588  0.87773928  0.07775973  1
  N  N36  1  0.22938283  0.20225158  0.36710924  1
  N  N37  1  0.09736586  0.11682097  0.09889220  1
  N  N38  1  0.86433825  0.21393572  0.87279565  1
  N  N39  1  0.76949964  0.08213177  0.63145590  1
  N  N40  1  0.57742957  0.19321702  0.37972608  1
  N  N41  1  0.44755354  0.09313113  0.09501417  1
  N  N42  1  0.21417876  0.22526495  0.86414506  1
  N  N43  1  0.10214102  0.10101117  0.61486797  1
  N  N44  1  0.86646990  0.21701973  0.36133483  1
  N  N45  1  0.77552260  0.09650574  0.12304553  1
  N  N46  1  0.56714240  0.21711988  0.87632349  1
  N  N47  1  0.45762409  0.10388649  0.62367047  1
  N  N48  1  0.22457872  0.53797782  0.32132027  1
  N  N49  1  0.10964088  0.43153430  0.09132877  1
  N  N50  1  0.88992853  0.54105988  0.86991497  1
  N  N51  1  0.75806029  0.43771097  0.63984637  1
  N  N52  1  0.58057340  0.52410896  0.37918809  1
  N  N53  1  0.44933416  0.42594028  0.11602292  1
  N  N54  1  0.23678099  0.51789131  0.83549878  1
  N  N55  1  0.11643186  0.44360652  0.58151331  1
  N  N56  1  0.86610985  0.54909935  0.36252354  1
  N  N57  1  0.77733012  0.42886298  0.11523648  1
  N  N58  1  0.56389493  0.51468543  0.87772955  1
  N  N59  1  0.44931556  0.42539759  0.61304278  1
  N  N60  1  0.22450243  0.87072429  0.34747002  1
  N  N61  1  0.09633818  0.75508141  0.09816073  1
  N  N62  1  0.86369191  0.88921763  0.88305335  1
  N  N63  1  0.79376020  0.76762193  0.63691000  1
  N  N64  1  0.57728416  0.86344495  0.37187964  1
  N  N65  1  0.46920028  0.74619195  0.10207403  1
  N  N66  1  0.22177715  0.86911426  0.86162209  1
  N  N67  1  0.09822506  0.75461738  0.60346542  1
  N  N68  1  0.86351823  0.88422976  0.37140524  1
  N  N69  1  0.77923701  0.75976129  0.11937133  1
  N  N70  1  0.57838035  0.85856662  0.86696141  1
  N  N71  1  0.45548141  0.74107753  0.61244229  1
