# generated using pymatgen
data_Sc4Al5N9
_symmetry_space_group_name_H-M   'P 1'
_cell_length_a   10.61377474
_cell_length_b   10.49537386
_cell_length_c   8.95408949
_cell_angle_alpha   89.95391355
_cell_angle_beta   90.12409416
_cell_angle_gamma   59.96715668
_symmetry_Int_Tables_number   1
_chemical_formula_structural   Sc4Al5N9
_chemical_formula_sum   'Sc16 Al20 N36'
_cell_volume   863.52311051
_cell_formula_units_Z   4
loop_
 _symmetry_equiv_pos_site_id
 _symmetry_equiv_pos_as_xyz
  1  'x, y, z'
loop_
 _atom_site_type_symbol
 _atom_site_label
 _atom_site_symmetry_multiplicity
 _atom_site_fract_x
 _atom_site_fract_y
 _atom_site_fract_z
 _atom_site_occupancy
  Sc  Sc0  1  0.10045266  0.10506743  0.34578206  1
  Sc  Sc1  1  0.86805551  0.21367056  0.59722439  1
  Sc  Sc2  1  0.45560154  0.09365468  0.34436444  1
  Sc  Sc3  1  0.09927633  0.10745478  0.85196482  1
  Sc  Sc4  1  0.22639522  0.21423335  0.60158393  1
  Sc  Sc5  1  0.45151763  0.09636659  0.85775709  1
  Sc  Sc6  1  0.10523645  0.43754385  0.34208858  1
  Sc  Sc7  1  0.88632424  0.53995425  0.60642118  1
  Sc  Sc8  1  0.45303943  0.42485124  0.35111818  1
  Sc  Sc9  1  0.09811232  0.76078299  0.35164198  1
  Sc  Sc10  1  0.22223804  0.87095321  0.10078975  1
  Sc  Sc11  1  0.45996642  0.74615015  0.34838632  1
  Sc  Sc12  1  0.09927244  0.75832496  0.85398804  1
  Sc  Sc13  1  0.22210009  0.86758125  0.60032222  1
  Sc  Sc14  1  0.45415853  0.75408128  0.85537276  1
  Sc  Sc15  1  0.57080982  0.86631779  0.60078103  1
  Al  Al16  1  0.22009937  0.21203500  0.09892087  1
  Al  Al17  1  0.77316343  0.09680649  0.87353006  1
  Al  Al18  1  0.56293126  0.20616503  0.10661088  1
  Al  Al19  1  0.77262419  0.09248890  0.35299211  1
  Al  Al20  1  0.88052991  0.20844379  0.09660364  1
  Al  Al21  1  0.56234598  0.20625050  0.62381080  1
  Al  Al22  1  0.22552069  0.53482454  0.10271441  1
  Al  Al23  1  0.77298705  0.42431507  0.85543310  1
  Al  Al24  1  0.56194734  0.53056295  0.09464963  1
  Al  Al25  1  0.11193108  0.43182039  0.86624821  1
  Al  Al26  1  0.22800327  0.53407112  0.62498784  1
  Al  Al27  1  0.77697681  0.42928315  0.31234538  1
  Al  Al28  1  0.88777501  0.54093373  0.09089648  1
  Al  Al29  1  0.44838615  0.42087001  0.86766646  1
  Al  Al30  1  0.55477422  0.52964293  0.63343796  1
  Al  Al31  1  0.78190287  0.76213612  0.87178246  1
  Al  Al32  1  0.87786005  0.87818076  0.61789080  1
  Al  Al33  1  0.56742871  0.86488498  0.10522146  1
  Al  Al34  1  0.78110311  0.76042000  0.34986200  1
  Al  Al35  1  0.87982212  0.87559543  0.11098182  1
  N  N36  1  0.22537124  0.20826231  0.33865927  1
  N  N37  1  0.09839969  0.11403208  0.09803280  1
  N  N38  1  0.86869894  0.21012919  0.85610679  1
  N  N39  1  0.76571930  0.08603675  0.57938794  1
  N  N40  1  0.57359880  0.19974153  0.32253832  1
  N  N41  1  0.44830282  0.09176337  0.09700235  1
  N  N42  1  0.21714336  0.22269824  0.85615446  1
  N  N43  1  0.10166039  0.10440771  0.59866883  1
  N  N44  1  0.86588529  0.21759191  0.33558447  1
  N  N45  1  0.77916947  0.09259771  0.08972190  1
  N  N46  1  0.56818633  0.21211440  0.84670363  1
  N  N47  1  0.45775217  0.10352035  0.60051417  1
  N  N48  1  0.22839991  0.53764290  0.32312052  1
  N  N49  1  0.10939267  0.43157904  0.08901675  1
  N  N50  1  0.89344110  0.54294834  0.85968567  1
  N  N51  1  0.75607652  0.44041945  0.62723780  1
  N  N52  1  0.57811598  0.52242483  0.31737610  1
  N  N53  1  0.44454958  0.42492051  0.08646454  1
  N  N54  1  0.23534036  0.52005045  0.84864994  1
  N  N55  1  0.11668590  0.44275848  0.59513870  1
  N  N56  1  0.87109961  0.54429469  0.33286697  1
  N  N57  1  0.78221701  0.42645058  0.08501530  1
  N  N58  1  0.56003755  0.52040832  0.86003439  1
  N  N59  1  0.44642971  0.42672082  0.60474854  1
  N  N60  1  0.22261151  0.87001022  0.34790704  1
  N  N61  1  0.09620066  0.75643051  0.09469851  1
  N  N62  1  0.86492883  0.88681563  0.84071069  1
  N  N63  1  0.79312281  0.76434568  0.57954350  1
  N  N64  1  0.57590588  0.86091196  0.33918026  1
  N  N65  1  0.46186548  0.75372192  0.09706102  1
  N  N66  1  0.22045358  0.87182968  0.85141862  1
  N  N67  1  0.09874328  0.75342769  0.60264940  1
  N  N68  1  0.86854868  0.88223185  0.32761904  1
  N  N69  1  0.78081190  0.76023559  0.09167789  1
  N  N70  1  0.57786699  0.86122031  0.85052675  1
  N  N71  1  0.45679835  0.73808299  0.60177864  1
