# generated using pymatgen
data_Sc4Al5N9
_symmetry_space_group_name_H-M   'P 1'
_cell_length_a   10.60075173
_cell_length_b   10.47638865
_cell_length_c   8.98692067
_cell_angle_alpha   89.97793292
_cell_angle_beta   90.24198141
_cell_angle_gamma   60.05337937
_symmetry_Int_Tables_number   1
_chemical_formula_structural   Sc4Al5N9
_chemical_formula_sum   'Sc16 Al20 N36'
_cell_volume   864.80358807
_cell_formula_units_Z   4
loop_
 _symmetry_equiv_pos_site_id
 _symmetry_equiv_pos_as_xyz
  1  'x, y, z'
loop_
 _atom_site_type_symbol
 _atom_site_label
 _atom_site_symmetry_multiplicity
 _atom_site_fract_x
 _atom_site_fract_y
 _atom_site_fract_z
 _atom_site_occupancy
  Sc  Sc0  1  0.09994429  0.10530938  0.34569929  1
  Sc  Sc1  1  0.86814311  0.21389151  0.59596208  1
  Sc  Sc2  1  0.45603410  0.09093051  0.34170976  1
  Sc  Sc3  1  0.09900246  0.10739002  0.85195779  1
  Sc  Sc4  1  0.22629263  0.21384662  0.60147524  1
  Sc  Sc5  1  0.45175432  0.09898544  0.85405374  1
  Sc  Sc6  1  0.10455989  0.43764743  0.34329067  1
  Sc  Sc7  1  0.88594891  0.53998760  0.60592117  1
  Sc  Sc8  1  0.45198419  0.42691887  0.34887241  1
  Sc  Sc9  1  0.10043023  0.75979630  0.34785285  1
  Sc  Sc10  1  0.22270177  0.87142570  0.10067938  1
  Sc  Sc11  1  0.46113051  0.74729520  0.34872445  1
  Sc  Sc12  1  0.09609861  0.76088895  0.85246756  1
  Sc  Sc13  1  0.22216870  0.86737814  0.60020668  1
  Sc  Sc14  1  0.45315251  0.75332564  0.85536897  1
  Sc  Sc15  1  0.57150416  0.86551432  0.60150058  1
  Al  Al16  1  0.21938092  0.21275781  0.09830864  1
  Al  Al17  1  0.77059489  0.09478287  0.83873459  1
  Al  Al18  1  0.56356111  0.20643372  0.08655013  1
  Al  Al19  1  0.77459510  0.09549455  0.32712069  1
  Al  Al20  1  0.87926313  0.20856364  0.08762370  1
  Al  Al21  1  0.56267776  0.20366687  0.58665368  1
  Al  Al22  1  0.22490490  0.53520559  0.10264436  1
  Al  Al23  1  0.77277400  0.42445475  0.85573751  1
  Al  Al24  1  0.56243297  0.53101126  0.09634692  1
  Al  Al25  1  0.11157716  0.43151099  0.86675344  1
  Al  Al26  1  0.22809207  0.53421519  0.62763505  1
  Al  Al27  1  0.77778006  0.42933048  0.31383739  1
  Al  Al28  1  0.88825206  0.54030622  0.08343664  1
  Al  Al29  1  0.44892058  0.41995308  0.86534720  1
  Al  Al30  1  0.55465457  0.52911680  0.63431946  1
  Al  Al31  1  0.78445233  0.76345534  0.84696885  1
  Al  Al32  1  0.87891530  0.87586534  0.57929655  1
  Al  Al33  1  0.56784277  0.86519672  0.08791619  1
  Al  Al34  1  0.77865709  0.75856287  0.32165454  1
  Al  Al35  1  0.87890831  0.87766092  0.08816667  1
  N  N36  1  0.22570255  0.20795149  0.34046298  1
  N  N37  1  0.09745978  0.11452450  0.09897461  1
  N  N38  1  0.86754084  0.20974997  0.86298731  1
  N  N39  1  0.76850714  0.08334687  0.61873437  1
  N  N40  1  0.57585200  0.19864806  0.36262021  1
  N  N41  1  0.45123862  0.09237381  0.09917418  1
  N  N42  1  0.21734081  0.22255438  0.85884898  1
  N  N43  1  0.10151089  0.10420126  0.60060503  1
  N  N44  1  0.86618195  0.21856901  0.34523583  1
  N  N45  1  0.77664316  0.09494981  0.11252858  1
  N  N46  1  0.56724564  0.21243555  0.86725660  1
  N  N47  1  0.45653075  0.10188357  0.60387913  1
  N  N48  1  0.22781764  0.53710913  0.32353848  1
  N  N49  1  0.10827989  0.43191320  0.09090667  1
  N  N50  1  0.89334920  0.54013908  0.86330073  1
  N  N51  1  0.75601867  0.43981666  0.63193560  1
  N  N52  1  0.57873188  0.52313991  0.32014990  1
  N  N53  1  0.44533760  0.42467431  0.09183308  1
  N  N54  1  0.23443675  0.52126300  0.85255771  1
  N  N55  1  0.11688104  0.44265328  0.59781128  1
  N  N56  1  0.87033445  0.54573871  0.34460412  1
  N  N57  1  0.78253508  0.42673227  0.08960837  1
  N  N58  1  0.56008783  0.52011775  0.86305705  1
  N  N59  1  0.44546606  0.42674386  0.60898916  1
  N  N60  1  0.22357635  0.87033201  0.34847234  1
  N  N61  1  0.09615069  0.75748769  0.09832191  1
  N  N62  1  0.86663150  0.88761896  0.87398650  1
  N  N63  1  0.79354063  0.76502471  0.62670547  1
  N  N64  1  0.57838463  0.85987909  0.35254938  1
  N  N65  1  0.46241818  0.75423387  0.09843654  1
  N  N66  1  0.21993250  0.87194760  0.85238800  1
  N  N67  1  0.09877641  0.75317768  0.60214273  1
  N  N68  1  0.86630077  0.88182978  0.35748449  1
  N  N69  1  0.78129906  0.75893500  0.10427811  1
  N  N70  1  0.57676210  0.86192241  0.86092727  1
  N  N71  1  0.45673514  0.73781520  0.60433080  1
