# generated using pymatgen
data_Sc4Al5N9
_symmetry_space_group_name_H-M   'P 1'
_cell_length_a   10.37462529
_cell_length_b   10.28247815
_cell_length_c   9.59163846
_cell_angle_alpha   89.91940382
_cell_angle_beta   90.16380915
_cell_angle_gamma   60.11105000
_symmetry_Int_Tables_number   1
_chemical_formula_structural   Sc4Al5N9
_chemical_formula_sum   'Sc16 Al20 N36'
_cell_volume   887.10382299
_cell_formula_units_Z   4
loop_
 _symmetry_equiv_pos_site_id
 _symmetry_equiv_pos_as_xyz
  1  'x, y, z'
loop_
 _atom_site_type_symbol
 _atom_site_label
 _atom_site_symmetry_multiplicity
 _atom_site_fract_x
 _atom_site_fract_y
 _atom_site_fract_z
 _atom_site_occupancy
  Sc  Sc0  1  0.10004430  0.10592415  0.33454628  1
  Sc  Sc1  1  0.87033994  0.21159384  0.58695467  1
  Sc  Sc2  1  0.45585880  0.08949470  0.32645739  1
  Sc  Sc3  1  0.09819032  0.10575994  0.84523894  1
  Sc  Sc4  1  0.22722903  0.21328635  0.59578291  1
  Sc  Sc5  1  0.45239581  0.09957269  0.84882556  1
  Sc  Sc6  1  0.10317604  0.43355414  0.34456738  1
  Sc  Sc7  1  0.88685611  0.54137515  0.59512074  1
  Sc  Sc8  1  0.45328429  0.42264024  0.34625683  1
  Sc  Sc9  1  0.09754683  0.76319790  0.34542826  1
  Sc  Sc10  1  0.22424891  0.86990680  0.09385734  1
  Sc  Sc11  1  0.46159166  0.75138629  0.33672989  1
  Sc  Sc12  1  0.09847380  0.75816767  0.85140270  1
  Sc  Sc13  1  0.22221997  0.86758068  0.59263971  1
  Sc  Sc14  1  0.45557498  0.74567537  0.84253389  1
  Sc  Sc15  1  0.56834812  0.86951008  0.59580315  1
  Al  Al16  1  0.21988840  0.21125076  0.07365726  1
  Al  Al17  1  0.76954733  0.09593263  0.82928581  1
  Al  Al18  1  0.56220960  0.21364896  0.07239403  1
  Al  Al19  1  0.77436842  0.09580631  0.32168153  1
  Al  Al20  1  0.87649967  0.21279313  0.07483771  1
  Al  Al21  1  0.56496798  0.19932831  0.57726427  1
  Al  Al22  1  0.22714273  0.53571287  0.12107922  1
  Al  Al23  1  0.76881291  0.42611210  0.83474653  1
  Al  Al24  1  0.56251763  0.52655089  0.07370912  1
  Al  Al25  1  0.11148111  0.43489608  0.88006702  1
  Al  Al26  1  0.22369150  0.53600243  0.62864349  1
  Al  Al27  1  0.77594311  0.42957588  0.31727856  1
  Al  Al28  1  0.88219221  0.54274491  0.07601471  1
  Al  Al29  1  0.45440445  0.41959589  0.82330622  1
  Al  Al30  1  0.56168011  0.53160575  0.57745991  1
  Al  Al31  1  0.78497479  0.76339510  0.83240972  1
  Al  Al32  1  0.87965715  0.87618016  0.57354863  1
  Al  Al33  1  0.57004149  0.86149536  0.06799780  1
  Al  Al34  1  0.77626007  0.76049406  0.32009617  1
  Al  Al35  1  0.87680283  0.87777999  0.07873664  1
  N  N36  1  0.22933519  0.20261217  0.36496812  1
  N  N37  1  0.09699048  0.11683893  0.09916732  1
  N  N38  1  0.86441162  0.21386850  0.87200629  1
  N  N39  1  0.76934856  0.08195424  0.63129505  1
  N  N40  1  0.57753839  0.19334662  0.37921253  1
  N  N41  1  0.44809439  0.09253428  0.09564216  1
  N  N42  1  0.21440701  0.22532463  0.86472985  1
  N  N43  1  0.10202314  0.10174561  0.61358519  1
  N  N44  1  0.86610883  0.21720432  0.36164029  1
  N  N45  1  0.77561317  0.09657039  0.12274217  1
  N  N46  1  0.56700547  0.21686755  0.87620010  1
  N  N47  1  0.45745157  0.10367955  0.62247150  1
  N  N48  1  0.22494271  0.53840703  0.32188759  1
  N  N49  1  0.10985957  0.43154238  0.09233087  1
  N  N50  1  0.89028624  0.54077517  0.87058032  1
  N  N51  1  0.75805754  0.43831445  0.63985533  1
  N  N52  1  0.58051809  0.52403913  0.37882462  1
  N  N53  1  0.44928152  0.42586897  0.11561614  1
  N  N54  1  0.23659346  0.51791867  0.83661579  1
  N  N55  1  0.11669585  0.44364432  0.58095947  1
  N  N56  1  0.86654613  0.54870601  0.36107249  1
  N  N57  1  0.77706058  0.42865935  0.11469146  1
  N  N58  1  0.56371110  0.51477746  0.87749200  1
  N  N59  1  0.44917283  0.42536310  0.61312622  1
  N  N60  1  0.22427018  0.87099316  0.34751159  1
  N  N61  1  0.09642177  0.75529115  0.09824595  1
  N  N62  1  0.86383385  0.88903791  0.88306597  1
  N  N63  1  0.79432229  0.76693874  0.63683986  1
  N  N64  1  0.57767006  0.86270682  0.37229139  1
  N  N65  1  0.46889053  0.74638903  0.10201201  1
  N  N66  1  0.22143651  0.86957382  0.86053812  1
  N  N67  1  0.09815556  0.75465832  0.60351357  1
  N  N68  1  0.86361865  0.88414106  0.37085841  1
  N  N69  1  0.77898725  0.75999472  0.11899076  1
  N  N70  1  0.57831392  0.85858076  0.86625825  1
  N  N71  1  0.45515953  0.74111166  0.61204171  1
