# generated using pymatgen
data_Sc4Al5N9
_symmetry_space_group_name_H-M   'P 1'
_cell_length_a   10.27971091
_cell_length_b   10.20214128
_cell_length_c   9.77503598
_cell_angle_alpha   89.90192422
_cell_angle_beta   89.82619718
_cell_angle_gamma   60.19540245
_symmetry_Int_Tables_number   1
_chemical_formula_structural   Sc4Al5N9
_chemical_formula_sum   'Sc16 Al20 N36'
_cell_volume   889.55127360
_cell_formula_units_Z   4
loop_
 _symmetry_equiv_pos_site_id
 _symmetry_equiv_pos_as_xyz
  1  'x, y, z'
loop_
 _atom_site_type_symbol
 _atom_site_label
 _atom_site_symmetry_multiplicity
 _atom_site_fract_x
 _atom_site_fract_y
 _atom_site_fract_z
 _atom_site_occupancy
  Sc  Sc0  1  0.10160119  0.10131064  0.36191848  1
  Sc  Sc1  1  0.87176826  0.21127588  0.61438206  1
  Sc  Sc2  1  0.45590048  0.09435218  0.36206335  1
  Sc  Sc3  1  0.09623259  0.11116815  0.87748955  1
  Sc  Sc4  1  0.22447577  0.21775451  0.62082505  1
  Sc  Sc5  1  0.45018984  0.09467351  0.87608358  1
  Sc  Sc6  1  0.10463073  0.43842718  0.35555703  1
  Sc  Sc7  1  0.89164193  0.54089909  0.62630837  1
  Sc  Sc8  1  0.45132302  0.42367183  0.37128125  1
  Sc  Sc9  1  0.09825389  0.76011865  0.37709134  1
  Sc  Sc10  1  0.22171960  0.86830608  0.11455723  1
  Sc  Sc11  1  0.45580392  0.74774843  0.36624480  1
  Sc  Sc12  1  0.09956255  0.75659125  0.86487107  1
  Sc  Sc13  1  0.22301904  0.86935824  0.62395180  1
  Sc  Sc14  1  0.45984948  0.74926900  0.87219302  1
  Sc  Sc15  1  0.56933939  0.86757807  0.61496875  1
  Al  Al16  1  0.22111177  0.20972771  0.13113535  1
  Al  Al17  1  0.77260575  0.10027795  0.88377856  1
  Al  Al18  1  0.56474830  0.20491718  0.12546008  1
  Al  Al19  1  0.77208217  0.09108972  0.37782062  1
  Al  Al20  1  0.87542678  0.21384909  0.13704128  1
  Al  Al21  1  0.55995378  0.20801909  0.63808070  1
  Al  Al22  1  0.22401208  0.53800145  0.12070615  1
  Al  Al23  1  0.77680324  0.42302535  0.88545400  1
  Al  Al24  1  0.56705512  0.52918322  0.12542643  1
  Al  Al25  1  0.11057175  0.43010204  0.89399948  1
  Al  Al26  1  0.23057742  0.53070899  0.64187914  1
  Al  Al27  1  0.77009373  0.43388395  0.37725752  1
  Al  Al28  1  0.88008563  0.54193991  0.12514483  1
  Al  Al29  1  0.45275758  0.41981417  0.88321016  1
  Al  Al30  1  0.55726589  0.52846464  0.63846936  1
  Al  Al31  1  0.77953166  0.76180335  0.88866428  1
  Al  Al32  1  0.87737573  0.87758048  0.63599907  1
  Al  Al33  1  0.56837704  0.86414610  0.13578705  1
  Al  Al34  1  0.78276581  0.76107478  0.37318981  1
  Al  Al35  1  0.88061673  0.87551880  0.12784834  1
  N  N36  1  0.22564807  0.20745666  0.32866039  1
  N  N37  1  0.09479065  0.11607627  0.10433291  1
  N  N38  1  0.86656900  0.21593345  0.83329737  1
  N  N39  1  0.76477363  0.08383342  0.57397054  1
  N  N40  1  0.57682278  0.19915663  0.31582522  1
  N  N41  1  0.44827984  0.09078093  0.10027135  1
  N  N42  1  0.21434827  0.22595893  0.84241760  1
  N  N43  1  0.10530788  0.10231132  0.58832370  1
  N  N44  1  0.86367463  0.21676045  0.33701959  1
  N  N45  1  0.78011851  0.09488333  0.07869357  1
  N  N46  1  0.56680703  0.21237919  0.83484238  1
  N  N47  1  0.45636451  0.10505862  0.59103362  1
  N  N48  1  0.22843587  0.54132040  0.31237333  1
  N  N49  1  0.10868688  0.42979315  0.09288224  1
  N  N50  1  0.89216947  0.53954082  0.84975939  1
  N  N51  1  0.75596733  0.44376188  0.57202495  1
  N  N52  1  0.57534413  0.52319401  0.31602237  1
  N  N53  1  0.44805195  0.42612491  0.08096723  1
  N  N54  1  0.23728027  0.51463644  0.84023409  1
  N  N55  1  0.11918335  0.44552746  0.57364045  1
  N  N56  1  0.86738122  0.54839263  0.32407053  1
  N  N57  1  0.77962660  0.42490489  0.07979135  1
  N  N58  1  0.56938829  0.51469740  0.83494243  1
  N  N59  1  0.44613780  0.42631342  0.59400018  1
  N  N60  1  0.22137549  0.86758006  0.34139801  1
  N  N61  1  0.09486708  0.75446093  0.08685412  1
  N  N62  1  0.86176784  0.88812072  0.83152394  1
  N  N63  1  0.79608503  0.76438787  0.56656507  1
  N  N64  1  0.57705564  0.86025120  0.33523636  1
  N  N65  1  0.46693772  0.74936937  0.09733357  1
  N  N66  1  0.22230177  0.87357533  0.85507685  1
  N  N67  1  0.10005385  0.75276243  0.61020323  1
  N  N68  1  0.86882789  0.88364349  0.32074718  1
  N  N69  1  0.77822273  0.76161159  0.08339493  1
  N  N70  1  0.57923924  0.86054345  0.83229444  1
  N  N71  1  0.45583521  0.73864840  0.59623994  1
