# generated using pymatgen
data_Sc4Al5N9
_symmetry_space_group_name_H-M   'P 1'
_cell_length_a   10.36854984
_cell_length_b   10.27917958
_cell_length_c   9.60466743
_cell_angle_alpha   89.87767375
_cell_angle_beta   90.11384150
_cell_angle_gamma   60.08779286
_symmetry_Int_Tables_number   1
_chemical_formula_structural   Sc4Al5N9
_chemical_formula_sum   'Sc16 Al20 N36'
_cell_volume   887.29754150
_cell_formula_units_Z   4
loop_
 _symmetry_equiv_pos_site_id
 _symmetry_equiv_pos_as_xyz
  1  'x, y, z'
loop_
 _atom_site_type_symbol
 _atom_site_label
 _atom_site_symmetry_multiplicity
 _atom_site_fract_x
 _atom_site_fract_y
 _atom_site_fract_z
 _atom_site_occupancy
  Sc  Sc0  1  0.10073464  0.10607316  0.33301257  1
  Sc  Sc1  1  0.87084256  0.21105086  0.58570330  1
  Sc  Sc2  1  0.45418344  0.09111154  0.32503925  1
  Sc  Sc3  1  0.09803366  0.10449639  0.84481878  1
  Sc  Sc4  1  0.22774548  0.21107924  0.59736130  1
  Sc  Sc5  1  0.45337307  0.09915157  0.84878380  1
  Sc  Sc6  1  0.10172698  0.43276393  0.34300231  1
  Sc  Sc7  1  0.88434620  0.54250529  0.59630628  1
  Sc  Sc8  1  0.45301899  0.42266573  0.34549286  1
  Sc  Sc9  1  0.09747316  0.76292984  0.34405621  1
  Sc  Sc10  1  0.22472061  0.86970344  0.09349741  1
  Sc  Sc11  1  0.46191661  0.75143662  0.33567000  1
  Sc  Sc12  1  0.09890870  0.75804014  0.85205185  1
  Sc  Sc13  1  0.22248668  0.86688952  0.59118174  1
  Sc  Sc14  1  0.45601156  0.74557279  0.84199129  1
  Sc  Sc15  1  0.56774717  0.87041362  0.59402251  1
  Al  Al16  1  0.21726240  0.21519303  0.06793444  1
  Al  Al17  1  0.76982154  0.09604390  0.82892900  1
  Al  Al18  1  0.56190726  0.21404078  0.07198459  1
  Al  Al19  1  0.77426809  0.09579958  0.32114282  1
  Al  Al20  1  0.87667920  0.21311677  0.07487126  1
  Al  Al21  1  0.56513157  0.19926487  0.57691087  1
  Al  Al22  1  0.22561876  0.53438446  0.11968777  1
  Al  Al23  1  0.76851839  0.42547882  0.83395932  1
  Al  Al24  1  0.56293924  0.52662880  0.07391402  1
  Al  Al25  1  0.11108511  0.43478818  0.85836385  1
  Al  Al26  1  0.22529742  0.53698786  0.62880000  1
  Al  Al27  1  0.77653135  0.42999535  0.31684930  1
  Al  Al28  1  0.88570764  0.54112168  0.07112812  1
  Al  Al29  1  0.45521726  0.41978095  0.82331534  1
  Al  Al30  1  0.56164314  0.53148093  0.57629002  1
  Al  Al31  1  0.78428961  0.76453696  0.83138634  1
  Al  Al32  1  0.87977731  0.87635488  0.57293188  1
  Al  Al33  1  0.57048951  0.86105787  0.06819844  1
  Al  Al34  1  0.77661433  0.76016311  0.31965302  1
  Al  Al35  1  0.87673011  0.87759050  0.07856146  1
  N  N36  1  0.22842946  0.20367023  0.37024613  1
  N  N37  1  0.09765647  0.11727975  0.09850353  1
  N  N38  1  0.86444454  0.21376222  0.87247107  1
  N  N39  1  0.76960242  0.08206767  0.63112544  1
  N  N40  1  0.57729642  0.19329501  0.37917291  1
  N  N41  1  0.44679380  0.09418744  0.09487621  1
  N  N42  1  0.21448688  0.22448943  0.86234484  1
  N  N43  1  0.10203412  0.10010655  0.61467866  1
  N  N44  1  0.86675322  0.21700473  0.36078374  1
  N  N45  1  0.77551093  0.09664434  0.12268258  1
  N  N46  1  0.56738493  0.21711494  0.87613700  1
  N  N47  1  0.45807272  0.10359636  0.62331321  1
  N  N48  1  0.22375675  0.53695719  0.32393745  1
  N  N49  1  0.10843848  0.43163329  0.09370031  1
  N  N50  1  0.88964327  0.54100877  0.86735636  1
  N  N51  1  0.75742584  0.43730903  0.63958767  1
  N  N52  1  0.58065417  0.52395308  0.37804200  1
  N  N53  1  0.44874494  0.42618368  0.11611044  1
  N  N54  1  0.23867243  0.51917464  0.83773003  1
  N  N55  1  0.11541055  0.44274663  0.59952078  1
  N  N56  1  0.86652616  0.54906218  0.36505318  1
  N  N57  1  0.77814161  0.42914670  0.11458643  1
  N  N58  1  0.56410333  0.51479865  0.87807908  1
  N  N59  1  0.44947106  0.42541778  0.61277386  1
  N  N60  1  0.22445305  0.87088005  0.34701825  1
  N  N61  1  0.09649158  0.75493775  0.09902821  1
  N  N62  1  0.86386818  0.88912962  0.88309539  1
  N  N63  1  0.79310221  0.76849229  0.63636337  1
  N  N64  1  0.57713967  0.86393096  0.37055461  1
  N  N65  1  0.46910119  0.74631525  0.10209823  1
  N  N66  1  0.22203756  0.86875820  0.86144390  1
  N  N67  1  0.09821104  0.75445573  0.60289777  1
  N  N68  1  0.86369522  0.88416295  0.37065471  1
  N  N69  1  0.78010865  0.75856722  0.11871632  1
  N  N70  1  0.57831265  0.85861134  0.86695226  1
  N  N71  1  0.45567370  0.74095493  0.61165611  1
