# generated using pymatgen
data_Sc4Al5N9
_symmetry_space_group_name_H-M   'P 1'
_cell_length_a   10.14415469
_cell_length_b   10.09660055
_cell_length_c   10.13221395
_cell_angle_alpha   89.95161579
_cell_angle_beta   90.08028148
_cell_angle_gamma   60.12499308
_symmetry_Int_Tables_number   1
_chemical_formula_structural   Sc4Al5N9
_chemical_formula_sum   'Sc16 Al20 N36'
_cell_volume   899.85084944
_cell_formula_units_Z   4
loop_
 _symmetry_equiv_pos_site_id
 _symmetry_equiv_pos_as_xyz
  1  'x, y, z'
loop_
 _atom_site_type_symbol
 _atom_site_label
 _atom_site_symmetry_multiplicity
 _atom_site_fract_x
 _atom_site_fract_y
 _atom_site_fract_z
 _atom_site_occupancy
  Sc  Sc0  1  0.10112793  0.10724576  0.29182878  1
  Sc  Sc1  1  0.87285803  0.21086268  0.55262719  1
  Sc  Sc2  1  0.45301647  0.09295289  0.29040961  1
  Sc  Sc3  1  0.09850394  0.10309908  0.81506021  1
  Sc  Sc4  1  0.22678163  0.21242877  0.56430765  1
  Sc  Sc5  1  0.45214993  0.09762294  0.82065753  1
  Sc  Sc6  1  0.10525254  0.43318117  0.29615033  1
  Sc  Sc7  1  0.88509625  0.54333824  0.56077073  1
  Sc  Sc8  1  0.45208172  0.42320944  0.30983530  1
  Sc  Sc9  1  0.09856675  0.75955982  0.30208985  1
  Sc  Sc10  1  0.22416597  0.86722879  0.05810341  1
  Sc  Sc11  1  0.46272652  0.74957318  0.29985982  1
  Sc  Sc12  1  0.10039966  0.75652023  0.80610669  1
  Sc  Sc13  1  0.22138693  0.86935266  0.54850904  1
  Sc  Sc14  1  0.45475669  0.74644594  0.80796287  1
  Sc  Sc15  1  0.56538505  0.87282158  0.55834518  1
  Al  Al16  1  0.21517946  0.21812584  0.03460927  1
  Al  Al17  1  0.76965964  0.09741004  0.80080973  1
  Al  Al18  1  0.56084309  0.21179561  0.04206407  1
  Al  Al19  1  0.77418959  0.09500825  0.29517980  1
  Al  Al20  1  0.87565757  0.21384926  0.04510778  1
  Al  Al21  1  0.56189521  0.20281713  0.55212290  1
  Al  Al22  1  0.22678981  0.52987878  0.03914925  1
  Al  Al23  1  0.77040864  0.42664937  0.80419315  1
  Al  Al24  1  0.56335431  0.52752474  0.04355066  1
  Al  Al25  1  0.11159063  0.43458478  0.80151793  1
  Al  Al26  1  0.22451843  0.53953289  0.55378687  1
  Al  Al27  1  0.77668299  0.42917984  0.29089657  1
  Al  Al28  1  0.88795572  0.53983338  0.04163862  1
  Al  Al29  1  0.45175142  0.42130450  0.79576470  1
  Al  Al30  1  0.55953903  0.53152357  0.55080291  1
  Al  Al31  1  0.78340539  0.76225503  0.80256934  1
  Al  Al32  1  0.88061872  0.87680614  0.54725885  1
  Al  Al33  1  0.57031836  0.86079920  0.04008179  1
  Al  Al34  1  0.77744763  0.76133469  0.29197779  1
  Al  Al35  1  0.87870028  0.87457922  0.04670946  1
  N  N36  1  0.22652983  0.20675917  0.35300014  1
  N  N37  1  0.09780577  0.11688419  0.07558593  1
  N  N38  1  0.86325321  0.21569631  0.85546914  1
  N  N39  1  0.76938100  0.08418597  0.61211308  1
  N  N40  1  0.57551036  0.19405706  0.36328794  1
  N  N41  1  0.44573501  0.09472205  0.07128408  1
  N  N42  1  0.21202923  0.22642972  0.84635156  1
  N  N43  1  0.10351644  0.09937973  0.60136207  1
  N  N44  1  0.86882637  0.21549489  0.34031483  1
  N  N45  1  0.77536101  0.09466001  0.10410557  1
  N  N46  1  0.56662653  0.21768823  0.85699741  1
  N  N47  1  0.45690190  0.10407885  0.60820182  1
  N  N48  1  0.22397349  0.53604553  0.36698053  1
  N  N49  1  0.10961218  0.43025520  0.08494930  1
  N  N50  1  0.88933242  0.54011773  0.84968985  1
  N  N51  1  0.75857899  0.43746660  0.61912786  1
  N  N52  1  0.58035622  0.52348850  0.36297734  1
  N  N53  1  0.44460993  0.42736017  0.09698153  1
  N  N54  1  0.23938340  0.51825777  0.85188523  1
  N  N55  1  0.11641431  0.44425511  0.61311816  1
  N  N56  1  0.87072137  0.54805761  0.34540028  1
  N  N57  1  0.77754130  0.42901652  0.09850721  1
  N  N58  1  0.56443674  0.51533162  0.85831843  1
  N  N59  1  0.44724725  0.42653782  0.60062780  1
  N  N60  1  0.22341563  0.87172791  0.32666575  1
  N  N61  1  0.09813393  0.74747300  0.08535870  1
  N  N62  1  0.86537476  0.88770889  0.86129785  1
  N  N63  1  0.79125283  0.76901074  0.61712048  1
  N  N64  1  0.57528100  0.86609100  0.34794113  1
  N  N65  1  0.46936326  0.74539447  0.08339464  1
  N  N66  1  0.22169066  0.86707076  0.84869525  1
  N  N67  1  0.09782767  0.75783035  0.58939099  1
  N  N68  1  0.86575912  0.88352817  0.35524165  1
  N  N69  1  0.78061766  0.75843037  0.10052363  1
  N  N70  1  0.57867367  0.85666339  0.85214517  1
  N  N71  1  0.45416363  0.74260911  0.59317199  1
