# generated using pymatgen
data_Sc4Al5N9
_symmetry_space_group_name_H-M   'P 1'
_cell_length_a   10.62883779
_cell_length_b   10.51187540
_cell_length_c   8.91587680
_cell_angle_alpha   89.91385506
_cell_angle_beta   90.19677580
_cell_angle_gamma   59.97969229
_symmetry_Int_Tables_number   1
_chemical_formula_structural   Sc4Al5N9
_chemical_formula_sum   'Sc16 Al20 N36'
_cell_volume   862.51409059
_cell_formula_units_Z   4
loop_
 _symmetry_equiv_pos_site_id
 _symmetry_equiv_pos_as_xyz
  1  'x, y, z'
loop_
 _atom_site_type_symbol
 _atom_site_label
 _atom_site_symmetry_multiplicity
 _atom_site_fract_x
 _atom_site_fract_y
 _atom_site_fract_z
 _atom_site_occupancy
  Sc  Sc0  1  0.10098124  0.10499083  0.34498405  1
  Sc  Sc1  1  0.86783790  0.21283249  0.59592063  1
  Sc  Sc2  1  0.45595320  0.09244059  0.34305096  1
  Sc  Sc3  1  0.09893186  0.10750519  0.85091886  1
  Sc  Sc4  1  0.22634475  0.21400540  0.60038160  1
  Sc  Sc5  1  0.45070590  0.09782161  0.85639297  1
  Sc  Sc6  1  0.10477051  0.43761470  0.34104658  1
  Sc  Sc7  1  0.88525346  0.54054294  0.60404459  1
  Sc  Sc8  1  0.45310569  0.42477972  0.35070609  1
  Sc  Sc9  1  0.10088983  0.75887280  0.34671362  1
  Sc  Sc10  1  0.22263902  0.87108032  0.09910987  1
  Sc  Sc11  1  0.46085160  0.74665731  0.34705020  1
  Sc  Sc12  1  0.09678628  0.76018455  0.85065440  1
  Sc  Sc13  1  0.22200783  0.86756556  0.59854758  1
  Sc  Sc14  1  0.45320900  0.75341255  0.85343562  1
  Sc  Sc15  1  0.57121244  0.86641151  0.59966173  1
  Al  Al16  1  0.21977569  0.21241938  0.09725135  1
  Al  Al17  1  0.77379990  0.09699930  0.87505070  1
  Al  Al18  1  0.56115892  0.20768013  0.10519936  1
  Al  Al19  1  0.77203378  0.09430718  0.34364896  1
  Al  Al20  1  0.88099964  0.21013378  0.09680293  1
  Al  Al21  1  0.56330047  0.20529979  0.62264410  1
  Al  Al22  1  0.22583440  0.53444741  0.10027243  1
  Al  Al23  1  0.77350459  0.42443731  0.85439544  1
  Al  Al24  1  0.56216341  0.53066304  0.09420197  1
  Al  Al25  1  0.11171616  0.43155122  0.86238137  1
  Al  Al26  1  0.22764965  0.53412135  0.62307478  1
  Al  Al27  1  0.77679574  0.43042652  0.31397395  1
  Al  Al28  1  0.88844104  0.53948936  0.08235237  1
  Al  Al29  1  0.44839955  0.42147784  0.86554506  1
  Al  Al30  1  0.55537808  0.52938321  0.63172905  1
  Al  Al31  1  0.78325199  0.76397892  0.84909470  1
  Al  Al32  1  0.87877323  0.87662887  0.58547385  1
  Al  Al33  1  0.56602553  0.86543482  0.09036170  1
  Al  Al34  1  0.77876566  0.75781663  0.31879386  1
  Al  Al35  1  0.88118702  0.87483216  0.09481768  1
  N  N36  1  0.22542569  0.20848022  0.33889821  1
  N  N37  1  0.09871787  0.11417874  0.09751756  1
  N  N38  1  0.86820279  0.21060769  0.85824320  1
  N  N39  1  0.76576321  0.08596942  0.58009227  1
  N  N40  1  0.57193611  0.20024582  0.32352825  1
  N  N41  1  0.44774296  0.09199835  0.09651245  1
  N  N42  1  0.21701306  0.22248535  0.85602624  1
  N  N43  1  0.10159426  0.10415085  0.59822053  1
  N  N44  1  0.86682396  0.21863864  0.33595836  1
  N  N45  1  0.77914058  0.09431175  0.09869208  1
  N  N46  1  0.56894282  0.21207734  0.84924069  1
  N  N47  1  0.45773221  0.10356634  0.60119550  1
  N  N48  1  0.22901794  0.53600854  0.32412371  1
  N  N49  1  0.10899426  0.43183281  0.08824690  1
  N  N50  1  0.89341639  0.53947960  0.86014311  1
  N  N51  1  0.75632493  0.43947858  0.62579693  1
  N  N52  1  0.57803458  0.52272204  0.31853183  1
  N  N53  1  0.44420266  0.42574081  0.08609777  1
  N  N54  1  0.23459420  0.52094746  0.84849488  1
  N  N55  1  0.11616978  0.44262142  0.59684145  1
  N  N56  1  0.87037026  0.54591821  0.33920351  1
  N  N57  1  0.78220380  0.42741846  0.08666166  1
  N  N58  1  0.56086517  0.52010713  0.85981308  1
  N  N59  1  0.44664642  0.42632108  0.60602747  1
  N  N60  1  0.22340501  0.87002595  0.34686926  1
  N  N61  1  0.09802219  0.75540458  0.09555079  1
  N  N62  1  0.86678342  0.88889035  0.86434061  1
  N  N63  1  0.79245629  0.76530984  0.62154660  1
  N  N64  1  0.57786323  0.86001021  0.34560649  1
  N  N65  1  0.46166757  0.75360057  0.09657022  1
  N  N66  1  0.21978193  0.87193001  0.85014012  1
  N  N67  1  0.09807396  0.75377366  0.59949601  1
  N  N68  1  0.86822115  0.87796246  0.34242364  1
  N  N69  1  0.78082904  0.75840827  0.09652502  1
  N  N70  1  0.57528620  0.86259198  0.85785877  1
  N  N71  1  0.45695433  0.73807353  0.60173423  1
