# generated using pymatgen
data_Sc4Al5N9
_symmetry_space_group_name_H-M   'P 1'
_cell_length_a   10.29304616
_cell_length_b   10.21070880
_cell_length_c   9.82065696
_cell_angle_alpha   89.79807031
_cell_angle_beta   90.06206833
_cell_angle_gamma   60.11880484
_symmetry_Int_Tables_number   1
_chemical_formula_structural   Sc4Al5N9
_chemical_formula_sum   'Sc16 Al20 N36'
_cell_volume   894.92086357
_cell_formula_units_Z   4
loop_
 _symmetry_equiv_pos_site_id
 _symmetry_equiv_pos_as_xyz
  1  'x, y, z'
loop_
 _atom_site_type_symbol
 _atom_site_label
 _atom_site_symmetry_multiplicity
 _atom_site_fract_x
 _atom_site_fract_y
 _atom_site_fract_z
 _atom_site_occupancy
  Sc  Sc0  1  0.10091212  0.10655833  0.32515280  1
  Sc  Sc1  1  0.87233819  0.21024184  0.58225611  1
  Sc  Sc2  1  0.45282549  0.09237288  0.31906761  1
  Sc  Sc3  1  0.09821063  0.10384640  0.84377405  1
  Sc  Sc4  1  0.22851266  0.20826894  0.59403280  1
  Sc  Sc5  1  0.45256169  0.09928603  0.84853923  1
  Sc  Sc6  1  0.10036511  0.43071526  0.33443741  1
  Sc  Sc7  1  0.88121612  0.54432270  0.59067489  1
  Sc  Sc8  1  0.45464935  0.42171770  0.34371272  1
  Sc  Sc9  1  0.09634695  0.76393564  0.34058506  1
  Sc  Sc10  1  0.22534377  0.86928872  0.09009672  1
  Sc  Sc11  1  0.46260048  0.75111572  0.33037346  1
  Sc  Sc12  1  0.10023453  0.75696080  0.85170946  1
  Sc  Sc13  1  0.22261680  0.86709120  0.58458783  1
  Sc  Sc14  1  0.45588183  0.74576400  0.83909849  1
  Sc  Sc15  1  0.56617112  0.87222234  0.58976946  1
  Al  Al16  1  0.21366928  0.22077452  0.06169848  1
  Al  Al17  1  0.77000207  0.09638556  0.82705257  1
  Al  Al18  1  0.56143208  0.21408356  0.06936537  1
  Al  Al19  1  0.77394232  0.09538950  0.32037274  1
  Al  Al20  1  0.87610951  0.21379254  0.07236195  1
  Al  Al21  1  0.56499083  0.19884680  0.57617193  1
  Al  Al22  1  0.22448875  0.53348862  0.12357051  1
  Al  Al23  1  0.76978283  0.42552869  0.83123495  1
  Al  Al24  1  0.56381111  0.52640319  0.07140268  1
  Al  Al25  1  0.11028362  0.43447912  0.82557446  1
  Al  Al26  1  0.22748504  0.53841258  0.62952479  1
  Al  Al27  1  0.77640260  0.43005273  0.31578619  1
  Al  Al28  1  0.88948331  0.53942633  0.06711842  1
  Al  Al29  1  0.45654989  0.41939634  0.82097455  1
  Al  Al30  1  0.56164084  0.53182878  0.57503586  1
  Al  Al31  1  0.78384920  0.76410137  0.82895837  1
  Al  Al32  1  0.88016430  0.87621553  0.57258769  1
  Al  Al33  1  0.57122663  0.86042558  0.06603576  1
  Al  Al34  1  0.77621656  0.76115582  0.31825507  1
  Al  Al35  1  0.87631412  0.87733392  0.07564824  1
  N  N36  1  0.22845289  0.20292621  0.37666480  1
  N  N37  1  0.09768551  0.11794114  0.09875652  1
  N  N38  1  0.86404740  0.21435608  0.87571495  1
  N  N39  1  0.77001114  0.08239050  0.63356800  1
  N  N40  1  0.57701708  0.19181623  0.38298769  1
  N  N41  1  0.44571647  0.09559886  0.09406275  1
  N  N42  1  0.21234327  0.22712449  0.86499067  1
  N  N43  1  0.10262926  0.09851427  0.62143250  1
  N  N44  1  0.86760440  0.21634209  0.36295182  1
  N  N45  1  0.77524234  0.09624822  0.12544820  1
  N  N46  1  0.56780167  0.21736365  0.87827155  1
  N  N47  1  0.45788147  0.10403142  0.62917789  1
  N  N48  1  0.22363493  0.53604977  0.32752944  1
  N  N49  1  0.10690574  0.43077000  0.10820658  1
  N  N50  1  0.89068789  0.54036996  0.86858982  1
  N  N51  1  0.75768686  0.43655279  0.64131881  1
  N  N52  1  0.58114945  0.52463301  0.38208305  1
  N  N53  1  0.44890742  0.42603908  0.11939059  1
  N  N54  1  0.24048027  0.51956442  0.83510067  1
  N  N55  1  0.11392126  0.44169474  0.61980191  1
  N  N56  1  0.86596041  0.55001851  0.36935800  1
  N  N57  1  0.77859036  0.42921363  0.11811706  1
  N  N58  1  0.56541941  0.51439331  0.88013294  1
  N  N59  1  0.45085465  0.42453412  0.61414972  1
  N  N60  1  0.22468432  0.87149591  0.34917098  1
  N  N61  1  0.09628177  0.75407338  0.10150567  1
  N  N62  1  0.86363659  0.88898513  0.88450027  1
  N  N63  1  0.79161740  0.76946893  0.63858284  1
  N  N64  1  0.57587741  0.86573013  0.37170021  1
  N  N65  1  0.46996651  0.74556890  0.10414845  1
  N  N66  1  0.22266848  0.86819152  0.86815439  1
  N  N67  1  0.09839269  0.75452286  0.60406289  1
  N  N68  1  0.86306134  0.88445496  0.37494398  1
  N  N69  1  0.78067811  0.75812887  0.12152428  1
  N  N70  1  0.57867142  0.85801290  0.87080415  1
  N  N71  1  0.45564125  0.74115042  0.61539013  1
