# generated using pymatgen
data_Sc4Al5N9
_symmetry_space_group_name_H-M   'P 1'
_cell_length_a   10.54631599
_cell_length_b   10.43474517
_cell_length_c   9.13126033
_cell_angle_alpha   89.99348807
_cell_angle_beta   90.18287789
_cell_angle_gamma   59.95620337
_symmetry_Int_Tables_number   1
_chemical_formula_structural   Sc4Al5N9
_chemical_formula_sum   'Sc16 Al20 N36'
_cell_volume   869.85945419
_cell_formula_units_Z   4
loop_
 _symmetry_equiv_pos_site_id
 _symmetry_equiv_pos_as_xyz
  1  'x, y, z'
loop_
 _atom_site_type_symbol
 _atom_site_label
 _atom_site_symmetry_multiplicity
 _atom_site_fract_x
 _atom_site_fract_y
 _atom_site_fract_z
 _atom_site_occupancy
  Sc  Sc0  1  0.09951002  0.10443758  0.35052328  1
  Sc  Sc1  1  0.86779900  0.21541297  0.60297638  1
  Sc  Sc2  1  0.45548479  0.09468319  0.35140566  1
  Sc  Sc3  1  0.10005659  0.10747414  0.85658962  1
  Sc  Sc4  1  0.22567437  0.21565285  0.60710007  1
  Sc  Sc5  1  0.45164107  0.09487369  0.86299319  1
  Sc  Sc6  1  0.10473901  0.43803157  0.34679913  1
  Sc  Sc7  1  0.88843027  0.54032164  0.61651419  1
  Sc  Sc8  1  0.45423864  0.42445195  0.35657188  1
  Sc  Sc9  1  0.09887021  0.76037688  0.35810497  1
  Sc  Sc10  1  0.22208106  0.87048289  0.10506936  1
  Sc  Sc11  1  0.45978733  0.74487798  0.35417613  1
  Sc  Sc12  1  0.09851220  0.75798764  0.85829760  1
  Sc  Sc13  1  0.22210502  0.86741601  0.60576039  1
  Sc  Sc14  1  0.45478031  0.75567907  0.86093477  1
  Sc  Sc15  1  0.57138957  0.86566028  0.60475050  1
  Al  Al16  1  0.22149781  0.20982096  0.11058543  1
  Al  Al17  1  0.77273662  0.09581063  0.87667080  1
  Al  Al18  1  0.56417185  0.20410525  0.11400112  1
  Al  Al19  1  0.77228695  0.09320619  0.36508042  1
  Al  Al20  1  0.88089638  0.20647927  0.09784182  1
  Al  Al21  1  0.56088101  0.20784976  0.63125589  1
  Al  Al22  1  0.22534587  0.53543757  0.11149491  1
  Al  Al23  1  0.77274078  0.42401894  0.86002011  1
  Al  Al24  1  0.56107904  0.53123002  0.09820478  1
  Al  Al25  1  0.11331851  0.43089760  0.87994236  1
  Al  Al26  1  0.22874667  0.53290332  0.63168100  1
  Al  Al27  1  0.77775758  0.42836765  0.30919849  1
  Al  Al28  1  0.88730062  0.54254132  0.09718732  1
  Al  Al29  1  0.44727348  0.41999225  0.87755863  1
  Al  Al30  1  0.55327077  0.52976418  0.64315273  1
  Al  Al31  1  0.78065318  0.76470414  0.88162684  1
  Al  Al32  1  0.87781940  0.87743918  0.62339015  1
  Al  Al33  1  0.56693639  0.86577793  0.12117437  1
  Al  Al34  1  0.78227883  0.76007826  0.35955660  1
  Al  Al35  1  0.87925297  0.87706545  0.12083065  1
  N  N36  1  0.22507962  0.20741037  0.33883565  1
  N  N37  1  0.09834645  0.11366965  0.10143965  1
  N  N38  1  0.86910268  0.20932847  0.85763985  1
  N  N39  1  0.76483661  0.08679159  0.58119257  1
  N  N40  1  0.57504307  0.19886466  0.32218771  1
  N  N41  1  0.44865426  0.09042331  0.10093985  1
  N  N42  1  0.21695488  0.22365758  0.85480098  1
  N  N43  1  0.10162778  0.10445571  0.60143633  1
  N  N44  1  0.86470477  0.21773878  0.33948096  1
  N  N45  1  0.77910219  0.09158619  0.08656374  1
  N  N46  1  0.56708033  0.21251680  0.84602349  1
  N  N47  1  0.45743005  0.10408404  0.60166648  1
  N  N48  1  0.22925146  0.53797609  0.32230217  1
  N  N49  1  0.11133441  0.42985001  0.09391765  1
  N  N50  1  0.89561804  0.54492830  0.86442769  1
  N  N51  1  0.75576562  0.44250676  0.63706666  1
  N  N52  1  0.57819628  0.52236997  0.31418943  1
  N  N53  1  0.44419273  0.42366269  0.08939284  1
  N  N54  1  0.23557354  0.51844821  0.84841514  1
  N  N55  1  0.11719541  0.44375523  0.58830339  1
  N  N56  1  0.87013238  0.54526446  0.32864080  1
  N  N57  1  0.78268899  0.42521049  0.08579293  1
  N  N58  1  0.55792133  0.52089974  0.86436253  1
  N  N59  1  0.44667483  0.42698987  0.60308326  1
  N  N60  1  0.22282103  0.86944826  0.35090073  1
  N  N61  1  0.09496977  0.75636772  0.09665209  1
  N  N62  1  0.86380137  0.88672762  0.83676779  1
  N  N63  1  0.79489998  0.76328120  0.57329587  1
  N  N64  1  0.57580629  0.86091334  0.34187225  1
  N  N65  1  0.46252524  0.75500189  0.10006977  1
  N  N66  1  0.22052921  0.87156302  0.85544981  1
  N  N67  1  0.09947213  0.75268317  0.60637407  1
  N  N68  1  0.86849970  0.88395213  0.32948850  1
  N  N69  1  0.77865565  0.76376690  0.09269864  1
  N  N70  1  0.57938620  0.86066769  0.84344857  1
  N  N71  1  0.45654080  0.73736018  0.60472507  1
