# generated using pymatgen
data_Sc4Al5N9
_symmetry_space_group_name_H-M   'P 1'
_cell_length_a   10.60474642
_cell_length_b   10.48072777
_cell_length_c   8.97098069
_cell_angle_alpha   89.97515080
_cell_angle_beta   90.20694862
_cell_angle_gamma   60.06772545
_symmetry_Int_Tables_number   1
_chemical_formula_structural   Sc4Al5N9
_chemical_formula_sum   'Sc16 Al20 N36'
_cell_volume   864.08005810
_cell_formula_units_Z   4
loop_
 _symmetry_equiv_pos_site_id
 _symmetry_equiv_pos_as_xyz
  1  'x, y, z'
loop_
 _atom_site_type_symbol
 _atom_site_label
 _atom_site_symmetry_multiplicity
 _atom_site_fract_x
 _atom_site_fract_y
 _atom_site_fract_z
 _atom_site_occupancy
  Sc  Sc0  1  0.09994499  0.10537723  0.34566140  1
  Sc  Sc1  1  0.86843640  0.21344071  0.59618056  1
  Sc  Sc2  1  0.45600325  0.09107419  0.34170598  1
  Sc  Sc3  1  0.09891774  0.10746033  0.85216592  1
  Sc  Sc4  1  0.22632271  0.21381854  0.60151995  1
  Sc  Sc5  1  0.45169258  0.09878136  0.85414818  1
  Sc  Sc6  1  0.10455766  0.43769802  0.34312594  1
  Sc  Sc7  1  0.88615602  0.54010202  0.60613027  1
  Sc  Sc8  1  0.45151665  0.42650665  0.34865746  1
  Sc  Sc9  1  0.10040015  0.75983473  0.34776929  1
  Sc  Sc10  1  0.22281859  0.87137684  0.10047649  1
  Sc  Sc11  1  0.46067025  0.74797301  0.34854120  1
  Sc  Sc12  1  0.09610319  0.76100524  0.85249991  1
  Sc  Sc13  1  0.22212320  0.86758132  0.60018158  1
  Sc  Sc14  1  0.45367103  0.75229181  0.85472327  1
  Sc  Sc15  1  0.57164617  0.86564928  0.60145345  1
  Al  Al16  1  0.21927966  0.21291918  0.09816702  1
  Al  Al17  1  0.77071182  0.09480755  0.83942329  1
  Al  Al18  1  0.56349368  0.20671511  0.08616852  1
  Al  Al19  1  0.77447273  0.09540025  0.32734349  1
  Al  Al20  1  0.87884833  0.20906936  0.08848946  1
  Al  Al21  1  0.56277692  0.20350164  0.58738064  1
  Al  Al22  1  0.22506935  0.53518743  0.10172110  1
  Al  Al23  1  0.77224717  0.42472634  0.85497493  1
  Al  Al24  1  0.56260904  0.53071822  0.09666207  1
  Al  Al25  1  0.11144936  0.43145737  0.86639927  1
  Al  Al26  1  0.22801638  0.53438764  0.62764375  1
  Al  Al27  1  0.77751586  0.42939441  0.31587066  1
  Al  Al28  1  0.88787232  0.54003135  0.08418745  1
  Al  Al29  1  0.44968227  0.42016810  0.86329501  1
  Al  Al30  1  0.55520472  0.52944799  0.62896050  1
  Al  Al31  1  0.78427759  0.76332991  0.84781502  1
  Al  Al32  1  0.87897058  0.87582953  0.57981848  1
  Al  Al33  1  0.56787517  0.86490278  0.08834456  1
  Al  Al34  1  0.77878128  0.75859094  0.32171608  1
  Al  Al35  1  0.87894294  0.87767411  0.08849364  1
  N  N36  1  0.22568028  0.20810070  0.34052088  1
  N  N37  1  0.09736732  0.11460454  0.09902728  1
  N  N38  1  0.86739775  0.21018841  0.86307154  1
  N  N39  1  0.76864929  0.08320478  0.61867646  1
  N  N40  1  0.57586694  0.19853783  0.36282015  1
  N  N41  1  0.45116611  0.09255223  0.09910075  1
  N  N42  1  0.21736693  0.22247752  0.85897068  1
  N  N43  1  0.10157099  0.10420038  0.60065200  1
  N  N44  1  0.86628634  0.21818732  0.34499424  1
  N  N45  1  0.77638718  0.09504812  0.11207316  1
  N  N46  1  0.56712083  0.21248768  0.86647149  1
  N  N47  1  0.45646661  0.10180141  0.60384231  1
  N  N48  1  0.22757438  0.53723636  0.32344717  1
  N  N49  1  0.10808855  0.43195400  0.09082519  1
  N  N50  1  0.89289082  0.53965318  0.86350426  1
  N  N51  1  0.75656968  0.43952299  0.63037559  1
  N  N52  1  0.57847005  0.52315100  0.32511635  1
  N  N53  1  0.44610686  0.42475140  0.09199175  1
  N  N54  1  0.23457388  0.52136498  0.85324446  1
  N  N55  1  0.11696968  0.44264680  0.59863747  1
  N  N56  1  0.87045615  0.54589500  0.34442044  1
  N  N57  1  0.78151782  0.42705589  0.09115534  1
  N  N58  1  0.56075313  0.51988511  0.86230059  1
  N  N59  1  0.44527185  0.42684071  0.60948161  1
  N  N60  1  0.22334229  0.87056998  0.34838687  1
  N  N61  1  0.09616850  0.75769363  0.09830849  1
  N  N62  1  0.86671969  0.88751483  0.87376612  1
  N  N63  1  0.79355469  0.76496973  0.62669903  1
  N  N64  1  0.57843553  0.86005821  0.35173659  1
  N  N65  1  0.46285625  0.75316738  0.09876298  1
  N  N66  1  0.22019001  0.87187425  0.85232648  1
  N  N67  1  0.09882918  0.75315051  0.60215265  1
  N  N68  1  0.86634455  0.88180381  0.35714628  1
  N  N69  1  0.78138983  0.75879175  0.10380787  1
  N  N70  1  0.57657397  0.86174992  0.86104657  1
  N  N71  1  0.45657404  0.73858722  0.60374143  1
