# generated using pymatgen
data_Sc4Al5N9
_symmetry_space_group_name_H-M   'P 1'
_cell_length_a   10.16792100
_cell_length_b   10.11582373
_cell_length_c   10.07530974
_cell_angle_alpha   89.96930095
_cell_angle_beta   90.08633427
_cell_angle_gamma   60.12680631
_symmetry_Int_Tables_number   1
_chemical_formula_structural   Sc4Al5N9
_chemical_formula_sum   'Sc16 Al20 N36'
_cell_volume   898.61776779
_cell_formula_units_Z   4
loop_
 _symmetry_equiv_pos_site_id
 _symmetry_equiv_pos_as_xyz
  1  'x, y, z'
loop_
 _atom_site_type_symbol
 _atom_site_label
 _atom_site_symmetry_multiplicity
 _atom_site_fract_x
 _atom_site_fract_y
 _atom_site_fract_z
 _atom_site_occupancy
  Sc  Sc0  1  0.10105660  0.10751612  0.31709289  1
  Sc  Sc1  1  0.87275307  0.21080716  0.57737371  1
  Sc  Sc2  1  0.45316906  0.09258723  0.31519860  1
  Sc  Sc3  1  0.09861137  0.10323475  0.83940880  1
  Sc  Sc4  1  0.22709555  0.21221808  0.58920719  1
  Sc  Sc5  1  0.45246047  0.09776848  0.84494471  1
  Sc  Sc6  1  0.10524069  0.43320497  0.32099526  1
  Sc  Sc7  1  0.88518460  0.54306654  0.58549351  1
  Sc  Sc8  1  0.45206699  0.42318981  0.33455910  1
  Sc  Sc9  1  0.09856755  0.75975562  0.32620505  1
  Sc  Sc10  1  0.22433547  0.86762812  0.08295748  1
  Sc  Sc11  1  0.46276940  0.74976436  0.32463919  1
  Sc  Sc12  1  0.10047905  0.75657743  0.83134671  1
  Sc  Sc13  1  0.22141633  0.86914579  0.57354842  1
  Sc  Sc14  1  0.45484683  0.74622713  0.83278710  1
  Sc  Sc15  1  0.56568452  0.87235969  0.58362330  1
  Al  Al16  1  0.21523734  0.21835482  0.05869904  1
  Al  Al17  1  0.76967422  0.09726441  0.82466443  1
  Al  Al18  1  0.56108190  0.21206908  0.06633355  1
  Al  Al19  1  0.77436925  0.09506728  0.31892960  1
  Al  Al20  1  0.87580733  0.21390568  0.06905247  1
  Al  Al21  1  0.56230070  0.20236563  0.57565380  1
  Al  Al22  1  0.22724676  0.52970186  0.06332256  1
  Al  Al23  1  0.77020696  0.42659296  0.82820923  1
  Al  Al24  1  0.56345515  0.52739156  0.06783176  1
  Al  Al25  1  0.11196762  0.43469185  0.82527608  1
  Al  Al26  1  0.22444547  0.53978095  0.57761106  1
  Al  Al27  1  0.77684711  0.42922980  0.31477268  1
  Al  Al28  1  0.88821967  0.53981023  0.06546538  1
  Al  Al29  1  0.45196908  0.42116543  0.81924364  1
  Al  Al30  1  0.55971213  0.53144177  0.57447074  1
  Al  Al31  1  0.78382816  0.76231852  0.82638789  1
  Al  Al32  1  0.88073022  0.87671767  0.57089058  1
  Al  Al33  1  0.57067083  0.86064256  0.06382190  1
  Al  Al34  1  0.77752579  0.76114921  0.31610106  1
  Al  Al35  1  0.87862125  0.87480598  0.07085628  1
  N  N36  1  0.22674762  0.20681370  0.37661185  1
  N  N37  1  0.09779553  0.11728661  0.09904127  1
  N  N38  1  0.86341676  0.21554096  0.87818760  1
  N  N39  1  0.76935741  0.08391833  0.63515112  1
  N  N40  1  0.57581945  0.19387254  0.38597688  1
  N  N41  1  0.44599521  0.09467595  0.09476511  1
  N  N42  1  0.21237692  0.22642496  0.86900409  1
  N  N43  1  0.10350357  0.09944233  0.62413136  1
  N  N44  1  0.86864274  0.21570677  0.36388708  1
  N  N45  1  0.77560458  0.09487807  0.12717480  1
  N  N46  1  0.56680392  0.21776448  0.88024011  1
  N  N47  1  0.45724326  0.10394571  0.63114455  1
  N  N48  1  0.22391663  0.53644470  0.38979561  1
  N  N49  1  0.10974666  0.43044271  0.10841954  1
  N  N50  1  0.88968912  0.54007968  0.87253658  1
  N  N51  1  0.75833244  0.43757627  0.64230994  1
  N  N52  1  0.58047969  0.52349857  0.38566519  1
  N  N53  1  0.44476678  0.42743255  0.12068748  1
  N  N54  1  0.23986766  0.51803429  0.87498236  1
  N  N55  1  0.11660680  0.44426487  0.63572620  1
  N  N56  1  0.87073241  0.54797537  0.36894345  1
  N  N57  1  0.77777271  0.42906184  0.12144440  1
  N  N58  1  0.56447001  0.51506033  0.88161925  1
  N  N59  1  0.44744255  0.42635528  0.62315654  1
  N  N60  1  0.22344583  0.87179203  0.34943076  1
  N  N61  1  0.09829593  0.74771497  0.10789580  1
  N  N62  1  0.86530900  0.88786690  0.88460623  1
  N  N63  1  0.79174339  0.76879789  0.64006612  1
  N  N64  1  0.57571011  0.86571332  0.37187319  1
  N  N65  1  0.46954254  0.74549623  0.10635434  1
  N  N66  1  0.22177093  0.86736464  0.87170951  1
  N  N67  1  0.09769928  0.75786680  0.61288733  1
  N  N68  1  0.86584978  0.88353441  0.37797521  1
  N  N69  1  0.78075878  0.75835028  0.12364877  1
  N  N70  1  0.57889411  0.85670893  0.87449796  1
  N  N71  1  0.45415163  0.74228629  0.61637359  1
