# generated using pymatgen
data_Sc4Al5N9
_symmetry_space_group_name_H-M   'P 1'
_cell_length_a   10.62109548
_cell_length_b   10.50322320
_cell_length_c   8.93367726
_cell_angle_alpha   89.93198106
_cell_angle_beta   90.10505025
_cell_angle_gamma   59.96685913
_symmetry_Int_Tables_number   1
_chemical_formula_structural   Sc4Al5N9
_chemical_formula_sum   'Sc16 Al20 N36'
_cell_volume   862.79109783
_cell_formula_units_Z   4
loop_
 _symmetry_equiv_pos_site_id
 _symmetry_equiv_pos_as_xyz
  1  'x, y, z'
loop_
 _atom_site_type_symbol
 _atom_site_label
 _atom_site_symmetry_multiplicity
 _atom_site_fract_x
 _atom_site_fract_y
 _atom_site_fract_z
 _atom_site_occupancy
  Sc  Sc0  1  0.10054869  0.10508967  0.34580486  1
  Sc  Sc1  1  0.86803687  0.21353283  0.59695997  1
  Sc  Sc2  1  0.45579447  0.09320341  0.34397950  1
  Sc  Sc3  1  0.09921694  0.10751326  0.85193483  1
  Sc  Sc4  1  0.22645316  0.21413588  0.60131363  1
  Sc  Sc5  1  0.45123941  0.09706821  0.85739615  1
  Sc  Sc6  1  0.10520684  0.43754964  0.34188247  1
  Sc  Sc7  1  0.88613150  0.53987487  0.60543143  1
  Sc  Sc8  1  0.45290009  0.42495593  0.35114547  1
  Sc  Sc9  1  0.09761850  0.76090493  0.35133232  1
  Sc  Sc10  1  0.22227027  0.87103144  0.10087937  1
  Sc  Sc11  1  0.46004600  0.74633119  0.34805955  1
  Sc  Sc12  1  0.10003058  0.75805888  0.85416377  1
  Sc  Sc13  1  0.22204916  0.86766721  0.60010025  1
  Sc  Sc14  1  0.45382320  0.75382662  0.85498506  1
  Sc  Sc15  1  0.57069712  0.86641509  0.60039979  1
  Al  Al16  1  0.22004992  0.21216963  0.09864102  1
  Al  Al17  1  0.77310594  0.09766131  0.87436192  1
  Al  Al18  1  0.56259238  0.20654894  0.10666084  1
  Al  Al19  1  0.77267703  0.09199849  0.35163655  1
  Al  Al20  1  0.88054147  0.20891562  0.09716004  1
  Al  Al21  1  0.56264441  0.20599138  0.62311980  1
  Al  Al22  1  0.22565004  0.53471455  0.10249123  1
  Al  Al23  1  0.77320103  0.42433402  0.85521720  1
  Al  Al24  1  0.56201625  0.53053347  0.09465525  1
  Al  Al25  1  0.11205145  0.43157743  0.86515200  1
  Al  Al26  1  0.22790504  0.53412239  0.62447306  1
  Al  Al27  1  0.77680988  0.42957629  0.31310510  1
  Al  Al28  1  0.88797240  0.54048037  0.08840339  1
  Al  Al29  1  0.44854367  0.42088000  0.86710769  1
  Al  Al30  1  0.55492202  0.52957761  0.63289656  1
  Al  Al31  1  0.78222986  0.76173355  0.86493431  1
  Al  Al32  1  0.87830411  0.87863868  0.61876502  1
  Al  Al33  1  0.56706788  0.86500296  0.10010694  1
  Al  Al34  1  0.78050658  0.75983452  0.34087926  1
  Al  Al35  1  0.88003040  0.87544193  0.10767030  1
  N  N36  1  0.22543938  0.20830269  0.33882741  1
  N  N37  1  0.09842935  0.11411276  0.09815170  1
  N  N38  1  0.86867640  0.21043783  0.85654489  1
  N  N39  1  0.76608105  0.08568260  0.57958206  1
  N  N40  1  0.57330522  0.19984540  0.32349778  1
  N  N41  1  0.44821688  0.09209943  0.09699758  1
  N  N42  1  0.21717340  0.22255830  0.85636990  1
  N  N43  1  0.10164228  0.10442898  0.59875293  1
  N  N44  1  0.86606086  0.21768524  0.33576865  1
  N  N45  1  0.77892512  0.09333401  0.09142885  1
  N  N46  1  0.56845953  0.21215374  0.84707745  1
  N  N47  1  0.45776707  0.10354377  0.60078594  1
  N  N48  1  0.22823625  0.53768188  0.32399605  1
  N  N49  1  0.10935744  0.43166439  0.08897911  1
  N  N50  1  0.89361003  0.54146972  0.85993981  1
  N  N51  1  0.75603158  0.44017800  0.62663872  1
  N  N52  1  0.57801091  0.52254469  0.31802733  1
  N  N53  1  0.44450325  0.42499739  0.08669588  1
  N  N54  1  0.23544038  0.51996509  0.84886611  1
  N  N55  1  0.11670095  0.44263799  0.59590624  1
  N  N56  1  0.87094313  0.54475197  0.33467331  1
  N  N57  1  0.78221419  0.42665923  0.08568969  1
  N  N58  1  0.56033264  0.52025826  0.86019904  1
  N  N59  1  0.44646879  0.42670120  0.60525120  1
  N  N60  1  0.22247779  0.87004195  0.34806465  1
  N  N61  1  0.09682963  0.75611538  0.09507773  1
  N  N62  1  0.86595228  0.88764569  0.84467432  1
  N  N63  1  0.79274180  0.76453038  0.59215436  1
  N  N64  1  0.57629314  0.86063120  0.34074558  1
  N  N65  1  0.46162566  0.75363854  0.09714074  1
  N  N66  1  0.22043351  0.87195285  0.85143877  1
  N  N67  1  0.09844490  0.75375869  0.60283654  1
  N  N68  1  0.86800315  0.88122868  0.32764486  1
  N  N69  1  0.78095611  0.75941790  0.09207687  1
  N  N70  1  0.57677017  0.86189228  0.85364512  1
  N  N71  1  0.45676197  0.73805692  0.60199114  1
