# generated using pymatgen
data_Sc4Al5N9
_symmetry_space_group_name_H-M   'P 1'
_cell_length_a   10.45992976
_cell_length_b   10.35499655
_cell_length_c   9.34555930
_cell_angle_alpha   89.95731305
_cell_angle_beta   90.13810621
_cell_angle_gamma   60.10647322
_symmetry_Int_Tables_number   1
_chemical_formula_structural   Sc4Al5N9
_chemical_formula_sum   'Sc16 Al20 N36'
_cell_volume   877.56087611
_cell_formula_units_Z   4
loop_
 _symmetry_equiv_pos_site_id
 _symmetry_equiv_pos_as_xyz
  1  'x, y, z'
loop_
 _atom_site_type_symbol
 _atom_site_label
 _atom_site_symmetry_multiplicity
 _atom_site_fract_x
 _atom_site_fract_y
 _atom_site_fract_z
 _atom_site_occupancy
  Sc  Sc0  1  0.09891594  0.10589762  0.34138934  1
  Sc  Sc1  1  0.86936568  0.21221638  0.59215402  1
  Sc  Sc2  1  0.45703031  0.08907749  0.33381847  1
  Sc  Sc3  1  0.09896084  0.10678882  0.84881763  1
  Sc  Sc4  1  0.22668128  0.21414028  0.59753718  1
  Sc  Sc5  1  0.45135469  0.09978689  0.85070501  1
  Sc  Sc6  1  0.10278909  0.43629385  0.34318684  1
  Sc  Sc7  1  0.88781290  0.54037309  0.60054516  1
  Sc  Sc8  1  0.45184329  0.42350045  0.34681375  1
  Sc  Sc9  1  0.09869330  0.76234899  0.34671784  1
  Sc  Sc10  1  0.22387753  0.87069909  0.09716693  1
  Sc  Sc11  1  0.46058069  0.75145927  0.34198788  1
  Sc  Sc12  1  0.09752921  0.75907386  0.85248544  1
  Sc  Sc13  1  0.22193044  0.86768813  0.59723452  1
  Sc  Sc14  1  0.45549734  0.74592885  0.84553007  1
  Sc  Sc15  1  0.57008367  0.86757378  0.59927138  1
  Al  Al16  1  0.22008213  0.21126192  0.08804790  1
  Al  Al17  1  0.76975059  0.09501192  0.83251522  1
  Al  Al18  1  0.56246098  0.21196870  0.07605159  1
  Al  Al19  1  0.77455169  0.09625366  0.32313358  1
  Al  Al20  1  0.87695234  0.21176996  0.07838701  1
  Al  Al21  1  0.56473343  0.20030778  0.57961331  1
  Al  Al22  1  0.22743820  0.53583639  0.11401863  1
  Al  Al23  1  0.76852951  0.42628901  0.83986984  1
  Al  Al24  1  0.56198930  0.52735581  0.07741923  1
  Al  Al25  1  0.11214226  0.43273336  0.87765429  1
  Al  Al26  1  0.22484273  0.53580400  0.62778141  1
  Al  Al27  1  0.77619054  0.42936818  0.31799686  1
  Al  Al28  1  0.88335882  0.54186631  0.07906820  1
  Al  Al29  1  0.45328441  0.42017554  0.83092608  1
  Al  Al30  1  0.56138352  0.53101637  0.57989850  1
  Al  Al31  1  0.78528785  0.76328742  0.83716941  1
  Al  Al32  1  0.87940600  0.87599684  0.57459443  1
  Al  Al33  1  0.56941260  0.86229204  0.07260765  1
  Al  Al34  1  0.77686711  0.75948706  0.32080118  1
  Al  Al35  1  0.87736422  0.87789115  0.08296674  1
  N  N36  1  0.22747032  0.20549266  0.35044812  1
  N  N37  1  0.09618527  0.11617691  0.09864504  1
  N  N38  1  0.86537090  0.21282438  0.86775817  1
  N  N39  1  0.76904681  0.08164252  0.62794349  1
  N  N40  1  0.57754441  0.19512923  0.37455690  1
  N  N41  1  0.45008819  0.09155426  0.09705829  1
  N  N42  1  0.21566748  0.22436089  0.86189992  1
  N  N43  1  0.10202539  0.10303016  0.60601058  1
  N  N44  1  0.86540573  0.21781763  0.35827533  1
  N  N45  1  0.77565442  0.09683784  0.11908437  1
  N  N46  1  0.56666536  0.21547200  0.87297031  1
  N  N47  1  0.45659370  0.10303276  0.61360657  1
  N  N48  1  0.22549003  0.53886235  0.32262539  1
  N  N49  1  0.10903796  0.43198562  0.09257382  1
  N  N50  1  0.89150805  0.53980762  0.86793253  1
  N  N51  1  0.75771381  0.43921294  0.63777359  1
  N  N52  1  0.58010060  0.52326603  0.37336670  1
  N  N53  1  0.44858466  0.42573583  0.10987823  1
  N  N54  1  0.23645931  0.51891359  0.84349636  1
  N  N55  1  0.11730363  0.44306288  0.58576002  1
  N  N56  1  0.86762642  0.54772256  0.35641516  1
  N  N57  1  0.77710360  0.42842025  0.10907847  1
  N  N58  1  0.56299545  0.51590819  0.87503388  1
  N  N59  1  0.44786876  0.42598192  0.61266244  1
  N  N60  1  0.22371233  0.87122878  0.34672825  1
  N  N61  1  0.09665253  0.75639342  0.09809753  1
  N  N62  1  0.86481583  0.88848271  0.88126997  1
  N  N63  1  0.79502942  0.76590604  0.63415744  1
  N  N64  1  0.57857258  0.86106548  0.36800989  1
  N  N65  1  0.46778364  0.74726652  0.10089900  1
  N  N66  1  0.22111467  0.87043618  0.85556565  1
  N  N67  1  0.09808001  0.75425241  0.60279919  1
  N  N68  1  0.86447925  0.88350173  0.36540483  1
  N  N69  1  0.77941425  0.75936787  0.11416449  1
  N  N70  1  0.57757768  0.85936821  0.86307603  1
  N  N71  1  0.45489668  0.74116859  0.60744410  1
