# generated using pymatgen
data_Sc4Al5N9
_symmetry_space_group_name_H-M   'P 1'
_cell_length_a   10.14485214
_cell_length_b   10.08773057
_cell_length_c   10.11646205
_cell_angle_alpha   89.85228243
_cell_angle_beta   89.75079208
_cell_angle_gamma   60.22129211
_symmetry_Int_Tables_number   1
_chemical_formula_structural   Sc4Al5N9
_chemical_formula_sum   'Sc16 Al20 N36'
_cell_volume   898.58350072
_cell_formula_units_Z   4
loop_
 _symmetry_equiv_pos_site_id
 _symmetry_equiv_pos_as_xyz
  1  'x, y, z'
loop_
 _atom_site_type_symbol
 _atom_site_label
 _atom_site_symmetry_multiplicity
 _atom_site_fract_x
 _atom_site_fract_y
 _atom_site_fract_z
 _atom_site_occupancy
  Sc  Sc0  1  0.10173354  0.10055104  0.37797169  1
  Sc  Sc1  1  0.87397993  0.21081488  0.63594503  1
  Sc  Sc2  1  0.45549130  0.09378632  0.38097211  1
  Sc  Sc3  1  0.09712140  0.11044964  0.90310807  1
  Sc  Sc4  1  0.22412555  0.21700234  0.64204696  1
  Sc  Sc5  1  0.45033214  0.09544880  0.89674106  1
  Sc  Sc6  1  0.10444942  0.43752551  0.37623599  1
  Sc  Sc7  1  0.89091615  0.54211138  0.64416704  1
  Sc  Sc8  1  0.45029476  0.42387217  0.39152026  1
  Sc  Sc9  1  0.09846090  0.75949605  0.40154919  1
  Sc  Sc10  1  0.22134431  0.86572516  0.13588771  1
  Sc  Sc11  1  0.45548248  0.74868169  0.38528490  1
  Sc  Sc12  1  0.10019219  0.75609645  0.88123153  1
  Sc  Sc13  1  0.22385703  0.87117831  0.64659980  1
  Sc  Sc14  1  0.46039006  0.74836909  0.89462105  1
  Sc  Sc15  1  0.56857119  0.86868601  0.63617616  1
  Al  Al16  1  0.22150564  0.21055564  0.14841101  1
  Al  Al17  1  0.77215440  0.09999353  0.89965383  1
  Al  Al18  1  0.56337782  0.20533015  0.14349364  1
  Al  Al19  1  0.77291219  0.09210389  0.39276909  1
  Al  Al20  1  0.87508406  0.21381636  0.15225914  1
  Al  Al21  1  0.56000179  0.20810072  0.65271074  1
  Al  Al22  1  0.22256756  0.53800947  0.13844338  1
  Al  Al23  1  0.77699971  0.42429825  0.90232534  1
  Al  Al24  1  0.56611615  0.52903449  0.14381772  1
  Al  Al25  1  0.11065730  0.43033540  0.90928646  1
  Al  Al26  1  0.23109869  0.53070106  0.65839089  1
  Al  Al27  1  0.77061569  0.43251305  0.39183718  1
  Al  Al28  1  0.88106549  0.54191400  0.14257049  1
  Al  Al29  1  0.45321838  0.41979723  0.89749378  1
  Al  Al30  1  0.55797077  0.52954257  0.65291138  1
  Al  Al31  1  0.77992090  0.76162453  0.90486349  1
  Al  Al32  1  0.87746180  0.87804060  0.65111732  1
  Al  Al33  1  0.56802067  0.86476810  0.15166544  1
  Al  Al34  1  0.78176352  0.76151275  0.38857154  1
  Al  Al35  1  0.88203083  0.87387200  0.14479264  1
  N  N36  1  0.22563018  0.20787463  0.33607966  1
  N  N37  1  0.09592978  0.11464597  0.11812676  1
  N  N38  1  0.86847582  0.21559006  0.84723613  1
  N  N39  1  0.76624744  0.08458091  0.58367889  1
  N  N40  1  0.57611447  0.20002524  0.32749333  1
  N  N41  1  0.44807609  0.09176052  0.11170656  1
  N  N42  1  0.21409893  0.22514108  0.85413584  1
  N  N43  1  0.10652871  0.10178540  0.59318598  1
  N  N44  1  0.86342522  0.21714884  0.34398284  1
  N  N45  1  0.77912974  0.09418548  0.08951045  1
  N  N46  1  0.56698876  0.21222522  0.84277946  1
  N  N47  1  0.45587794  0.10544714  0.59914561  1
  N  N48  1  0.22686166  0.54268082  0.32381428  1
  N  N49  1  0.10875341  0.42952391  0.10205230  1
  N  N50  1  0.89187843  0.53989334  0.86015220  1
  N  N51  1  0.75768727  0.44244948  0.58076826  1
  N  N52  1  0.57412270  0.52333355  0.32783616  1
  N  N53  1  0.44749835  0.42620874  0.09005892  1
  N  N54  1  0.23785503  0.51362551  0.84871682  1
  N  N55  1  0.11970796  0.44485497  0.58595852  1
  N  N56  1  0.86728381  0.54860604  0.33400263  1
  N  N57  1  0.77883828  0.42565473  0.09107651  1
  N  N58  1  0.57026235  0.51522900  0.84284509  1
  N  N59  1  0.44635273  0.42688642  0.60610210  1
  N  N60  1  0.22063736  0.86557408  0.34913318  1
  N  N61  1  0.09487327  0.75255792  0.09399993  1
  N  N62  1  0.86099602  0.88847781  0.84041413  1
  N  N63  1  0.79523904  0.76541502  0.57584522  1
  N  N64  1  0.57689966  0.86054770  0.34170742  1
  N  N65  1  0.46691938  0.74871019  0.10896182  1
  N  N66  1  0.22322053  0.87452846  0.86447229  1
  N  N67  1  0.10100534  0.75320607  0.62456500  1
  N  N68  1  0.87095202  0.88281347  0.33214445  1
  N  N69  1  0.77850616  0.76150914  0.09374130  1
  N  N70  1  0.57836254  0.86115552  0.84511334  1
  N  N71  1  0.45623388  0.73959116  0.60372024  1
