# generated using pymatgen
data_Sc4Al5N9
_symmetry_space_group_name_H-M   'P 1'
_cell_length_a   10.60239190
_cell_length_b   10.47711889
_cell_length_c   8.99192594
_cell_angle_alpha   90.00734687
_cell_angle_beta   90.41646126
_cell_angle_gamma   60.02347623
_symmetry_Int_Tables_number   1
_chemical_formula_structural   Sc4Al5N9
_chemical_formula_sum   'Sc16 Al20 N36'
_cell_volume   865.20046054
_cell_formula_units_Z   4
loop_
 _symmetry_equiv_pos_site_id
 _symmetry_equiv_pos_as_xyz
  1  'x, y, z'
loop_
 _atom_site_type_symbol
 _atom_site_label
 _atom_site_symmetry_multiplicity
 _atom_site_fract_x
 _atom_site_fract_y
 _atom_site_fract_z
 _atom_site_occupancy
  Sc  Sc0  1  0.10026463  0.10505478  0.34448866  1
  Sc  Sc1  1  0.86642074  0.21311528  0.59427552  1
  Sc  Sc2  1  0.45777173  0.09243484  0.34323974  1
  Sc  Sc3  1  0.09958347  0.10743635  0.84939843  1
  Sc  Sc4  1  0.22595690  0.21451523  0.59996935  1
  Sc  Sc5  1  0.44849655  0.09716409  0.85799403  1
  Sc  Sc6  1  0.10478942  0.43746623  0.34194796  1
  Sc  Sc7  1  0.88538535  0.53954216  0.60245467  1
  Sc  Sc8  1  0.45538644  0.42280194  0.35100068  1
  Sc  Sc9  1  0.10029575  0.76006436  0.34712722  1
  Sc  Sc10  1  0.22277019  0.87118207  0.09907424  1
  Sc  Sc11  1  0.46145192  0.74632398  0.34774178  1
  Sc  Sc12  1  0.09783121  0.75889451  0.84926220  1
  Sc  Sc13  1  0.22214018  0.86743415  0.59846800  1
  Sc  Sc14  1  0.45320060  0.75347609  0.85420443  1
  Sc  Sc15  1  0.57056199  0.86679869  0.60026819  1
  Al  Al16  1  0.22006536  0.21153011  0.09956951  1
  Al  Al17  1  0.77428509  0.09364468  0.85120284  1
  Al  Al18  1  0.56116289  0.20749242  0.09806928  1
  Al  Al19  1  0.77590518  0.09482353  0.31594046  1
  Al  Al20  1  0.88241957  0.20909083  0.08444849  1
  Al  Al21  1  0.56000718  0.20791827  0.63043814  1
  Al  Al22  1  0.22498405  0.53575714  0.10535069  1
  Al  Al23  1  0.77352095  0.42509549  0.85396228  1
  Al  Al24  1  0.56150234  0.53173621  0.09506793  1
  Al  Al25  1  0.11160492  0.43204442  0.86595500  1
  Al  Al26  1  0.22743157  0.53402855  0.62275091  1
  Al  Al27  1  0.77780746  0.42895798  0.31005572  1
  Al  Al28  1  0.88817696  0.54126665  0.08200259  1
  Al  Al29  1  0.44525055  0.42368690  0.87075888  1
  Al  Al30  1  0.55465798  0.52876295  0.63555676  1
  Al  Al31  1  0.78481561  0.76224792  0.84251145  1
  Al  Al32  1  0.87637659  0.87924629  0.57873110  1
  Al  Al33  1  0.56723420  0.86492322  0.08867370  1
  Al  Al34  1  0.77829514  0.75956845  0.32164258  1
  Al  Al35  1  0.88174077  0.87336713  0.08374931  1
  N  N36  1  0.22618243  0.20772021  0.33890522  1
  N  N37  1  0.09870073  0.11432118  0.09715089  1
  N  N38  1  0.86919423  0.21126858  0.86032215  1
  N  N39  1  0.76511128  0.08573534  0.62077019  1
  N  N40  1  0.57608765  0.19807978  0.31939857  1
  N  N41  1  0.44674172  0.09020764  0.09707749  1
  N  N42  1  0.21586576  0.22368024  0.85525374  1
  N  N43  1  0.10103413  0.10428739  0.59801937  1
  N  N44  1  0.86586568  0.21744581  0.34039368  1
  N  N45  1  0.78278195  0.09166975  0.09673959  1
  N  N46  1  0.56425831  0.21401486  0.85886726  1
  N  N47  1  0.45735607  0.10460674  0.60292776  1
  N  N48  1  0.22961423  0.53631099  0.32543506  1
  N  N49  1  0.10929651  0.43200396  0.08944882  1
  N  N50  1  0.89344689  0.54084841  0.86115427  1
  N  N51  1  0.75572695  0.43945237  0.63038914  1
  N  N52  1  0.57888316  0.52230082  0.31629165  1
  N  N53  1  0.44164470  0.42856466  0.08796773  1
  N  N54  1  0.23393783  0.52082829  0.84627162  1
  N  N55  1  0.11579947  0.44281730  0.59342956  1
  N  N56  1  0.87025117  0.54547527  0.34214545  1
  N  N57  1  0.78308422  0.42724212  0.08680029  1
  N  N58  1  0.55990180  0.52003024  0.86153893  1
  N  N59  1  0.44699627  0.42537947  0.60531096  1
  N  N60  1  0.22368711  0.87010509  0.34665267  1
  N  N61  1  0.09742683  0.75535524  0.09666821  1
  N  N62  1  0.86887089  0.88356730  0.86948779  1
  N  N63  1  0.79286901  0.76514323  0.62181705  1
  N  N64  1  0.57766356  0.86038500  0.35111527  1
  N  N65  1  0.46224263  0.75418012  0.09688808  1
  N  N66  1  0.22014698  0.87173429  0.85059654  1
  N  N67  1  0.09825637  0.75410976  0.59952595  1
  N  N68  1  0.86571422  0.88411008  0.35527173  1
  N  N69  1  0.78109676  0.75927397  0.10398569  1
  N  N70  1  0.57740064  0.86111528  0.85874267  1
  N  N71  1  0.45693641  0.73729614  0.60296445  1
