# generated using pymatgen
data_Sc4Al5N9
_symmetry_space_group_name_H-M   'P 1'
_cell_length_a   10.62986319
_cell_length_b   10.51287167
_cell_length_c   8.91171494
_cell_angle_alpha   89.91072839
_cell_angle_beta   90.16857081
_cell_angle_gamma   59.97959470
_symmetry_Int_Tables_number   1
_chemical_formula_structural   Sc4Al5N9
_chemical_formula_sum   'Sc16 Al20 N36'
_cell_volume   862.27755511
_cell_formula_units_Z   4
loop_
 _symmetry_equiv_pos_site_id
 _symmetry_equiv_pos_as_xyz
  1  'x, y, z'
loop_
 _atom_site_type_symbol
 _atom_site_label
 _atom_site_symmetry_multiplicity
 _atom_site_fract_x
 _atom_site_fract_y
 _atom_site_fract_z
 _atom_site_occupancy
  Sc  Sc0  1  0.10091758  0.10499884  0.34498277  1
  Sc  Sc1  1  0.86787265  0.21294471  0.59586433  1
  Sc  Sc2  1  0.45599112  0.09248232  0.34296651  1
  Sc  Sc3  1  0.09894704  0.10750925  0.85096640  1
  Sc  Sc4  1  0.22635899  0.21398914  0.60031690  1
  Sc  Sc5  1  0.45068831  0.09785877  0.85630876  1
  Sc  Sc6  1  0.10479075  0.43764623  0.34099127  1
  Sc  Sc7  1  0.88529066  0.54046386  0.60392573  1
  Sc  Sc8  1  0.45297628  0.42484695  0.35057979  1
  Sc  Sc9  1  0.09984887  0.75943269  0.34755555  1
  Sc  Sc10  1  0.22261773  0.87105992  0.09936641  1
  Sc  Sc11  1  0.46074880  0.74665680  0.34700896  1
  Sc  Sc12  1  0.09781185  0.75961358  0.85133650  1
  Sc  Sc13  1  0.22208026  0.86759905  0.59863214  1
  Sc  Sc14  1  0.45329320  0.75339588  0.85344723  1
  Sc  Sc15  1  0.57118450  0.86640379  0.59948336  1
  Al  Al16  1  0.21978969  0.21242344  0.09725232  1
  Al  Al17  1  0.77367104  0.09739086  0.87497295  1
  Al  Al18  1  0.56135153  0.20756791  0.10521499  1
  Al  Al19  1  0.77217255  0.09347873  0.34491573  1
  Al  Al20  1  0.88087239  0.21003480  0.09695727  1
  Al  Al21  1  0.56317977  0.20542054  0.62241848  1
  Al  Al22  1  0.22581939  0.53446072  0.10045768  1
  Al  Al23  1  0.77356367  0.42443651  0.85434493  1
  Al  Al24  1  0.56218737  0.53061117  0.09417509  1
  Al  Al25  1  0.11175545  0.43146695  0.86234096  1
  Al  Al26  1  0.22771054  0.53405906  0.62302260  1
  Al  Al27  1  0.77671419  0.43037050  0.31403791  1
  Al  Al28  1  0.88845564  0.53937803  0.08267730  1
  Al  Al29  1  0.44848922  0.42139541  0.86546646  1
  Al  Al30  1  0.55537048  0.52940964  0.63147996  1
  Al  Al31  1  0.78302456  0.76349458  0.84993715  1
  Al  Al32  1  0.87905469  0.87710051  0.59421458  1
  Al  Al33  1  0.56595046  0.86551091  0.09067564  1
  Al  Al34  1  0.77893852  0.75821003  0.31916653  1
  Al  Al35  1  0.88121199  0.87500578  0.09651046  1
  N  N36  1  0.22542696  0.20848468  0.33881184  1
  N  N37  1  0.09866033  0.11416928  0.09751934  1
  N  N38  1  0.86826025  0.21072004  0.85781917  1
  N  N39  1  0.76578919  0.08593029  0.57975424  1
  N  N40  1  0.57212386  0.20021309  0.32353800  1
  N  N41  1  0.44775289  0.09210734  0.09645655  1
  N  N42  1  0.21703860  0.22243319  0.85599952  1
  N  N43  1  0.10158596  0.10418060  0.59818479  1
  N  N44  1  0.86671008  0.21843082  0.33576768  1
  N  N45  1  0.77906420  0.09418585  0.09736104  1
  N  N46  1  0.56890158  0.21210819  0.84885760  1
  N  N47  1  0.45773711  0.10356848  0.60100706  1
  N  N48  1  0.22874709  0.53639166  0.32428079  1
  N  N49  1  0.10904597  0.43182414  0.08821574  1
  N  N50  1  0.89347034  0.53920452  0.86007268  1
  N  N51  1  0.75629038  0.43954088  0.62538032  1
  N  N52  1  0.57796235  0.52273642  0.31864298  1
  N  N53  1  0.44424637  0.42568037  0.08612419  1
  N  N54  1  0.23480436  0.52067964  0.84850501  1
  N  N55  1  0.11619640  0.44260811  0.59685357  1
  N  N56  1  0.87034078  0.54604514  0.33847847  1
  N  N57  1  0.78213389  0.42730905  0.08661048  1
  N  N58  1  0.56091958  0.52007284  0.85969197  1
  N  N59  1  0.44662345  0.42637746  0.60590917  1
  N  N60  1  0.22319285  0.87002178  0.34700948  1
  N  N61  1  0.09794162  0.75546970  0.09535664  1
  N  N62  1  0.86710591  0.88898011  0.86005382  1
  N  N63  1  0.79224562  0.76497490  0.62066938  1
  N  N64  1  0.57784061  0.85999568  0.34495252  1
  N  N65  1  0.46164388  0.75354680  0.09658111  1
  N  N66  1  0.21998366  0.87195627  0.85024256  1
  N  N67  1  0.09817792  0.75376506  0.60014693  1
  N  N68  1  0.86801055  0.87832664  0.33909663  1
  N  N69  1  0.78089047  0.75853772  0.09524068  1
  N  N70  1  0.57513060  0.86272776  0.85767100  1
  N  N71  1  0.45695805  0.73810195  0.60164175  1
