# generated using pymatgen
data_Sc4Al5N9
_symmetry_space_group_name_H-M   'P 1'
_cell_length_a   10.14535280
_cell_length_b   10.09790207
_cell_length_c   10.12939208
_cell_angle_alpha   89.95443817
_cell_angle_beta   90.08166632
_cell_angle_gamma   60.12457077
_symmetry_Int_Tables_number   1
_chemical_formula_structural   Sc4Al5N9
_chemical_formula_sum   'Sc16 Al20 N36'
_cell_volume   899.81869277
_cell_formula_units_Z   4
loop_
 _symmetry_equiv_pos_site_id
 _symmetry_equiv_pos_as_xyz
  1  'x, y, z'
loop_
 _atom_site_type_symbol
 _atom_site_label
 _atom_site_symmetry_multiplicity
 _atom_site_fract_x
 _atom_site_fract_y
 _atom_site_fract_z
 _atom_site_occupancy
  Sc  Sc0  1  0.10121990  0.10727747  0.31060547  1
  Sc  Sc1  1  0.87295910  0.21084710  0.57136597  1
  Sc  Sc2  1  0.45316325  0.09287159  0.30914646  1
  Sc  Sc3  1  0.09862942  0.10311096  0.83374807  1
  Sc  Sc4  1  0.22692398  0.21237337  0.58304815  1
  Sc  Sc5  1  0.45228504  0.09762165  0.83937156  1
  Sc  Sc6  1  0.10538164  0.43316349  0.31491290  1
  Sc  Sc7  1  0.88519646  0.54329014  0.57944841  1
  Sc  Sc8  1  0.45214645  0.42321419  0.32858484  1
  Sc  Sc9  1  0.09863870  0.75956867  0.32062865  1
  Sc  Sc10  1  0.22428709  0.86731590  0.07687344  1
  Sc  Sc11  1  0.46282792  0.74956678  0.31857372  1
  Sc  Sc12  1  0.10051270  0.75654539  0.82499795  1
  Sc  Sc13  1  0.22144168  0.86929317  0.56721483  1
  Sc  Sc14  1  0.45482690  0.74643037  0.82671156  1
  Sc  Sc15  1  0.56546815  0.87274914  0.57716112  1
  Al  Al16  1  0.21529546  0.21815912  0.05330924  1
  Al  Al17  1  0.76976622  0.09740672  0.81947099  1
  Al  Al18  1  0.56097276  0.21181822  0.06078599  1
  Al  Al19  1  0.77431602  0.09500991  0.31386358  1
  Al  Al20  1  0.87578412  0.21386882  0.06378257  1
  Al  Al21  1  0.56202295  0.20275859  0.57076736  1
  Al  Al22  1  0.22694416  0.52984608  0.05782263  1
  Al  Al23  1  0.77050531  0.42665214  0.82287563  1
  Al  Al24  1  0.56346471  0.52751691  0.06225908  1
  Al  Al25  1  0.11171398  0.43458552  0.82015816  1
  Al  Al26  1  0.22456739  0.53957831  0.57249563  1
  Al  Al27  1  0.77678087  0.42917466  0.30956956  1
  Al  Al28  1  0.88809226  0.53983900  0.06033140  1
  Al  Al29  1  0.45187791  0.42127775  0.81440197  1
  Al  Al30  1  0.55962503  0.53150039  0.56947228  1
  Al  Al31  1  0.78354088  0.76223387  0.82121993  1
  Al  Al32  1  0.88075261  0.87675848  0.56594990  1
  Al  Al33  1  0.57045715  0.86078082  0.05871566  1
  Al  Al34  1  0.77755501  0.76131537  0.31068866  1
  Al  Al35  1  0.87875196  0.87463372  0.06537430  1
  N  N36  1  0.22669482  0.20673209  0.37169481  1
  N  N37  1  0.09789778  0.11697257  0.09428203  1
  N  N38  1  0.86337240  0.21569054  0.87407908  1
  N  N39  1  0.76947985  0.08415283  0.63074318  1
  N  N40  1  0.57562800  0.19403173  0.38189970  1
  N  N41  1  0.44588094  0.09470393  0.08994514  1
  N  N42  1  0.21216279  0.22644314  0.86497727  1
  N  N43  1  0.10363958  0.09933433  0.61997540  1
  N  N44  1  0.86890717  0.21551795  0.35900826  1
  N  N45  1  0.77549462  0.09468577  0.12275026  1
  N  N46  1  0.56675296  0.21770097  0.87565929  1
  N  N47  1  0.45705390  0.10403295  0.62686168  1
  N  N48  1  0.22401847  0.53614215  0.38563221  1
  N  N49  1  0.10974479  0.43027959  0.10364186  1
  N  N50  1  0.88947145  0.54011191  0.86833070  1
  N  N51  1  0.75864837  0.43747269  0.63777408  1
  N  N52  1  0.58044802  0.52348376  0.38160121  1
  N  N53  1  0.44472103  0.42737297  0.11567096  1
  N  N54  1  0.23953762  0.51821013  0.87050717  1
  N  N55  1  0.11651562  0.44422150  0.63170887  1
  N  N56  1  0.87083061  0.54803094  0.36403462  1
  N  N57  1  0.77765390  0.42902781  0.11713796  1
  N  N58  1  0.56454371  0.51529608  0.87697462  1
  N  N59  1  0.44735265  0.42648979  0.61922424  1
  N  N60  1  0.22349110  0.87171959  0.34521579  1
  N  N61  1  0.09823934  0.74750968  0.10383229  1
  N  N62  1  0.86541425  0.88774578  0.87992665  1
  N  N63  1  0.79137786  0.76896195  0.63573281  1
  N  N64  1  0.57541943  0.86602336  0.36670406  1
  N  N65  1  0.46950303  0.74539928  0.10202269  1
  N  N66  1  0.22179172  0.86713590  0.86741387  1
  N  N67  1  0.09789616  0.75781277  0.60820495  1
  N  N68  1  0.86588375  0.88351755  0.37387556  1
  N  N69  1  0.78072048  0.75844781  0.11917883  1
  N  N70  1  0.57878943  0.85664375  0.87070984  1
  N  N71  1  0.45419629  0.74255777  0.61185460  1
