# generated using pymatgen
data_Sc4Al5N9
_symmetry_space_group_name_H-M   'P 1'
_cell_length_a   10.14468075
_cell_length_b   10.08762494
_cell_length_c   10.11677403
_cell_angle_alpha   89.85204524
_cell_angle_beta   89.75076690
_cell_angle_gamma   60.22111483
_symmetry_Int_Tables_number   1
_chemical_formula_structural   Sc4Al5N9
_chemical_formula_sum   'Sc16 Al20 N36'
_cell_volume   898.58502708
_cell_formula_units_Z   4
loop_
 _symmetry_equiv_pos_site_id
 _symmetry_equiv_pos_as_xyz
  1  'x, y, z'
loop_
 _atom_site_type_symbol
 _atom_site_label
 _atom_site_symmetry_multiplicity
 _atom_site_fract_x
 _atom_site_fract_y
 _atom_site_fract_z
 _atom_site_occupancy
  Sc  Sc0  1  0.10177031  0.10052390  0.38325291  1
  Sc  Sc1  1  0.87402233  0.21080401  0.64123412  1
  Sc  Sc2  1  0.45550251  0.09379480  0.38623911  1
  Sc  Sc3  1  0.09716150  0.11043184  0.90840574  1
  Sc  Sc4  1  0.22414365  0.21700146  0.64732895  1
  Sc  Sc5  1  0.45034305  0.09547600  0.90203888  1
  Sc  Sc6  1  0.10445554  0.43752827  0.38153895  1
  Sc  Sc7  1  0.89092139  0.54212570  0.64945672  1
  Sc  Sc8  1  0.45032107  0.42386791  0.39679845  1
  Sc  Sc9  1  0.09850799  0.75948414  0.40682044  1
  Sc  Sc10  1  0.22140759  0.86569761  0.14117824  1
  Sc  Sc11  1  0.45554628  0.74866444  0.39060052  1
  Sc  Sc12  1  0.10023693  0.75609158  0.88652256  1
  Sc  Sc13  1  0.22390243  0.87116559  0.65188476  1
  Sc  Sc14  1  0.46043974  0.74836838  0.89988711  1
  Sc  Sc15  1  0.56860210  0.86872480  0.64147659  1
  Al  Al16  1  0.22151477  0.21056197  0.15370180  1
  Al  Al17  1  0.77218639  0.09999070  0.90492654  1
  Al  Al18  1  0.56340318  0.20532969  0.14877161  1
  Al  Al19  1  0.77294049  0.09210192  0.39804953  1
  Al  Al20  1  0.87511615  0.21380260  0.15754078  1
  Al  Al21  1  0.56002564  0.20811277  0.65798641  1
  Al  Al22  1  0.22258968  0.53799601  0.14373034  1
  Al  Al23  1  0.77703370  0.42429080  0.90761222  1
  Al  Al24  1  0.56614477  0.52903137  0.14909308  1
  Al  Al25  1  0.11067463  0.43033875  0.91455940  1
  Al  Al26  1  0.23111892  0.53070649  0.66366542  1
  Al  Al27  1  0.77064800  0.43249861  0.39710830  1
  Al  Al28  1  0.88108786  0.54191628  0.14784920  1
  Al  Al29  1  0.45324378  0.41980185  0.90276892  1
  Al  Al30  1  0.55801010  0.52953753  0.65819551  1
  Al  Al31  1  0.77995411  0.76163880  0.91014652  1
  Al  Al32  1  0.87750785  0.87803885  0.65638771  1
  Al  Al33  1  0.56804950  0.86476746  0.15694151  1
  Al  Al34  1  0.78178874  0.76152056  0.39385289  1
  Al  Al35  1  0.88206605  0.87386964  0.15007781  1
  N  N36  1  0.22563373  0.20788382  0.34136092  1
  N  N37  1  0.09596776  0.11462260  0.12341402  1
  N  N38  1  0.86851710  0.21558255  0.85251775  1
  N  N39  1  0.76627684  0.08458591  0.58895364  1
  N  N40  1  0.57614288  0.20002133  0.33276390  1
  N  N41  1  0.44808776  0.09177083  0.11699333  1
  N  N42  1  0.21411352  0.22514312  0.85940759  1
  N  N43  1  0.10656839  0.10176561  0.59845271  1
  N  N44  1  0.86345900  0.21713672  0.34925312  1
  N  N45  1  0.77915548  0.09417928  0.09478017  1
  N  N46  1  0.56701715  0.21222904  0.84804832  1
  N  N47  1  0.45589265  0.10547594  0.60440018  1
  N  N48  1  0.22688445  0.54265807  0.32909379  1
  N  N49  1  0.10877038  0.42952166  0.10731882  1
  N  N50  1  0.89189058  0.53990483  0.86543113  1
  N  N51  1  0.75772303  0.44243459  0.58603460  1
  N  N52  1  0.57414990  0.52332714  0.33310729  1
  N  N53  1  0.44752129  0.42620647  0.09532955  1
  N  N54  1  0.23787896  0.51362456  0.85398422  1
  N  N55  1  0.11971512  0.44486112  0.59125057  1
  N  N56  1  0.86729609  0.54861467  0.33927403  1
  N  N57  1  0.77887163  0.42564280  0.09635561  1
  N  N58  1  0.57029918  0.51522210  0.84811961  1
  N  N59  1  0.44637584  0.42690063  0.61137310  1
  N  N60  1  0.22071075  0.86554034  0.35441394  1
  N  N61  1  0.09491385  0.75254975  0.09928474  1
  N  N62  1  0.86104382  0.88847456  0.84568058  1
  N  N63  1  0.79526504  0.76542526  0.58111928  1
  N  N64  1  0.57692784  0.86055598  0.34697256  1
  N  N65  1  0.46697250  0.74869670  0.11421579  1
  N  N66  1  0.22326726  0.87451692  0.86974395  1
  N  N67  1  0.10104551  0.75320364  0.62982200  1
  N  N68  1  0.87099098  0.88281079  0.33742349  1
  N  N69  1  0.77853923  0.76151402  0.09901698  1
  N  N70  1  0.57839088  0.86119222  0.85040202  1
  N  N71  1  0.45629694  0.73959718  0.60902560  1
