# generated using pymatgen
data_Sc4Al5N9
_symmetry_space_group_name_H-M   'P 1'
_cell_length_a   10.32459523
_cell_length_b   10.24108052
_cell_length_c   9.65876547
_cell_angle_alpha   89.91428582
_cell_angle_beta   89.84738845
_cell_angle_gamma   60.17682099
_symmetry_Int_Tables_number   1
_chemical_formula_structural   Sc4Al5N9
_chemical_formula_sum   'Sc16 Al20 N36'
_cell_volume   886.01398119
_cell_formula_units_Z   4
loop_
 _symmetry_equiv_pos_site_id
 _symmetry_equiv_pos_as_xyz
  1  'x, y, z'
loop_
 _atom_site_type_symbol
 _atom_site_label
 _atom_site_symmetry_multiplicity
 _atom_site_fract_x
 _atom_site_fract_y
 _atom_site_fract_z
 _atom_site_occupancy
  Sc  Sc0  1  0.10155125  0.10169327  0.36103646  1
  Sc  Sc1  1  0.87117865  0.21132838  0.61218578  1
  Sc  Sc2  1  0.45599906  0.09452179  0.36040605  1
  Sc  Sc3  1  0.09625239  0.11092887  0.87321790  1
  Sc  Sc4  1  0.22466274  0.21780183  0.61864187  1
  Sc  Sc5  1  0.45023793  0.09455479  0.87380825  1
  Sc  Sc6  1  0.10474395  0.43858426  0.35387517  1
  Sc  Sc7  1  0.89161072  0.54067683  0.62478999  1
  Sc  Sc8  1  0.45152979  0.42370898  0.36892895  1
  Sc  Sc9  1  0.09813868  0.76023928  0.37285920  1
  Sc  Sc10  1  0.22189352  0.86912450  0.11247779  1
  Sc  Sc11  1  0.45622623  0.74748826  0.36434131  1
  Sc  Sc12  1  0.09944589  0.75695565  0.86418742  1
  Sc  Sc13  1  0.22288349  0.86862383  0.62013981  1
  Sc  Sc14  1  0.45945947  0.74962106  0.86944114  1
  Sc  Sc15  1  0.56966518  0.86731657  0.61298526  1
  Al  Al16  1  0.22092598  0.20956184  0.12931783  1
  Al  Al17  1  0.77287914  0.10028118  0.88306408  1
  Al  Al18  1  0.56511388  0.20485381  0.12370028  1
  Al  Al19  1  0.77183129  0.09089665  0.37706567  1
  Al  Al20  1  0.87570076  0.21375115  0.13606280  1
  Al  Al21  1  0.55999514  0.20805987  0.63779245  1
  Al  Al22  1  0.22444106  0.53776191  0.11891259  1
  Al  Al23  1  0.77687006  0.42265452  0.88434276  1
  Al  Al24  1  0.56733437  0.52920549  0.12352430  1
  Al  Al25  1  0.11044840  0.43003971  0.89310192  1
  Al  Al26  1  0.23033981  0.53095201  0.64111955  1
  Al  Al27  1  0.77000056  0.43415430  0.37666485  1
  Al  Al28  1  0.88004795  0.54175899  0.12361365  1
  Al  Al29  1  0.45266894  0.41991531  0.88285984  1
  Al  Al30  1  0.55709201  0.52824454  0.63820744  1
  Al  Al31  1  0.77948532  0.76179699  0.88788614  1
  Al  Al32  1  0.87753521  0.87738386  0.63531632  1
  Al  Al33  1  0.56834384  0.86414242  0.13445403  1
  Al  Al34  1  0.78294246  0.76103658  0.37220011  1
  Al  Al35  1  0.88008381  0.87613263  0.12654473  1
  N  N36  1  0.22565907  0.20743277  0.33093139  1
  N  N37  1  0.09466848  0.11619227  0.10464412  1
  N  N38  1  0.86624012  0.21588707  0.83400489  1
  N  N39  1  0.76444761  0.08374455  0.57551977  1
  N  N40  1  0.57681755  0.19899170  0.31667260  1
  N  N41  1  0.44829742  0.09054530  0.10098653  1
  N  N42  1  0.21452255  0.22591179  0.84393819  1
  N  N43  1  0.10493880  0.10248917  0.59188777  1
  N  N44  1  0.86386551  0.21658400  0.33903280  1
  N  N45  1  0.78044409  0.09505383  0.07994602  1
  N  N46  1  0.56687302  0.21244209  0.83721650  1
  N  N47  1  0.45652401  0.10494243  0.59354755  1
  N  N48  1  0.22875301  0.54071922  0.31323829  1
  N  N49  1  0.10854891  0.42986320  0.09404902  1
  N  N50  1  0.89211362  0.53949373  0.85119822  1
  N  N51  1  0.75560888  0.44385460  0.57394405  1
  N  N52  1  0.57560803  0.52319835  0.31678053  1
  N  N53  1  0.44824175  0.42610281  0.08268203  1
  N  N54  1  0.23701525  0.51518034  0.84262489  1
  N  N55  1  0.11902506  0.44557445  0.57520688  1
  N  N56  1  0.86764051  0.54815805  0.32563806  1
  N  N57  1  0.77996403  0.42469043  0.08083566  1
  N  N58  1  0.56916060  0.51471572  0.83734465  1
  N  N59  1  0.44601849  0.42627173  0.59508073  1
  N  N60  1  0.22168704  0.86810883  0.34455653  1
  N  N61  1  0.09493655  0.75521216  0.08958807  1
  N  N62  1  0.86211188  0.88791603  0.83342544  1
  N  N63  1  0.79616004  0.76420257  0.56819927  1
  N  N64  1  0.57702691  0.86035772  0.33739081  1
  N  N65  1  0.46671122  0.74972158  0.09834141  1
  N  N66  1  0.22210772  0.87316636  0.85625463  1
  N  N67  1  0.09979088  0.75258357  0.61004378  1
  N  N68  1  0.86822207  0.88392580  0.32171622  1
  N  N69  1  0.77824893  0.76154871  0.08486684  1
  N  N70  1  0.57933722  0.86039263  0.83352985  1
  N  N71  1  0.45596135  0.73845457  0.59846567  1
