# generated using pymatgen
data_Sc4Al5N9
_symmetry_space_group_name_H-M   'P 1'
_cell_length_a   10.34661832
_cell_length_b   10.26028700
_cell_length_c   9.60163659
_cell_angle_alpha   89.92001847
_cell_angle_beta   89.85773269
_cell_angle_gamma   60.16635755
_symmetry_Int_Tables_number   1
_chemical_formula_structural   Sc4Al5N9
_chemical_formula_sum   'Sc16 Al20 N36'
_cell_volume   884.21539034
_cell_formula_units_Z   4
loop_
 _symmetry_equiv_pos_site_id
 _symmetry_equiv_pos_as_xyz
  1  'x, y, z'
loop_
 _atom_site_type_symbol
 _atom_site_label
 _atom_site_symmetry_multiplicity
 _atom_site_fract_x
 _atom_site_fract_y
 _atom_site_fract_z
 _atom_site_occupancy
  Sc  Sc0  1  0.10154014  0.10188338  0.36050357  1
  Sc  Sc1  1  0.87094379  0.21132195  0.61119553  1
  Sc  Sc2  1  0.45603202  0.09459449  0.35955048  1
  Sc  Sc3  1  0.09628550  0.11076260  0.87121769  1
  Sc  Sc4  1  0.22476493  0.21776122  0.61763674  1
  Sc  Sc5  1  0.45028698  0.09450730  0.87272767  1
  Sc  Sc6  1  0.10482099  0.43863084  0.35314557  1
  Sc  Sc7  1  0.89153511  0.54060593  0.62398342  1
  Sc  Sc8  1  0.45160409  0.42374324  0.36774792  1
  Sc  Sc9  1  0.09809681  0.76029480  0.37081192  1
  Sc  Sc10  1  0.22196794  0.86948854  0.11151355  1
  Sc  Sc11  1  0.45643089  0.74739300  0.36336937  1
  Sc  Sc12  1  0.09938705  0.75715970  0.86384913  1
  Sc  Sc13  1  0.22283611  0.86829438  0.61831419  1
  Sc  Sc14  1  0.45924406  0.74980235  0.86819085  1
  Sc  Sc15  1  0.56981576  0.86720241  0.61209591  1
  Al  Al16  1  0.22081727  0.20953008  0.12820010  1
  Al  Al17  1  0.77303006  0.10025442  0.88270432  1
  Al  Al18  1  0.56527080  0.20484707  0.12274664  1
  Al  Al19  1  0.77172437  0.09083690  0.37659031  1
  Al  Al20  1  0.87584081  0.21369671  0.13545144  1
  Al  Al21  1  0.56002425  0.20807329  0.63763593  1
  Al  Al22  1  0.22461922  0.53762889  0.11793374  1
  Al  Al23  1  0.77691513  0.42250135  0.88375688  1
  Al  Al24  1  0.56745318  0.52920524  0.12249612  1
  Al  Al25  1  0.11036155  0.43003228  0.89254345  1
  Al  Al26  1  0.23021902  0.53109705  0.64075925  1
  Al  Al27  1  0.76996296  0.43424434  0.37629103  1
  Al  Al28  1  0.88009248  0.54162804  0.12279551  1
  Al  Al29  1  0.45262250  0.41998287  0.88261013  1
  Al  Al30  1  0.55700159  0.52817917  0.63806217  1
  Al  Al31  1  0.77948704  0.76177492  0.88750707  1
  Al  Al32  1  0.87761306  0.87729711  0.63491886  1
  Al  Al33  1  0.56830356  0.86416137  0.13363252  1
  Al  Al34  1  0.78299207  0.76103459  0.37158785  1
  Al  Al35  1  0.87985190  0.87641322  0.12585972  1
  N  N36  1  0.22566725  0.20744244  0.33201170  1
  N  N37  1  0.09463391  0.11620375  0.10483436  1
  N  N38  1  0.86613886  0.21583125  0.83450629  1
  N  N39  1  0.76431442  0.08374071  0.57630217  1
  N  N40  1  0.57677218  0.19893692  0.31710212  1
  N  N41  1  0.44831031  0.09044010  0.10130142  1
  N  N42  1  0.21462155  0.22581391  0.84491185  1
  N  N43  1  0.10478580  0.10255124  0.59358605  1
  N  N44  1  0.86397688  0.21649687  0.33991915  1
  N  N45  1  0.78060350  0.09511150  0.08061109  1
  N  N46  1  0.56692500  0.21246289  0.83846134  1
  N  N47  1  0.45659297  0.10488592  0.59484942  1
  N  N48  1  0.22885661  0.54044682  0.31368891  1
  N  N49  1  0.10844140  0.42992596  0.09453047  1
  N  N50  1  0.89204782  0.53948956  0.85194392  1
  N  N51  1  0.75545905  0.44383418  0.57493658  1
  N  N52  1  0.57569643  0.52322076  0.31716167  1
  N  N53  1  0.44831650  0.42609966  0.08351125  1
  N  N54  1  0.23686786  0.51547510  0.84388541  1
  N  N55  1  0.11895501  0.44554234  0.57619492  1
  N  N56  1  0.86781129  0.54800117  0.32647094  1
  N  N57  1  0.78013422  0.42460395  0.08137258  1
  N  N58  1  0.56904808  0.51477295  0.83860459  1
  N  N59  1  0.44595427  0.42626743  0.59573755  1
  N  N60  1  0.22181863  0.86833292  0.34604693  1
  N  N61  1  0.09496534  0.75557417  0.09087964  1
  N  N62  1  0.86227608  0.88780478  0.83439025  1
  N  N63  1  0.79614344  0.76414670  0.56901072  1
  N  N64  1  0.57698983  0.86042868  0.33835291  1
  N  N65  1  0.46656489  0.74990638  0.09883485  1
  N  N66  1  0.22202131  0.87297961  0.85678128  1
  N  N67  1  0.09968421  0.75251021  0.61000568  1
  N  N68  1  0.86799537  0.88403644  0.32223983  1
  N  N69  1  0.77829685  0.76149021  0.08566332  1
  N  N70  1  0.57935563  0.86031996  0.83432295  1
  N  N71  1  0.45601937  0.73838960  0.59950266  1
