# generated using pymatgen
data_Sc4Al5N9
_symmetry_space_group_name_H-M   'P 1'
_cell_length_a   10.58521726
_cell_length_b   10.45924253
_cell_length_c   9.04200717
_cell_angle_alpha   89.98323384
_cell_angle_beta   90.29558652
_cell_angle_gamma   59.99350000
_symmetry_Int_Tables_number   1
_chemical_formula_structural   Sc4Al5N9
_chemical_formula_sum   'Sc16 Al20 N36'
_cell_volume   866.87977513
_cell_formula_units_Z   4
loop_
 _symmetry_equiv_pos_site_id
 _symmetry_equiv_pos_as_xyz
  1  'x, y, z'
loop_
 _atom_site_type_symbol
 _atom_site_label
 _atom_site_symmetry_multiplicity
 _atom_site_fract_x
 _atom_site_fract_y
 _atom_site_fract_z
 _atom_site_occupancy
  Sc  Sc0  1  0.09969131  0.10517598  0.34500484  1
  Sc  Sc1  1  0.86772719  0.21461847  0.59492842  1
  Sc  Sc2  1  0.45619428  0.09020850  0.34059661  1
  Sc  Sc3  1  0.09932984  0.10715357  0.85080183  1
  Sc  Sc4  1  0.22627082  0.21390914  0.60064086  1
  Sc  Sc5  1  0.45187436  0.09985119  0.85303087  1
  Sc  Sc6  1  0.10429845  0.43748574  0.34299730  1
  Sc  Sc7  1  0.88599805  0.53967808  0.60485558  1
  Sc  Sc8  1  0.45234624  0.42769369  0.34805219  1
  Sc  Sc9  1  0.10017082  0.75996701  0.34742340  1
  Sc  Sc10  1  0.22257038  0.87126793  0.10014122  1
  Sc  Sc11  1  0.46169333  0.74702915  0.34819036  1
  Sc  Sc12  1  0.09619243  0.76043766  0.85164448  1
  Sc  Sc13  1  0.22208000  0.86698527  0.59948323  1
  Sc  Sc14  1  0.45253712  0.75417960  0.85497426  1
  Sc  Sc15  1  0.57112537  0.86555673  0.60105857  1
  Al  Al16  1  0.21971748  0.21201978  0.09827876  1
  Al  Al17  1  0.76997530  0.09496449  0.83607311  1
  Al  Al18  1  0.56401483  0.20580945  0.08683123  1
  Al  Al19  1  0.77520431  0.09558309  0.32583713  1
  Al  Al20  1  0.87991884  0.20764327  0.08429272  1
  Al  Al21  1  0.56243466  0.20409583  0.58272718  1
  Al  Al22  1  0.22433506  0.53556652  0.10463230  1
  Al  Al23  1  0.77283626  0.42419445  0.85551765  1
  Al  Al24  1  0.56203278  0.53182673  0.09524791  1
  Al  Al25  1  0.11205905  0.43144522  0.86813454  1
  Al  Al26  1  0.22853501  0.53348093  0.62724397  1
  Al  Al27  1  0.77848594  0.42908534  0.30999730  1
  Al  Al28  1  0.88851533  0.54108764  0.08096570  1
  Al  Al29  1  0.44802291  0.41980583  0.86868947  1
  Al  Al30  1  0.55388902  0.52857363  0.63794973  1
  Al  Al31  1  0.78493771  0.76372903  0.84364252  1
  Al  Al32  1  0.87874488  0.87598589  0.57742155  1
  Al  Al33  1  0.56798449  0.86551998  0.08428237  1
  Al  Al34  1  0.77821375  0.75864482  0.32098014  1
  Al  Al35  1  0.87873550  0.87768107  0.08623930  1
  N  N36  1  0.22577684  0.20732546  0.33956245  1
  N  N37  1  0.09746687  0.11439003  0.09815314  1
  N  N38  1  0.86766346  0.20902769  0.86248716  1
  N  N39  1  0.76783444  0.08383265  0.61879843  1
  N  N40  1  0.57591575  0.19853848  0.36119372  1
  N  N41  1  0.45132841  0.09161713  0.09857710  1
  N  N42  1  0.21725177  0.22269688  0.85777659  1
  N  N43  1  0.10150474  0.10407890  0.60012596  1
  N  N44  1  0.86587682  0.21928113  0.34658573  1
  N  N45  1  0.77764267  0.09460805  0.11355215  1
  N  N46  1  0.56755749  0.21255116  0.86982976  1
  N  N47  1  0.45668084  0.10249806  0.60361362  1
  N  N48  1  0.22771123  0.53710838  0.32250296  1
  N  N49  1  0.10864732  0.43170808  0.09056906  1
  N  N50  1  0.89423721  0.54112250  0.86269191  1
  N  N51  1  0.75549006  0.44028972  0.63496473  1
  N  N52  1  0.57920811  0.52329442  0.31503610  1
  N  N53  1  0.44406438  0.42514813  0.09176878  1
  N  N54  1  0.23463564  0.52056649  0.85009720  1
  N  N55  1  0.11697918  0.44263107  0.59435157  1
  N  N56  1  0.86990155  0.54556892  0.34540107  1
  N  N57  1  0.78372093  0.42640265  0.08746429  1
  N  N58  1  0.55894216  0.52029454  0.86385846  1
  N  N59  1  0.44601275  0.42631473  0.60614932  1
  N  N60  1  0.22379469  0.86991992  0.34771234  1
  N  N61  1  0.09595027  0.75711666  0.09755765  1
  N  N62  1  0.86622674  0.88800598  0.87416702  1
  N  N63  1  0.79370397  0.76516927  0.62683156  1
  N  N64  1  0.57845754  0.85956816  0.35558227  1
  N  N65  1  0.46230575  0.75554230  0.09725127  1
  N  N66  1  0.21957894  0.87174390  0.85197963  1
  N  N67  1  0.09871295  0.75312597  0.60161028  1
  N  N68  1  0.86601987  0.88197993  0.35849661  1
  N  N69  1  0.78091170  0.75939639  0.10549323  1
  N  N70  1  0.57714448  0.86206933  0.86009689  1
  N  N71  1  0.45666412  0.73706467  0.60462210  1
