# generated using pymatgen
data_Sc4Al5N9
_symmetry_space_group_name_H-M   'P 1'
_cell_length_a   10.14445323
_cell_length_b   10.09692508
_cell_length_c   10.13150826
_cell_angle_alpha   89.95231634
_cell_angle_beta   90.08062619
_cell_angle_gamma   60.12488791
_symmetry_Int_Tables_number   1
_chemical_formula_structural   Sc4Al5N9
_chemical_formula_sum   'Sc16 Al20 N36'
_cell_volume   899.84263920
_cell_formula_units_Z   4
loop_
 _symmetry_equiv_pos_site_id
 _symmetry_equiv_pos_as_xyz
  1  'x, y, z'
loop_
 _atom_site_type_symbol
 _atom_site_label
 _atom_site_symmetry_multiplicity
 _atom_site_fract_x
 _atom_site_fract_y
 _atom_site_fract_z
 _atom_site_occupancy
  Sc  Sc0  1  0.10115092  0.10725369  0.29652295  1
  Sc  Sc1  1  0.87288330  0.21085878  0.55731188  1
  Sc  Sc2  1  0.45305316  0.09293256  0.29509382  1
  Sc  Sc3  1  0.09853531  0.10310205  0.81973218  1
  Sc  Sc4  1  0.22681722  0.21241492  0.56899278  1
  Sc  Sc5  1  0.45218371  0.09762262  0.82533604  1
  Sc  Sc6  1  0.10528482  0.43317675  0.30084097  1
  Sc  Sc7  1  0.88512130  0.54332622  0.56544015  1
  Sc  Sc8  1  0.45209790  0.42321063  0.31452268  1
  Sc  Sc9  1  0.09858474  0.75956204  0.30672455  1
  Sc  Sc10  1  0.22419625  0.86725056  0.06279592  1
  Sc  Sc11  1  0.46275187  0.74957158  0.30453830  1
  Sc  Sc12  1  0.10042792  0.75652652  0.81082951  1
  Sc  Sc13  1  0.22140062  0.86933778  0.55318549  1
  Sc  Sc14  1  0.45477424  0.74644205  0.81265005  1
  Sc  Sc15  1  0.56540582  0.87280347  0.56304917  1
  Al  Al16  1  0.21520846  0.21813416  0.03928426  1
  Al  Al17  1  0.76968629  0.09740921  0.80547505  1
  Al  Al18  1  0.56087551  0.21180126  0.04674455  1
  Al  Al19  1  0.77422120  0.09500867  0.29985074  1
  Al  Al20  1  0.87568921  0.21385415  0.04977648  1
  Al  Al21  1  0.56192715  0.20280250  0.55678402  1
  Al  Al22  1  0.22682840  0.52987061  0.04381759  1
  Al  Al23  1  0.77043281  0.42665006  0.80886377  1
  Al  Al24  1  0.56338191  0.52752278  0.04822776  1
  Al  Al25  1  0.11162147  0.43458496  0.80617799  1
  Al  Al26  1  0.22453067  0.53954425  0.55846406  1
  Al  Al27  1  0.77670746  0.42917854  0.29556481  1
  Al  Al28  1  0.88798985  0.53983479  0.04631182  1
  Al  Al29  1  0.45178304  0.42129782  0.80042402  1
  Al  Al30  1  0.55956053  0.53151777  0.55547025  1
  Al  Al31  1  0.78343926  0.76224974  0.80723199  1
  Al  Al32  1  0.88065219  0.87679423  0.55193161  1
  Al  Al33  1  0.57035306  0.86079461  0.04474026  1
  Al  Al34  1  0.77747448  0.76132986  0.29665551  1
  Al  Al35  1  0.87871320  0.87459284  0.05137567  1
  N  N36  1  0.22657108  0.20675240  0.35767380  1
  N  N37  1  0.09782878  0.11690629  0.08025996  1
  N  N38  1  0.86328300  0.21569487  0.86012162  1
  N  N39  1  0.76940571  0.08417769  0.61677061  1
  N  N40  1  0.57553977  0.19405073  0.36794088  1
  N  N41  1  0.44577149  0.09471752  0.07594935  1
  N  N42  1  0.21206262  0.22643308  0.85100799  1
  N  N43  1  0.10354722  0.09936838  0.60601540  1
  N  N44  1  0.86884657  0.21550066  0.34498819  1
  N  N45  1  0.77539441  0.09466645  0.10876674  1
  N  N46  1  0.56665813  0.21769142  0.86166288  1
  N  N47  1  0.45693990  0.10406737  0.61286679  1
  N  N48  1  0.22398474  0.53606969  0.37164345  1
  N  N49  1  0.10964533  0.43026130  0.08962244  1
  N  N50  1  0.88936718  0.54011627  0.85435006  1
  N  N51  1  0.75859633  0.43746812  0.62378942  1
  N  N52  1  0.58037917  0.52348731  0.36763330  1
  N  N53  1  0.44463771  0.42736337  0.10165389  1
  N  N54  1  0.23942195  0.51824586  0.85654072  1
  N  N55  1  0.11643964  0.44424671  0.61776584  1
  N  N56  1  0.87074868  0.54805094  0.35005887  1
  N  N57  1  0.77756945  0.42901934  0.10316489  1
  N  N58  1  0.56446348  0.51532274  0.86298248  1
  N  N59  1  0.44727360  0.42652581  0.60527691  1
  N  N60  1  0.22343450  0.87172583  0.33130326  1
  N  N61  1  0.09816028  0.74748217  0.08997710  1
  N  N62  1  0.86538463  0.88771811  0.86595505  1
  N  N63  1  0.79128408  0.76899854  0.62177356  1
  N  N64  1  0.57531560  0.86607409  0.35263186  1
  N  N65  1  0.46939820  0.74539567  0.08805165  1
  N  N66  1  0.22171593  0.86708704  0.85337491  1
  N  N67  1  0.09784479  0.75782596  0.59409448  1
  N  N68  1  0.86579028  0.88352552  0.35990013  1
  N  N69  1  0.78064336  0.75843473  0.10518743  1
  N  N70  1  0.57870261  0.85665848  0.85678633  1
  N  N71  1  0.45417179  0.74259628  0.59784264  1
