# generated using pymatgen
data_Sc4Al5N9
_symmetry_space_group_name_H-M   'P 1'
_cell_length_a   10.57973240
_cell_length_b   10.45349582
_cell_length_c   9.05921363
_cell_angle_alpha   89.98361949
_cell_angle_beta   90.30454256
_cell_angle_gamma   59.98365070
_symmetry_Int_Tables_number   1
_chemical_formula_structural   Sc4Al5N9
_chemical_formula_sum   'Sc16 Al20 N36'
_cell_volume   867.51530864
_cell_formula_units_Z   4
loop_
 _symmetry_equiv_pos_site_id
 _symmetry_equiv_pos_as_xyz
  1  'x, y, z'
loop_
 _atom_site_type_symbol
 _atom_site_label
 _atom_site_symmetry_multiplicity
 _atom_site_fract_x
 _atom_site_fract_y
 _atom_site_fract_z
 _atom_site_occupancy
  Sc  Sc0  1  0.09956932  0.10517599  0.34460527  1
  Sc  Sc1  1  0.86765104  0.21475866  0.59448144  1
  Sc  Sc2  1  0.45630217  0.08994250  0.34005693  1
  Sc  Sc3  1  0.09941313  0.10712462  0.85029440  1
  Sc  Sc4  1  0.22627867  0.21395783  0.60019782  1
  Sc  Sc5  1  0.45186357  0.10007151  0.85251615  1
  Sc  Sc6  1  0.10423562  0.43745988  0.34268374  1
  Sc  Sc7  1  0.88610883  0.53958680  0.60433720  1
  Sc  Sc8  1  0.45239389  0.42781711  0.34764097  1
  Sc  Sc9  1  0.10011149  0.76002098  0.34708879  1
  Sc  Sc10  1  0.22254204  0.87125321  0.09976496  1
  Sc  Sc11  1  0.46177676  0.74706544  0.34783809  1
  Sc  Sc12  1  0.09619448  0.76035568  0.85124162  1
  Sc  Sc13  1  0.22203610  0.86693015  0.59908207  1
  Sc  Sc14  1  0.45240512  0.75425566  0.85457604  1
  Sc  Sc15  1  0.57105393  0.86555811  0.60076889  1
  Al  Al16  1  0.21981140  0.21180292  0.09820865  1
  Al  Al17  1  0.76981220  0.09499437  0.83511963  1
  Al  Al18  1  0.56416517  0.20563445  0.08653038  1
  Al  Al19  1  0.77534917  0.09562282  0.32531220  1
  Al  Al20  1  0.88000701  0.20749360  0.08311957  1
  Al  Al21  1  0.56238220  0.20416935  0.58152484  1
  Al  Al22  1  0.22420425  0.53570035  0.10493761  1
  Al  Al23  1  0.77278131  0.42419447  0.85509660  1
  Al  Al24  1  0.56198954  0.53202130  0.09491296  1
  Al  Al25  1  0.11218769  0.43139921  0.86852415  1
  Al  Al26  1  0.22867962  0.53328101  0.62705412  1
  Al  Al27  1  0.77863932  0.42900253  0.30912516  1
  Al  Al28  1  0.88848047  0.54126733  0.08015485  1
  Al  Al29  1  0.44787806  0.41980830  0.86931831  1
  Al  Al30  1  0.55371548  0.52845859  0.63818015  1
  Al  Al31  1  0.78508712  0.76377090  0.84253767  1
  Al  Al32  1  0.87873215  0.87599142  0.57668241  1
  Al  Al33  1  0.56806717  0.86553675  0.08289079  1
  Al  Al34  1  0.77807875  0.75865418  0.32059297  1
  Al  Al35  1  0.87867347  0.87770331  0.08555084  1
  N  N36  1  0.22582913  0.20714558  0.33900976  1
  N  N37  1  0.09739797  0.11440621  0.09773160  1
  N  N38  1  0.86764883  0.20891469  0.86215620  1
  N  N39  1  0.76768426  0.08389416  0.61868871  1
  N  N40  1  0.57595438  0.19844965  0.36079306  1
  N  N41  1  0.45140258  0.09137826  0.09818723  1
  N  N42  1  0.21722060  0.22276289  0.85723760  1
  N  N43  1  0.10151887  0.10406619  0.59982353  1
  N  N44  1  0.86576785  0.21944872  0.34695872  1
  N  N45  1  0.77787385  0.09457008  0.11367717  1
  N  N46  1  0.56763943  0.21258469  0.87024036  1
  N  N47  1  0.45670448  0.10263552  0.60341566  1
  N  N48  1  0.22766479  0.53715284  0.32182947  1
  N  N49  1  0.10871181  0.43164904  0.09028128  1
  N  N50  1  0.89442267  0.54130707  0.86239107  1
  N  N51  1  0.75541824  0.44040415  0.63536585  1
  N  N52  1  0.57926630  0.52337057  0.31394407  1
  N  N53  1  0.44385684  0.42526399  0.09154633  1
  N  N54  1  0.23471633  0.52037198  0.84926418  1
  N  N55  1  0.11707132  0.44264568  0.59305167  1
  N  N56  1  0.86978946  0.54553304  0.34551555  1
  N  N57  1  0.78389527  0.42634498  0.08693183  1
  N  N58  1  0.55873373  0.52029395  0.86369399  1
  N  N59  1  0.44611284  0.42623166  0.60509242  1
  N  N60  1  0.22381224  0.86987860  0.34727683  1
  N  N61  1  0.09588974  0.75707196  0.09712676  1
  N  N62  1  0.86608892  0.88812255  0.87412598  1
  N  N63  1  0.79381407  0.76518012  0.62676380  1
  N  N64  1  0.57851932  0.85946272  0.35639213  1
  N  N65  1  0.46235450  0.75576155  0.09673422  1
  N  N66  1  0.21949221  0.87171082  0.85168374  1
  N  N67  1  0.09871240  0.75310304  0.60128401  1
  N  N68  1  0.86594886  0.88201672  0.35857239  1
  N  N69  1  0.78078737  0.75948943  0.10568602  1
  N  N70  1  0.57725715  0.86204876  0.85967968  1
  N  N71  1  0.45658596  0.73695650  0.60447227  1
