# generated using pymatgen
data_Sc4Al5N9
_symmetry_space_group_name_H-M   'P 1'
_cell_length_a   10.54515871
_cell_length_b   10.43361274
_cell_length_c   9.13498074
_cell_angle_alpha   89.99360654
_cell_angle_beta   90.18296677
_cell_angle_gamma   59.95458005
_symmetry_Int_Tables_number   1
_chemical_formula_structural   Sc4Al5N9
_chemical_formula_sum   'Sc16 Al20 N36'
_cell_volume   870.00968712
_cell_formula_units_Z   4
loop_
 _symmetry_equiv_pos_site_id
 _symmetry_equiv_pos_as_xyz
  1  'x, y, z'
loop_
 _atom_site_type_symbol
 _atom_site_label
 _atom_site_symmetry_multiplicity
 _atom_site_fract_x
 _atom_site_fract_y
 _atom_site_fract_z
 _atom_site_occupancy
  Sc  Sc0  1  0.09943552  0.10446001  0.34746664  1
  Sc  Sc1  1  0.86773371  0.21544054  0.59992876  1
  Sc  Sc2  1  0.45546949  0.09467720  0.34839154  1
  Sc  Sc3  1  0.10000678  0.10752733  0.85353454  1
  Sc  Sc4  1  0.22564619  0.21566627  0.60404498  1
  Sc  Sc5  1  0.45162466  0.09485449  0.85992765  1
  Sc  Sc6  1  0.10472939  0.43804485  0.34372040  1
  Sc  Sc7  1  0.88848237  0.54029020  0.61354896  1
  Sc  Sc8  1  0.45423548  0.42445459  0.35353341  1
  Sc  Sc9  1  0.09886432  0.76037721  0.35505551  1
  Sc  Sc10  1  0.22205371  0.87050761  0.10199769  1
  Sc  Sc11  1  0.45973867  0.74490080  0.35112981  1
  Sc  Sc12  1  0.09852818  0.75797413  0.85522698  1
  Sc  Sc13  1  0.22206189  0.86745886  0.60270925  1
  Sc  Sc14  1  0.45475899  0.75572841  0.85787386  1
  Sc  Sc15  1  0.57141029  0.86563134  0.60165661  1
  Al  Al16  1  0.22150554  0.20977968  0.10770676  1
  Al  Al17  1  0.77268730  0.09581998  0.87360825  1
  Al  Al18  1  0.56414846  0.20408125  0.11102396  1
  Al  Al19  1  0.77226686  0.09317127  0.36207009  1
  Al  Al20  1  0.88083829  0.20648774  0.09477356  1
  Al  Al21  1  0.56085514  0.20784241  0.62816840  1
  Al  Al22  1  0.22535047  0.53543443  0.10846839  1
  Al  Al23  1  0.77269969  0.42403603  0.85693023  1
  Al  Al24  1  0.56103794  0.53126061  0.09512763  1
  Al  Al25  1  0.11335157  0.43085021  0.87699856  1
  Al  Al26  1  0.22875093  0.53288112  0.62863956  1
  Al  Al27  1  0.77770860  0.42838846  0.30604873  1
  Al  Al28  1  0.88727190  0.54254897  0.09412761  1
  Al  Al29  1  0.44726612  0.41996095  0.87453723  1
  Al  Al30  1  0.55320925  0.52979873  0.64012252  1
  Al  Al31  1  0.78062927  0.76471114  0.87856162  1
  Al  Al32  1  0.87783407  0.87741510  0.62038834  1
  Al  Al33  1  0.56694734  0.86576819  0.11826358  1
  Al  Al34  1  0.78231341  0.76004742  0.35655636  1
  Al  Al35  1  0.87923878  0.87704871  0.11774619  1
  N  N36  1  0.22505214  0.20739301  0.33566587  1
  N  N37  1  0.09829283  0.11370670  0.09834613  1
  N  N38  1  0.86904686  0.20934309  0.85450125  1
  N  N39  1  0.76482724  0.08674803  0.57803342  1
  N  N40  1  0.57503346  0.19884734  0.31907783  1
  N  N41  1  0.44864561  0.09040364  0.09785187  1
  N  N42  1  0.21694521  0.22366120  0.85154344  1
  N  N43  1  0.10155215  0.10450621  0.59830602  1
  N  N44  1  0.86462769  0.21775443  0.33635898  1
  N  N45  1  0.77904805  0.09158750  0.08339213  1
  N  N46  1  0.56704920  0.21251059  0.84279903  1
  N  N47  1  0.45740782  0.10407246  0.59849860  1
  N  N48  1  0.22925079  0.53798779  0.31912449  1
  N  N49  1  0.11136619  0.42980401  0.09083348  1
  N  N50  1  0.89564563  0.54489417  0.86133668  1
  N  N51  1  0.75572381  0.44256124  0.63401730  1
  N  N52  1  0.57815528  0.52240245  0.31100391  1
  N  N53  1  0.44419441  0.42362648  0.08626706  1
  N  N54  1  0.23557410  0.51840658  0.84525047  1
  N  N55  1  0.11720937  0.44376759  0.58502505  1
  N  N56  1  0.87011616  0.54527257  0.32541038  1
  N  N57  1  0.78264105  0.42521666  0.08267509  1
  N  N58  1  0.55785886  0.52093418  0.86124829  1
  N  N59  1  0.44666507  0.42699786  0.59989662  1
  N  N60  1  0.22277577  0.86947967  0.34778708  1
  N  N61  1  0.09497209  0.75635568  0.09351039  1
  N  N62  1  0.86379729  0.88671943  0.83363103  1
  N  N63  1  0.79496192  0.76323153  0.57013630  1
  N  N64  1  0.57583420  0.86088499  0.33877929  1
  N  N65  1  0.46250979  0.75504654  0.09695733  1
  N  N66  1  0.22050130  0.87160774  0.85235896  1
  N  N67  1  0.09947512  0.75267924  0.60329250  1
  N  N68  1  0.86849355  0.88393198  0.32629140  1
  N  N69  1  0.77861577  0.76378335  0.08949904  1
  N  N70  1  0.57940360  0.86065721  0.84016082  1
  N  N71  1  0.45649020  0.73738766  0.60160430  1
