# generated using pymatgen
data_Sc4Al5N9
_symmetry_space_group_name_H-M   'P 1'
_cell_length_a   10.34261626
_cell_length_b   10.25529708
_cell_length_c   9.68206260
_cell_angle_alpha   89.91082686
_cell_angle_beta   90.17794489
_cell_angle_gamma   60.12358329
_symmetry_Int_Tables_number   1
_chemical_formula_structural   Sc4Al5N9
_chemical_formula_sum   'Sc16 Al20 N36'
_cell_volume   890.45460200
_cell_formula_units_Z   4
loop_
 _symmetry_equiv_pos_site_id
 _symmetry_equiv_pos_as_xyz
  1  'x, y, z'
loop_
 _atom_site_type_symbol
 _atom_site_label
 _atom_site_symmetry_multiplicity
 _atom_site_fract_x
 _atom_site_fract_y
 _atom_site_fract_z
 _atom_site_occupancy
  Sc  Sc0  1  0.10027428  0.10584484  0.33123633  1
  Sc  Sc1  1  0.87085767  0.21133959  0.58490002  1
  Sc  Sc2  1  0.45580776  0.08956501  0.32374724  1
  Sc  Sc3  1  0.09806917  0.10555109  0.84409759  1
  Sc  Sc4  1  0.22736435  0.21297120  0.59457105  1
  Sc  Sc5  1  0.45234022  0.09948558  0.84820085  1
  Sc  Sc6  1  0.10337070  0.43297060  0.34480662  1
  Sc  Sc7  1  0.88648871  0.54176193  0.59274366  1
  Sc  Sc8  1  0.45390281  0.42232133  0.34531510  1
  Sc  Sc9  1  0.09709509  0.76355930  0.34404443  1
  Sc  Sc10  1  0.22442069  0.86955803  0.09198577  1
  Sc  Sc11  1  0.46198440  0.75117838  0.33425408  1
  Sc  Sc12  1  0.09866261  0.75815158  0.85031928  1
  Sc  Sc13  1  0.22237196  0.86766569  0.58985328  1
  Sc  Sc14  1  0.45551857  0.74573830  0.84111895  1
  Sc  Sc15  1  0.56773847  0.87017534  0.59408949  1
  Al  Al16  1  0.21993730  0.21112164  0.07119953  1
  Al  Al17  1  0.76950163  0.09630165  0.82811458  1
  Al  Al18  1  0.56220523  0.21381392  0.07092507  1
  Al  Al19  1  0.77422516  0.09562359  0.32116456  1
  Al  Al20  1  0.87626237  0.21306966  0.07369179  1
  Al  Al21  1  0.56481774  0.19930545  0.57669442  1
  Al  Al22  1  0.22697309  0.53572853  0.12259918  1
  Al  Al23  1  0.76914300  0.42606967  0.83311340  1
  Al  Al24  1  0.56279756  0.52633999  0.07219524  1
  Al  Al25  1  0.11121227  0.43540440  0.88155575  1
  Al  Al26  1  0.22341747  0.53591995  0.62905863  1
  Al  Al27  1  0.77576435  0.42963389  0.31682454  1
  Al  Al28  1  0.88173303  0.54307478  0.07523873  1
  Al  Al29  1  0.45475131  0.41938980  0.82144843  1
  Al  Al30  1  0.56166480  0.53176723  0.57684274  1
  Al  Al31  1  0.78473046  0.76331823  0.83099579  1
  Al  Al32  1  0.87982049  0.87616490  0.57325573  1
  Al  Al33  1  0.57023458  0.86130915  0.06662959  1
  Al  Al34  1  0.77605704  0.76091994  0.31953712  1
  Al  Al35  1  0.87662161  0.87778187  0.07706005  1
  N  N36  1  0.22998161  0.20155428  0.36701510  1
  N  N37  1  0.09711235  0.11687211  0.09937306  1
  N  N38  1  0.86414011  0.21422885  0.87348742  1
  N  N39  1  0.76948850  0.08217387  0.63216413  1
  N  N40  1  0.57747157  0.19286806  0.38074872  1
  N  N41  1  0.44785722  0.09270017  0.09512907  1
  N  N42  1  0.21395273  0.22565782  0.86575726  1
  N  N43  1  0.10216833  0.10136972  0.61614632  1
  N  N44  1  0.86640228  0.21695249  0.36226482  1
  N  N45  1  0.77551587  0.09636518  0.12380317  1
  N  N46  1  0.56706555  0.21713882  0.87691023  1
  N  N47  1  0.45751109  0.10392238  0.62495095  1
  N  N48  1  0.22499113  0.53834240  0.32092522  1
  N  N49  1  0.10999007  0.43152376  0.09214371  1
  N  N50  1  0.88978780  0.54105545  0.87171907  1
  N  N51  1  0.75836011  0.43791293  0.64035922  1
  N  N52  1  0.58063260  0.52431642  0.38059195  1
  N  N53  1  0.44969095  0.42572347  0.11667919  1
  N  N54  1  0.23631320  0.51762340  0.83457548  1
  N  N55  1  0.11672203  0.44377782  0.57831619  1
  N  N56  1  0.86615043  0.54910169  0.36190476  1
  N  N57  1  0.77697706  0.42869555  0.11632095  1
  N  N58  1  0.56403194  0.51454677  0.87800792  1
  N  N59  1  0.44948214  0.42520519  0.61359909  1
  N  N60  1  0.22450053  0.87091427  0.34827394  1
  N  N61  1  0.09619842  0.75512107  0.09831044  1
  N  N62  1  0.86350703  0.88921470  0.88336473  1
  N  N63  1  0.79398698  0.76718600  0.63765836  1
  N  N64  1  0.57729266  0.86322111  0.37308896  1
  N  N65  1  0.46930652  0.74601881  0.10245542  1
  N  N66  1  0.22159005  0.86941365  0.86287159  1
  N  N67  1  0.09827090  0.75479581  0.60411227  1
  N  N68  1  0.86334257  0.88430834  0.37263060  1
  N  N69  1  0.77887034  0.76029326  0.12027795  1
  N  N70  1  0.57847275  0.85834788  0.86753008  1
  N  N71  1  0.45523703  0.74114249  0.61368639  1
