# generated using pymatgen
data_Sc4Al5N9
_symmetry_space_group_name_H-M   'P 1'
_cell_length_a   10.60855592
_cell_length_b   10.48195142
_cell_length_c   8.97596201
_cell_angle_alpha   90.00362990
_cell_angle_beta   90.39408910
_cell_angle_gamma   60.02415701
_symmetry_Int_Tables_number   1
_chemical_formula_structural   Sc4Al5N9
_chemical_formula_sum   'Sc16 Al20 N36'
_cell_volume   864.57395744
_cell_formula_units_Z   4
loop_
 _symmetry_equiv_pos_site_id
 _symmetry_equiv_pos_as_xyz
  1  'x, y, z'
loop_
 _atom_site_type_symbol
 _atom_site_label
 _atom_site_symmetry_multiplicity
 _atom_site_fract_x
 _atom_site_fract_y
 _atom_site_fract_z
 _atom_site_occupancy
  Sc  Sc0  1  0.10029536  0.10507066  0.34480427  1
  Sc  Sc1  1  0.86668956  0.21323020  0.59472908  1
  Sc  Sc2  1  0.45742547  0.09237238  0.34361464  1
  Sc  Sc3  1  0.09945682  0.10741750  0.84997768  1
  Sc  Sc4  1  0.22601617  0.21430782  0.60042877  1
  Sc  Sc5  1  0.44900286  0.09730775  0.85803917  1
  Sc  Sc6  1  0.10484483  0.43746302  0.34222825  1
  Sc  Sc7  1  0.88539967  0.53965812  0.60323441  1
  Sc  Sc8  1  0.45485018  0.42338966  0.35107469  1
  Sc  Sc9  1  0.10040403  0.75989424  0.34726362  1
  Sc  Sc10  1  0.22276276  0.87118356  0.09943518  1
  Sc  Sc11  1  0.46139139  0.74641086  0.34801068  1
  Sc  Sc12  1  0.09753932  0.75924046  0.84983711  1
  Sc  Sc13  1  0.22215787  0.86741166  0.59883685  1
  Sc  Sc14  1  0.45320184  0.75353821  0.85454582  1
  Sc  Sc15  1  0.57079652  0.86656932  0.60063003  1
  Al  Al16  1  0.21993376  0.21177571  0.09931128  1
  Al  Al17  1  0.77388513  0.09393068  0.85070165  1
  Al  Al18  1  0.56146338  0.20726607  0.09921723  1
  Al  Al19  1  0.77564711  0.09487073  0.31838619  1
  Al  Al20  1  0.88194076  0.20902917  0.08563217  1
  Al  Al21  1  0.56012228  0.20765764  0.62800912  1
  Al  Al22  1  0.22503179  0.53552388  0.10447291  1
  Al  Al23  1  0.77344530  0.42500567  0.85447649  1
  Al  Al24  1  0.56167910  0.53153741  0.09531357  1
  Al  Al25  1  0.11159384  0.43194386  0.86551042  1
  Al  Al26  1  0.22748599  0.53414567  0.62344212  1
  Al  Al27  1  0.77771327  0.42910346  0.31096203  1
  Al  Al28  1  0.88832717  0.54096197  0.08255966  1
  Al  Al29  1  0.44588568  0.42313396  0.87034820  1
  Al  Al30  1  0.55471150  0.52891064  0.63537054  1
  Al  Al31  1  0.78465991  0.76243234  0.84396726  1
  Al  Al32  1  0.87673295  0.87872975  0.57923246  1
  Al  Al33  1  0.56722940  0.86500241  0.08951013  1
  Al  Al34  1  0.77847725  0.75934999  0.32176887  1
  Al  Al35  1  0.88138280  0.87404969  0.08482053  1
  N  N36  1  0.22601738  0.20783466  0.33933902  1
  N  N37  1  0.09855173  0.11429046  0.09754623  1
  N  N38  1  0.86899788  0.21110853  0.86062039  1
  N  N39  1  0.76546020  0.08560999  0.61922489  1
  N  N40  1  0.57579694  0.19828677  0.32252939  1
  N  N41  1  0.44726261  0.09059282  0.09756832  1
  N  N42  1  0.21617244  0.22335637  0.85606359  1
  N  N43  1  0.10110108  0.10426522  0.59847569  1
  N  N44  1  0.86598379  0.21755330  0.34063875  1
  N  N45  1  0.78192877  0.09212702  0.09827578  1
  N  N46  1  0.56462677  0.21385284  0.85805956  1
  N  N47  1  0.45727792  0.10422799  0.60292149  1
  N  N48  1  0.22938675  0.53631817  0.32540771  1
  N  N49  1  0.10913936  0.43197239  0.08964729  1
  N  N50  1  0.89340631  0.54066141  0.86147287  1
  N  N51  1  0.75572250  0.43956005  0.63026077  1
  N  N52  1  0.57886058  0.52238946  0.31715427  1
  N  N53  1  0.44231224  0.42783532  0.08840227  1
  N  N54  1  0.23405962  0.52096513  0.84766544  1
  N  N55  1  0.11595954  0.44272657  0.59496782  1
  N  N56  1  0.87040089  0.54547638  0.34219867  1
  N  N57  1  0.78298126  0.42717885  0.08724124  1
  N  N58  1  0.55998561  0.52008448  0.86180909  1
  N  N59  1  0.44667606  0.42577363  0.60587710  1
  N  N60  1  0.22367743  0.87009004  0.34708061  1
  N  N61  1  0.09726352  0.75566693  0.09696447  1
  N  N62  1  0.86858366  0.88419100  0.86970264  1
  N  N63  1  0.79290060  0.76509550  0.62228986  1
  N  N64  1  0.57781315  0.86026476  0.35061650  1
  N  N65  1  0.46217220  0.75416486  0.09729679  1
  N  N66  1  0.22012035  0.87175462  0.85090402  1
  N  N67  1  0.09834195  0.75393433  0.59995430  1
  N  N68  1  0.86595514  0.88358137  0.35510437  1
  N  N69  1  0.78121433  0.75918926  0.10353628  1
  N  N70  1  0.57720957  0.86129625  0.85911981  1
  N  N71  1  0.45693218  0.73744973  0.60319455  1
