# generated using pymatgen
data_Sc4Al5N9
_symmetry_space_group_name_H-M   'P 1'
_cell_length_a   10.25636039
_cell_length_b   10.18857867
_cell_length_c   9.85640669
_cell_angle_alpha   89.96722548
_cell_angle_beta   90.08687906
_cell_angle_gamma   60.11700007
_symmetry_Int_Tables_number   1
_chemical_formula_structural   Sc4Al5N9
_chemical_formula_sum   'Sc16 Al20 N36'
_cell_volume   893.02975264
_cell_formula_units_Z   4
loop_
 _symmetry_equiv_pos_site_id
 _symmetry_equiv_pos_as_xyz
  1  'x, y, z'
loop_
 _atom_site_type_symbol
 _atom_site_label
 _atom_site_symmetry_multiplicity
 _atom_site_fract_x
 _atom_site_fract_y
 _atom_site_fract_z
 _atom_site_occupancy
  Sc  Sc0  1  0.10061475  0.10755802  0.32378081  1
  Sc  Sc1  1  0.87169950  0.21085278  0.58121859  1
  Sc  Sc2  1  0.45308696  0.09199618  0.31962855  1
  Sc  Sc3  1  0.09841199  0.10381363  0.84150512  1
  Sc  Sc4  1  0.22739833  0.21177517  0.59287709  1
  Sc  Sc5  1  0.45275694  0.09859780  0.84669254  1
  Sc  Sc6  1  0.10429381  0.43345000  0.32537685  1
  Sc  Sc7  1  0.88481054  0.54256433  0.58994484  1
  Sc  Sc8  1  0.45190025  0.42311902  0.33807170  1
  Sc  Sc9  1  0.09844609  0.76036318  0.32959545  1
  Sc  Sc10  1  0.22444401  0.86862043  0.08676972  1
  Sc  Sc11  1  0.46224372  0.75055538  0.32943555  1
  Sc  Sc12  1  0.10008424  0.75651890  0.83644324  1
  Sc  Sc13  1  0.22149663  0.86825275  0.58018566  1
  Sc  Sc14  1  0.45530593  0.74560662  0.83670035  1
  Sc  Sc15  1  0.56657102  0.87125413  0.58865139  1
  Al  Al16  1  0.21489754  0.21877423  0.06086633  1
  Al  Al17  1  0.76942556  0.09669583  0.82593693  1
  Al  Al18  1  0.56129274  0.21290305  0.06863060  1
  Al  Al19  1  0.77446826  0.09532617  0.31936993  1
  Al  Al20  1  0.87608861  0.21373760  0.07068245  1
  Al  Al21  1  0.56327862  0.20122082  0.57562453  1
  Al  Al22  1  0.22804374  0.52924100  0.06588024  1
  Al  Al23  1  0.76909067  0.42628218  0.83009742  1
  Al  Al24  1  0.56320507  0.52713084  0.07038499  1
  Al  Al25  1  0.11274079  0.43495973  0.82606765  1
  Al  Al26  1  0.22412695  0.54008956  0.57806359  1
  Al  Al27  1  0.77709637  0.42943241  0.31548362  1
  Al  Al28  1  0.88852833  0.53972255  0.06610794  1
  Al  Al29  1  0.45200748  0.42109119  0.81932183  1
  Al  Al30  1  0.56018589  0.53117424  0.57467257  1
  Al  Al31  1  0.78452398  0.76297986  0.82770423  1
  Al  Al32  1  0.88045011  0.87663830  0.57086251  1
  Al  Al33  1  0.57092788  0.86061022  0.06494273  1
  Al  Al34  1  0.77732844  0.76046152  0.31750753  1
  Al  Al35  1  0.87813194  0.87545745  0.07338286  1
  N  N36  1  0.22663273  0.20699210  0.37522460  1
  N  N37  1  0.09755650  0.11780165  0.09822282  1
  N  N38  1  0.86372613  0.21480775  0.87471430  1
  N  N39  1  0.76898119  0.08305472  0.63285002  1
  N  N40  1  0.57644163  0.19361541  0.38235879  1
  N  N41  1  0.44619056  0.09472824  0.09438699  1
  N  N42  1  0.21297387  0.22620646  0.86539861  1
  N  N43  1  0.10285549  0.09992337  0.61959538  1
  N  N44  1  0.86760324  0.21635908  0.36275810  1
  N  N45  1  0.77577642  0.09562190  0.12472663  1
  N  N46  1  0.56680298  0.21795079  0.87831180  1
  N  N47  1  0.45753316  0.10380788  0.62735375  1
  N  N48  1  0.22384015  0.53686558  0.38596876  1
  N  N49  1  0.10941271  0.43098449  0.10727435  1
  N  N50  1  0.89030018  0.54009852  0.86926726  1
  N  N51  1  0.75737983  0.43782406  0.64055487  1
  N  N52  1  0.58058811  0.52341663  0.38171452  1
  N  N53  1  0.44486825  0.42756521  0.12011540  1
  N  N54  1  0.24063030  0.51752055  0.87297859  1
  N  N55  1  0.11672385  0.44417787  0.63149130  1
  N  N56  1  0.87000687  0.54788281  0.36829990  1
  N  N57  1  0.77817849  0.42915093  0.11824502  1
  N  N58  1  0.56398406  0.51450653  0.88012778  1
  N  N59  1  0.44768432  0.42608595  0.61929921  1
  N  N60  1  0.22342396  0.87160851  0.34723130  1
  N  N61  1  0.09857442  0.74856625  0.10467985  1
  N  N62  1  0.86505798  0.88823225  0.88346647  1
  N  N63  1  0.79268387  0.76847000  0.63756475  1
  N  N64  1  0.57653035  0.86478415  0.37144586  1
  N  N65  1  0.46929141  0.74602156  0.10381050  1
  N  N66  1  0.22172786  0.86798244  0.86710367  1
  N  N67  1  0.09689268  0.75765828  0.61078264  1
  N  N68  1  0.86549930  0.88356216  0.37416300  1
  N  N69  1  0.78077741  0.75793907  0.12118046  1
  N  N70  1  0.57883636  0.85750777  0.87005801  1
  N  N71  1  0.45458595  0.74140012  0.61370464  1
