# generated using pymatgen
data_Sc4Al5N9
_symmetry_space_group_name_H-M   'P 1'
_cell_length_a   10.53401404
_cell_length_b   10.42354472
_cell_length_c   9.13635655
_cell_angle_alpha   89.97434752
_cell_angle_beta   90.08837433
_cell_angle_gamma   60.04492244
_symmetry_Int_Tables_number   1
_chemical_formula_structural   Sc4Al5N9
_chemical_formula_sum   'Sc16 Al20 N36'
_cell_volume   869.17748094
_cell_formula_units_Z   4
loop_
 _symmetry_equiv_pos_site_id
 _symmetry_equiv_pos_as_xyz
  1  'x, y, z'
loop_
 _atom_site_type_symbol
 _atom_site_label
 _atom_site_symmetry_multiplicity
 _atom_site_fract_x
 _atom_site_fract_y
 _atom_site_fract_z
 _atom_site_occupancy
  Sc  Sc0  1  0.10068902  0.10381347  0.35433217  1
  Sc  Sc1  1  0.86885558  0.21354591  0.60643385  1
  Sc  Sc2  1  0.45570156  0.09454968  0.35355159  1
  Sc  Sc3  1  0.09871333  0.10816344  0.86050683  1
  Sc  Sc4  1  0.22583504  0.21583346  0.61039786  1
  Sc  Sc5  1  0.45146335  0.09458917  0.86594671  1
  Sc  Sc6  1  0.10550883  0.43806420  0.34915014  1
  Sc  Sc7  1  0.88894138  0.54051239  0.61732733  1
  Sc  Sc8  1  0.45301381  0.42429236  0.35935875  1
  Sc  Sc9  1  0.09847142  0.76043424  0.36049300  1
  Sc  Sc10  1  0.22219801  0.87057212  0.10761361  1
  Sc  Sc11  1  0.45870541  0.74592788  0.35698197  1
  Sc  Sc12  1  0.09848510  0.75845437  0.86124322  1
  Sc  Sc13  1  0.22213273  0.86750729  0.60893482  1
  Sc  Sc14  1  0.45557820  0.75396385  0.86305616  1
  Sc  Sc15  1  0.57113413  0.86586834  0.60737323  1
  Al  Al16  1  0.22092379  0.21008613  0.11348875  1
  Al  Al17  1  0.77328220  0.09729042  0.87961099  1
  Al  Al18  1  0.56471728  0.20467545  0.11555680  1
  Al  Al19  1  0.77189131  0.09228699  0.36850342  1
  Al  Al20  1  0.87941812  0.20903732  0.11170340  1
  Al  Al21  1  0.56079637  0.20764922  0.63434831  1
  Al  Al22  1  0.22547938  0.53587565  0.11184225  1
  Al  Al23  1  0.77486808  0.42408428  0.86564751  1
  Al  Al24  1  0.56415328  0.52998108  0.10493015  1
  Al  Al25  1  0.11188553  0.43069665  0.88323721  1
  Al  Al26  1  0.22884068  0.53288659  0.63583558  1
  Al  Al27  1  0.77592604  0.42985483  0.33131565  1
  Al  Al28  1  0.88513573  0.54136418  0.10469932  1
  Al  Al29  1  0.44923750  0.42023401  0.87897342  1
  Al  Al30  1  0.55420448  0.52956899  0.64154518  1
  Al  Al31  1  0.78028394  0.76341621  0.88424634  1
  Al  Al32  1  0.87768971  0.87747838  0.62766255  1
  Al  Al33  1  0.56723070  0.86512482  0.12349343  1
  Al  Al34  1  0.78225777  0.76087038  0.36271256  1
  Al  Al35  1  0.87924328  0.87725960  0.12194052  1
  N  N36  1  0.22547539  0.20762240  0.34077517  1
  N  N37  1  0.09721981  0.11424260  0.10479042  1
  N  N38  1  0.86811661  0.21160382  0.85344917  1
  N  N39  1  0.76440065  0.08594896  0.58329290  1
  N  N40  1  0.57519449  0.19900446  0.32364888  1
  N  N41  1  0.44865695  0.09016245  0.10328675  1
  N  N42  1  0.21659456  0.22370276  0.85747440  1
  N  N43  1  0.10270140  0.10390670  0.60337402  1
  N  N44  1  0.86529458  0.21644125  0.34135356  1
  N  N45  1  0.77988306  0.09274204  0.08853031  1
  N  N46  1  0.56732602  0.21230930  0.84883054  1
  N  N47  1  0.45732457  0.10401019  0.60418246  1
  N  N48  1  0.22908826  0.53855939  0.32236283  1
  N  N49  1  0.10971073  0.43037548  0.09631672  1
  N  N50  1  0.89317025  0.54251815  0.86461446  1
  N  N51  1  0.75569618  0.44255258  0.61932451  1
  N  N52  1  0.57681185  0.52302818  0.31953477  1
  N  N53  1  0.44591369  0.42459494  0.09072037  1
  N  N54  1  0.23544699  0.51853123  0.85257020  1
  N  N55  1  0.11788395  0.44381639  0.59026904  1
  N  N56  1  0.87051125  0.54596902  0.33252240  1
  N  N57  1  0.78191839  0.42511224  0.08985742  1
  N  N58  1  0.56217426  0.51913807  0.86091496  1
  N  N59  1  0.44587032  0.42685512  0.60560245  1
  N  N60  1  0.22253125  0.86948660  0.35325966  1
  N  N61  1  0.09494260  0.75695122  0.09876357  1
  N  N62  1  0.86360041  0.88677608  0.84069050  1
  N  N63  1  0.79473129  0.76392910  0.57605253  1
  N  N64  1  0.57599439  0.86087855  0.34411411  1
  N  N65  1  0.46341189  0.75331626  0.10251515  1
  N  N66  1  0.22075749  0.87184595  0.85829853  1
  N  N67  1  0.09926525  0.75258784  0.60942576  1
  N  N68  1  0.86831756  0.88406500  0.33042545  1
  N  N69  1  0.77896471  0.76248759  0.09469814  1
  N  N70  1  0.57914565  0.86035985  0.84588062  1
  N  N71  1  0.45591835  0.73813697  0.60668601  1
