# generated using pymatgen
data_Sc4Al5N9
_symmetry_space_group_name_H-M   'P 1'
_cell_length_a   10.57467539
_cell_length_b   10.45687362
_cell_length_c   9.03382363
_cell_angle_alpha   89.98147108
_cell_angle_beta   90.09757999
_cell_angle_gamma   60.08878680
_symmetry_Int_Tables_number   1
_chemical_formula_structural   Sc4Al5N9
_chemical_formula_sum   'Sc16 Al20 N36'
_cell_volume   865.88052758
_cell_formula_units_Z   4
loop_
 _symmetry_equiv_pos_site_id
 _symmetry_equiv_pos_as_xyz
  1  'x, y, z'
loop_
 _atom_site_type_symbol
 _atom_site_label
 _atom_site_symmetry_multiplicity
 _atom_site_fract_x
 _atom_site_fract_y
 _atom_site_fract_z
 _atom_site_occupancy
  Sc  Sc0  1  0.09938295  0.10560380  0.34519377  1
  Sc  Sc1  1  0.86904428  0.21266970  0.59602723  1
  Sc  Sc2  1  0.45623765  0.09082405  0.34057841  1
  Sc  Sc3  1  0.09888711  0.10745526  0.85226145  1
  Sc  Sc4  1  0.22622437  0.21408534  0.60130821  1
  Sc  Sc5  1  0.45124892  0.09877114  0.85367108  1
  Sc  Sc6  1  0.10375045  0.43791055  0.34304236  1
  Sc  Sc7  1  0.88709576  0.54033515  0.60622008  1
  Sc  Sc8  1  0.45009704  0.42474618  0.34586366  1
  Sc  Sc9  1  0.10007323  0.76039920  0.34732478  1
  Sc  Sc10  1  0.22344396  0.87091829  0.09914563  1
  Sc  Sc11  1  0.45943881  0.75093867  0.34596996  1
  Sc  Sc12  1  0.09627786  0.76100258  0.85250349  1
  Sc  Sc13  1  0.22212135  0.86791617  0.59953094  1
  Sc  Sc14  1  0.45577428  0.74736932  0.84902227  1
  Sc  Sc15  1  0.57157732  0.86642083  0.60082247  1
  Al  Al16  1  0.21929295  0.21263576  0.09830239  1
  Al  Al17  1  0.77054746  0.09494393  0.83823143  1
  Al  Al18  1  0.56342593  0.20806037  0.08256557  1
  Al  Al19  1  0.77432710  0.09545164  0.32672319  1
  Al  Al20  1  0.87751305  0.21043667  0.08781517  1
  Al  Al21  1  0.56299266  0.20320945  0.58584134  1
  Al  Al22  1  0.22572028  0.53542514  0.10165488  1
  Al  Al23  1  0.76945204  0.42579078  0.84818631  1
  Al  Al24  1  0.56238014  0.52923173  0.08350306  1
  Al  Al25  1  0.11136491  0.43124705  0.86906530  1
  Al  Al26  1  0.22785378  0.53472200  0.62829893  1
  Al  Al27  1  0.77626751  0.42976418  0.31930660  1
  Al  Al28  1  0.88606685  0.54001504  0.08442057  1
  Al  Al29  1  0.45259348  0.42091100  0.84996891  1
  Al  Al30  1  0.56000261  0.53009012  0.58702098  1
  Al  Al31  1  0.78412937  0.76324591  0.84683381  1
  Al  Al32  1  0.87913370  0.87572692  0.57906794  1
  Al  Al33  1  0.56823583  0.86365180  0.08462331  1
  Al  Al34  1  0.77855537  0.75880964  0.32109621  1
  Al  Al35  1  0.87861083  0.87797653  0.08761609  1
  N  N36  1  0.22571061  0.20799465  0.34093978  1
  N  N37  1  0.09679110  0.11499145  0.09910876  1
  N  N38  1  0.86660585  0.21161228  0.86496000  1
  N  N39  1  0.76879041  0.08272773  0.62113524  1
  N  N40  1  0.57622189  0.19774565  0.36645130  1
  N  N41  1  0.45088729  0.09241725  0.09869451  1
  N  N42  1  0.21700128  0.22273180  0.85886302  1
  N  N43  1  0.10168998  0.10398848  0.60136673  1
  N  N44  1  0.86595298  0.21766469  0.34818065  1
  N  N45  1  0.77578914  0.09555382  0.11371721  1
  N  N46  1  0.56675101  0.21318583  0.86750276  1
  N  N47  1  0.45620588  0.10214124  0.60515915  1
  N  N48  1  0.22640036  0.53793414  0.32231991  1
  N  N49  1  0.10771247  0.43184020  0.09135011  1
  N  N50  1  0.89183861  0.53865830  0.86535098  1
  N  N51  1  0.75807860  0.43898070  0.63279112  1
  N  N52  1  0.57916044  0.52253772  0.36394174  1
  N  N53  1  0.44855557  0.42512191  0.09759913  1
  N  N54  1  0.23548337  0.52089032  0.85401867  1
  N  N55  1  0.11738651  0.44290187  0.59726669  1
  N  N56  1  0.86965255  0.54679361  0.34735672  1
  N  N57  1  0.77733698  0.42851803  0.10106569  1
  N  N58  1  0.56292109  0.51830466  0.87015378  1
  N  N59  1  0.44566962  0.42713160  0.61213174  1
  N  N60  1  0.22307478  0.87110318  0.34761966  1
  N  N61  1  0.09620415  0.75806857  0.09822738  1
  N  N62  1  0.86633261  0.88782593  0.87571919  1
  N  N63  1  0.79400077  0.76516302  0.62954104  1
  N  N64  1  0.57860835  0.86059921  0.35443826  1
  N  N65  1  0.46577578  0.74824544  0.10058663  1
  N  N66  1  0.22116523  0.87122323  0.85270525  1
  N  N67  1  0.09889590  0.75315633  0.60249057  1
  N  N68  1  0.86597968  0.88204085  0.35887029  1
  N  N69  1  0.78107864  0.75869898  0.10537775  1
  N  N70  1  0.57615299  0.86082234  0.86188119  1
  N  N71  1  0.45562198  0.74148315  0.60290793  1
