# generated using pymatgen
data_Sc4Al5N9
_symmetry_space_group_name_H-M   'P 1'
_cell_length_a   10.14489286
_cell_length_b   10.08776770
_cell_length_c   10.11634171
_cell_angle_alpha   89.85224475
_cell_angle_beta   89.75080488
_cell_angle_gamma   60.22135673
_symmetry_Int_Tables_number   1
_chemical_formula_structural   Sc4Al5N9
_chemical_formula_sum   'Sc16 Al20 N36'
_cell_volume   898.58030745
_cell_formula_units_Z   4
loop_
 _symmetry_equiv_pos_site_id
 _symmetry_equiv_pos_as_xyz
  1  'x, y, z'
loop_
 _atom_site_type_symbol
 _atom_site_label
 _atom_site_symmetry_multiplicity
 _atom_site_fract_x
 _atom_site_fract_y
 _atom_site_fract_z
 _atom_site_occupancy
  Sc  Sc0  1  0.10167235  0.10055487  0.36726378  1
  Sc  Sc1  1  0.87391561  0.21081982  0.62523137  1
  Sc  Sc2  1  0.45542889  0.09378990  0.37025733  1
  Sc  Sc3  1  0.09705844  0.11045218  0.89239261  1
  Sc  Sc4  1  0.22406338  0.21700699  0.63133466  1
  Sc  Sc5  1  0.45026983  0.09545041  0.88602695  1
  Sc  Sc6  1  0.10438749  0.43752751  0.36551932  1
  Sc  Sc7  1  0.89085458  0.54211302  0.63345734  1
  Sc  Sc8  1  0.45023576  0.42387295  0.38080774  1
  Sc  Sc9  1  0.09839861  0.75949893  0.39083754  1
  Sc  Sc10  1  0.22128151  0.86572948  0.12517817  1
  Sc  Sc11  1  0.45542139  0.74868274  0.37457462  1
  Sc  Sc12  1  0.10013027  0.75609908  0.87051751  1
  Sc  Sc13  1  0.22379480  0.87118126  0.63588433  1
  Sc  Sc14  1  0.46032633  0.74837364  0.88390872  1
  Sc  Sc15  1  0.56850863  0.86868902  0.62546442  1
  Al  Al16  1  0.22144360  0.21055725  0.13769640  1
  Al  Al17  1  0.77209359  0.09999591  0.88894013  1
  Al  Al18  1  0.56331656  0.20533275  0.13277683  1
  Al  Al19  1  0.77284899  0.09210679  0.38205727  1
  Al  Al20  1  0.87502275  0.21381825  0.14155050  1
  Al  Al21  1  0.55993930  0.20810350  0.64200266  1
  Al  Al22  1  0.22250675  0.53801350  0.12773626  1
  Al  Al23  1  0.77693805  0.42430031  0.89161658  1
  Al  Al24  1  0.56605321  0.52903767  0.13310273  1
  Al  Al25  1  0.11059586  0.43033910  0.89857800  1
  Al  Al26  1  0.23103618  0.53070361  0.64767651  1
  Al  Al27  1  0.77055314  0.43251749  0.38112275  1
  Al  Al28  1  0.88100275  0.54191809  0.13185712  1
  Al  Al29  1  0.45315416  0.41980114  0.88678169  1
  Al  Al30  1  0.55790927  0.52954505  0.64220426  1
  Al  Al31  1  0.77985859  0.76162843  0.89415421  1
  Al  Al32  1  0.87739892  0.87804391  0.64040562  1
  Al  Al33  1  0.56795880  0.86477047  0.14095618  1
  Al  Al34  1  0.78170171  0.76151482  0.37786411  1
  Al  Al35  1  0.88196888  0.87387531  0.13408335  1
  N  N36  1  0.22556846  0.20787647  0.32536841  1
  N  N37  1  0.09586695  0.11464891  0.10741512  1
  N  N38  1  0.86841218  0.21559446  0.83652473  1
  N  N39  1  0.76618352  0.08458429  0.57296954  1
  N  N40  1  0.57605331  0.20002730  0.31677927  1
  N  N41  1  0.44801436  0.09176205  0.10099525  1
  N  N42  1  0.21403611  0.22514530  0.84342780  1
  N  N43  1  0.10646561  0.10179035  0.58248031  1
  N  N44  1  0.86336390  0.21715123  0.33327610  1
  N  N45  1  0.77906948  0.09418781  0.07879933  1
  N  N46  1  0.56692633  0.21222820  0.83207259  1
  N  N47  1  0.45581555  0.10545042  0.58843675  1
  N  N48  1  0.22680212  0.54268313  0.31310827  1
  N  N49  1  0.10869213  0.42952783  0.09134566  1
  N  N50  1  0.89181677  0.53989629  0.84944553  1
  N  N51  1  0.75762353  0.44245445  0.57005733  1
  N  N52  1  0.57406077  0.52333636  0.31712346  1
  N  N53  1  0.44743488  0.42621246  0.07934827  1
  N  N54  1  0.23779223  0.51362864  0.83800507  1
  N  N55  1  0.11964469  0.44485834  0.57524578  1
  N  N56  1  0.86722133  0.54860999  0.32329188  1
  N  N57  1  0.77877698  0.42565668  0.08036851  1
  N  N58  1  0.57020024  0.51523198  0.83213939  1
  N  N59  1  0.44629174  0.42688864  0.59539329  1
  N  N60  1  0.22057554  0.86557837  0.33842835  1
  N  N61  1  0.09481167  0.75256111  0.08329149  1
  N  N62  1  0.86093420  0.88848076  0.82970421  1
  N  N63  1  0.79517708  0.76541666  0.56513850  1
  N  N64  1  0.57683760  0.86055015  0.33100132  1
  N  N65  1  0.46685612  0.74871437  0.09825241  1
  N  N66  1  0.22315770  0.87453123  0.85376062  1
  N  N67  1  0.10094241  0.75320915  0.61385424  1
  N  N68  1  0.87088918  0.88281634  0.32143693  1
  N  N69  1  0.77844363  0.76151318  0.08303303  1
  N  N70  1  0.57830117  0.86115760  0.83440404  1
  N  N71  1  0.45617206  0.73959315  0.59301329  1
