# generated using pymatgen
data_Sc4Al5N9
_symmetry_space_group_name_H-M   'P 1'
_cell_length_a   10.20951747
_cell_length_b   10.14173125
_cell_length_c   9.95488873
_cell_angle_alpha   89.88132256
_cell_angle_beta   89.79240437
_cell_angle_gamma   60.21676246
_symmetry_Int_Tables_number   1
_chemical_formula_structural   Sc4Al5N9
_chemical_formula_sum   'Sc16 Al20 N36'
_cell_volume   894.59393746
_cell_formula_units_Z   4
loop_
 _symmetry_equiv_pos_site_id
 _symmetry_equiv_pos_as_xyz
  1  'x, y, z'
loop_
 _atom_site_type_symbol
 _atom_site_label
 _atom_site_symmetry_multiplicity
 _atom_site_fract_x
 _atom_site_fract_y
 _atom_site_fract_z
 _atom_site_occupancy
  Sc  Sc0  1  0.10167767  0.10080586  0.36292561  1
  Sc  Sc1  1  0.87286833  0.21107096  0.61816273  1
  Sc  Sc2  1  0.45569490  0.09404817  0.36457268  1
  Sc  Sc3  1  0.09641692  0.11116621  0.88394969  1
  Sc  Sc4  1  0.22423568  0.21743427  0.62446782  1
  Sc  Sc5  1  0.45019216  0.09496093  0.87963817  1
  Sc  Sc6  1  0.10452042  0.43805178  0.35872169  1
  Sc  Sc7  1  0.89140246  0.54143277  0.62841657  1
  Sc  Sc8  1  0.45084224  0.42370580  0.37472039  1
  Sc  Sc9  1  0.09841578  0.75988355  0.38313442  1
  Sc  Sc10  1  0.22143443  0.86696717  0.11800174  1
  Sc  Sc11  1  0.45529639  0.74826594  0.36893548  1
  Sc  Sc12  1  0.09978220  0.75620856  0.86597460  1
  Sc  Sc13  1  0.22333984  0.87047665  0.62926117  1
  Sc  Sc14  1  0.46026263  0.74876042  0.87669028  1
  Sc  Sc15  1  0.56884255  0.86805755  0.61848071  1
  Al  Al16  1  0.22132832  0.21014767  0.13313762  1
  Al  Al17  1  0.77226783  0.10016745  0.88481513  1
  Al  Al18  1  0.56407023  0.20510236  0.12775571  1
  Al  Al19  1  0.77250171  0.09154091  0.37852379  1
  Al  Al20  1  0.87509269  0.21393045  0.13796637  1
  Al  Al21  1  0.55992678  0.20798246  0.63846294  1
  Al  Al22  1  0.22324242  0.53818803  0.12292803  1
  Al  Al23  1  0.77678535  0.42369250  0.88700971  1
  Al  Al24  1  0.56655599  0.52910659  0.12793868  1
  Al  Al25  1  0.11063829  0.43023586  0.89489322  1
  Al  Al26  1  0.23089315  0.53054287  0.64315852  1
  Al  Al27  1  0.77027827  0.43327877  0.37777441  1
  Al  Al28  1  0.88043564  0.54201761  0.12715423  1
  Al  Al29  1  0.45292381  0.41974413  0.88347106  1
  Al  Al30  1  0.55754258  0.52898241  0.63876595  1
  Al  Al31  1  0.77967235  0.76173311  0.88984965  1
  Al  Al32  1  0.87724170  0.87787447  0.63676826  1
  Al  Al33  1  0.56827846  0.86432426  0.13711640  1
  Al  Al34  1  0.78230794  0.76123283  0.37416960  1
  Al  Al35  1  0.88143454  0.87457329  0.12956126  1
  N  N36  1  0.22563783  0.20761690  0.32512612  1
  N  N37  1  0.09516813  0.11560020  0.10412624  1
  N  N38  1  0.86736462  0.21584504  0.83290022  1
  N  N39  1  0.76542100  0.08414634  0.57167180  1
  N  N40  1  0.57658410  0.19953866  0.31455828  1
  N  N41  1  0.44820338  0.09122176  0.09899367  1
  N  N42  1  0.21414171  0.22568734  0.84088908  1
  N  N43  1  0.10594573  0.10196767  0.58308336  1
  N  N44  1  0.86345359  0.21701098  0.33348620  1
  N  N45  1  0.77959208  0.09453932  0.07694816  1
  N  N46  1  0.56679710  0.21226234  0.83152346  1
  N  N47  1  0.45608566  0.10523091  0.58761003  1
  N  N48  1  0.22770252  0.54221790  0.31104115  1
  N  N49  1  0.10874247  0.42970455  0.09059213  1
  N  N50  1  0.89207350  0.53968645  0.84773947  1
  N  N51  1  0.75669297  0.44328467  0.56922558  1
  N  N52  1  0.57473901  0.52325730  0.31487484  1
  N  N53  1  0.44772461  0.42617051  0.07833096  1
  N  N54  1  0.23760415  0.51396702  0.83706196  1
  N  N55  1  0.11945325  0.44524992  0.57223088  1
  N  N56  1  0.86719782  0.54857229  0.32186988  1
  N  N57  1  0.77913755  0.42529757  0.07829319  1
  N  N58  1  0.56976174  0.51488566  0.83157806  1
  N  N59  1  0.44626261  0.42649685  0.59283023  1
  N  N60  1  0.22084947  0.86660226  0.33716053  1
  N  N61  1  0.09476356  0.75336128  0.08283628  1
  N  N62  1  0.86124945  0.88836904  0.82876471  1
  N  N63  1  0.79572296  0.76484438  0.56407210  1
  N  N64  1  0.57699878  0.86024308  0.33146863  1
  N  N65  1  0.46706485  0.74892618  0.09593753  1
  N  N66  1  0.22267918  0.87419279  0.85306464  1
  N  N67  1  0.10052485  0.75305853  0.61056931  1
  N  N68  1  0.86995334  0.88315017  0.31936933  1
  N  N69  1  0.77829843  0.76159265  0.08138474  1
  N  N70  1  0.57888237  0.86080146  0.83122399  1
  N  N71  1  0.45574006  0.73908751  0.59269229  1
