# generated using pymatgen
data_Sc4Al5N9
_symmetry_space_group_name_H-M   'P 1'
_cell_length_a   10.62762308
_cell_length_b   10.51151133
_cell_length_c   8.91677337
_cell_angle_alpha   89.90338513
_cell_angle_beta   90.11729354
_cell_angle_gamma   59.97857656
_symmetry_Int_Tables_number   1
_chemical_formula_structural   Sc4Al5N9
_chemical_formula_sum   'Sc16 Al20 N36'
_cell_volume   862.46768824
_cell_formula_units_Z   4
loop_
 _symmetry_equiv_pos_site_id
 _symmetry_equiv_pos_as_xyz
  1  'x, y, z'
loop_
 _atom_site_type_symbol
 _atom_site_label
 _atom_site_symmetry_multiplicity
 _atom_site_fract_x
 _atom_site_fract_y
 _atom_site_fract_z
 _atom_site_occupancy
  Sc  Sc0  1  0.10082519  0.10498722  0.34500301  1
  Sc  Sc1  1  0.86792900  0.21306808  0.59573065  1
  Sc  Sc2  1  0.45610380  0.09246318  0.34283659  1
  Sc  Sc3  1  0.09899989  0.10751022  0.85103244  1
  Sc  Sc4  1  0.22639357  0.21397815  0.60020664  1
  Sc  Sc5  1  0.45065802  0.09797504  0.85614997  1
  Sc  Sc6  1  0.10481405  0.43768587  0.34093430  1
  Sc  Sc7  1  0.88537742  0.54050061  0.60371351  1
  Sc  Sc8  1  0.45278260  0.42497041  0.35053239  1
  Sc  Sc9  1  0.09793740  0.76042189  0.34914371  1
  Sc  Sc10  1  0.22255775  0.87102952  0.09986354  1
  Sc  Sc11  1  0.46057517  0.74665399  0.34698084  1
  Sc  Sc12  1  0.09984381  0.75844789  0.85273575  1
  Sc  Sc13  1  0.22208571  0.86764291  0.59878457  1
  Sc  Sc14  1  0.45338442  0.75340607  0.85345000  1
  Sc  Sc15  1  0.57129686  0.86635449  0.59918202  1
  Al  Al16  1  0.21985354  0.21237433  0.09733085  1
  Al  Al17  1  0.77335888  0.09835572  0.87531868  1
  Al  Al18  1  0.56167734  0.20738797  0.10556931  1
  Al  Al19  1  0.77247923  0.09199018  0.34714787  1
  Al  Al20  1  0.88070711  0.20990965  0.09723493  1
  Al  Al21  1  0.56311651  0.20550923  0.62210835  1
  Al  Al22  1  0.22579128  0.53450791  0.10105736  1
  Al  Al23  1  0.77369634  0.42440780  0.85413799  1
  Al  Al24  1  0.56221174  0.53055988  0.09413923  1
  Al  Al25  1  0.11188304  0.43127682  0.86252474  1
  Al  Al26  1  0.22771814  0.53404738  0.62310289  1
  Al  Al27  1  0.77661311  0.43028218  0.31391958  1
  Al  Al28  1  0.88851022  0.53912195  0.08294192  1
  Al  Al29  1  0.44864878  0.42118611  0.86557227  1
  Al  Al30  1  0.55530976  0.52944708  0.63135390  1
  Al  Al31  1  0.78260811  0.76253413  0.85162850  1
  Al  Al32  1  0.87900344  0.87829802  0.61133157  1
  Al  Al33  1  0.56578254  0.86561440  0.09092449  1
  Al  Al34  1  0.77919719  0.75873610  0.31947984  1
  Al  Al35  1  0.88109346  0.87535893  0.10008474  1
  N  N36  1  0.22546592  0.20844787  0.33864156  1
  N  N37  1  0.09857757  0.11417362  0.09751490  1
  N  N38  1  0.86841583  0.21093028  0.85695444  1
  N  N39  1  0.76611318  0.08533960  0.57883204  1
  N  N40  1  0.57248658  0.20011739  0.32344186  1
  N  N41  1  0.44782980  0.09224580  0.09631809  1
  N  N42  1  0.21708225  0.22237300  0.85585360  1
  N  N43  1  0.10159469  0.10420690  0.59811610  1
  N  N44  1  0.86651845  0.21810930  0.33550308  1
  N  N45  1  0.77881720  0.09435071  0.09485492  1
  N  N46  1  0.56887900  0.21216500  0.84784803  1
  N  N47  1  0.45777300  0.10354655  0.60068326  1
  N  N48  1  0.22826137  0.53712106  0.32429457  1
  N  N49  1  0.10917023  0.43176178  0.08816990  1
  N  N50  1  0.89367860  0.53869086  0.85986349  1
  N  N51  1  0.75624319  0.43966488  0.62492486  1
  N  N52  1  0.57782584  0.52278526  0.31844856  1
  N  N53  1  0.44429741  0.42550371  0.08610540  1
  N  N54  1  0.23521575  0.52013896  0.84831051  1
  N  N55  1  0.11628752  0.44258796  0.59651385  1
  N  N56  1  0.87026444  0.54624964  0.33741987  1
  N  N57  1  0.78209364  0.42710392  0.08645061  1
  N  N58  1  0.56096459  0.52001507  0.85953846  1
  N  N59  1  0.44660737  0.42647823  0.60546978  1
  N  N60  1  0.22278322  0.86996953  0.34723986  1
  N  N61  1  0.09794676  0.75546580  0.09489925  1
  N  N62  1  0.86753247  0.88932761  0.85305316  1
  N  N63  1  0.79218270  0.76469261  0.61921914  1
  N  N64  1  0.57787457  0.85990652  0.34410318  1
  N  N65  1  0.46158702  0.75351610  0.09653469  1
  N  N66  1  0.22029853  0.87198623  0.85044992  1
  N  N67  1  0.09798669  0.75397403  0.60136767  1
  N  N68  1  0.86748838  0.87899181  0.33090465  1
  N  N69  1  0.78087560  0.75848282  0.09273970  1
  N  N70  1  0.57486234  0.86298524  0.85724557  1
  N  N71  1  0.45695026  0.73812728  0.60152769  1
