# generated using pymatgen
data_Sc4Al5N9
_symmetry_space_group_name_H-M   'P 1'
_cell_length_a   10.14483706
_cell_length_b   10.08771962
_cell_length_c   10.11649037
_cell_angle_alpha   89.85224024
_cell_angle_beta   89.75080592
_cell_angle_gamma   60.22130286
_symmetry_Int_Tables_number   1
_chemical_formula_structural   Sc4Al5N9
_chemical_formula_sum   'Sc16 Al20 N36'
_cell_volume   898.58380350
_cell_formula_units_Z   4
loop_
 _symmetry_equiv_pos_site_id
 _symmetry_equiv_pos_as_xyz
  1  'x, y, z'
loop_
 _atom_site_type_symbol
 _atom_site_label
 _atom_site_symmetry_multiplicity
 _atom_site_fract_x
 _atom_site_fract_y
 _atom_site_fract_z
 _atom_site_occupancy
  Sc  Sc0  1  0.10171320  0.10055280  0.37443108  1
  Sc  Sc1  1  0.87395759  0.21081762  0.63240055  1
  Sc  Sc2  1  0.45547129  0.09378757  0.37742580  1
  Sc  Sc3  1  0.09710079  0.11044920  0.89956352  1
  Sc  Sc4  1  0.22410455  0.21700488  0.63850262  1
  Sc  Sc5  1  0.45031085  0.09544988  0.89319560  1
  Sc  Sc6  1  0.10442800  0.43752568  0.37268786  1
  Sc  Sc7  1  0.89089511  0.54211195  0.64062493  1
  Sc  Sc8  1  0.45027743  0.42387101  0.38797441  1
  Sc  Sc9  1  0.09843961  0.75949617  0.39800686  1
  Sc  Sc10  1  0.22132322  0.86572585  0.13234848  1
  Sc  Sc11  1  0.45546448  0.74868053  0.38174306  1
  Sc  Sc12  1  0.10017217  0.75609694  0.87768507  1
  Sc  Sc13  1  0.22383653  0.87117911  0.64305257  1
  Sc  Sc14  1  0.46036765  0.74837139  0.89107818  1
  Sc  Sc15  1  0.56855040  0.86868763  0.63263491  1
  Al  Al16  1  0.22148544  0.21055531  0.14486442  1
  Al  Al17  1  0.77213519  0.09999350  0.89610604  1
  Al  Al18  1  0.56335754  0.20533067  0.13994296  1
  Al  Al19  1  0.77289088  0.09210534  0.38922202  1
  Al  Al20  1  0.87506448  0.21381600  0.14871566  1
  Al  Al21  1  0.55998072  0.20810221  0.64916822  1
  Al  Al22  1  0.22254740  0.53801116  0.13490318  1
  Al  Al23  1  0.77697983  0.42429869  0.89878265  1
  Al  Al24  1  0.56609459  0.52903588  0.14026879  1
  Al  Al25  1  0.11063741  0.43033705  0.90574323  1
  Al  Al26  1  0.23107779  0.53070182  0.65484227  1
  Al  Al27  1  0.77059492  0.43251480  0.38828778  1
  Al  Al28  1  0.88104488  0.54191587  0.13902291  1
  Al  Al29  1  0.45319570  0.41979942  0.89394801  1
  Al  Al30  1  0.55795102  0.52954349  0.64937003  1
  Al  Al31  1  0.77990031  0.76162660  0.90132148  1
  Al  Al32  1  0.87744074  0.87804200  0.64757063  1
  Al  Al33  1  0.56799990  0.86476923  0.14812141  1
  Al  Al34  1  0.78174247  0.76151307  0.38503052  1
  Al  Al35  1  0.88201097  0.87387264  0.14124973  1
  N  N36  1  0.22561011  0.20787433  0.33253242  1
  N  N37  1  0.09590965  0.11464557  0.11458145  1
  N  N38  1  0.86845501  0.21559188  0.84369084  1
  N  N39  1  0.76622565  0.08458290  0.58013267  1
  N  N40  1  0.57609447  0.20002552  0.32394289  1
  N  N41  1  0.44805533  0.09176094  0.10815964  1
  N  N42  1  0.21407715  0.22514288  0.85059191  1
  N  N43  1  0.10650726  0.10178824  0.58964286  1
  N  N44  1  0.86340525  0.21714937  0.34043793  1
  N  N45  1  0.77911076  0.09418522  0.08596320  1
  N  N46  1  0.56696794  0.21222653  0.83923585  1
  N  N47  1  0.45585707  0.10544882  0.59560060  1
  N  N48  1  0.22684263  0.54268105  0.32027253  1
  N  N49  1  0.10873383  0.42952526  0.09850871  1
  N  N50  1  0.89185778  0.53989474  0.85661018  1
  N  N51  1  0.75766580  0.44245160  0.57722033  1
  N  N52  1  0.57410179  0.52333481  0.32428702  1
  N  N53  1  0.44747609  0.42621063  0.08651216  1
  N  N54  1  0.23783388  0.51362645  0.84516822  1
  N  N55  1  0.11968585  0.44485633  0.58241082  1
  N  N56  1  0.86726269  0.54860800  0.33045523  1
  N  N57  1  0.77881839  0.42565486  0.08753239  1
  N  N58  1  0.57024195  0.51523038  0.83930284  1
  N  N59  1  0.44633326  0.42688731  0.60255719  1
  N  N60  1  0.22061748  0.86557502  0.34559384  1
  N  N61  1  0.09485357  0.75255850  0.09045520  1
  N  N62  1  0.86097570  0.88847853  0.83686725  1
  N  N63  1  0.79521755  0.76541522  0.57230258  1
  N  N64  1  0.57687913  0.86054864  0.33816293  1
  N  N65  1  0.46689729  0.74871250  0.10541704  1
  N  N66  1  0.22319947  0.87452944  0.86092345  1
  N  N67  1  0.10098417  0.75320720  0.62101919  1
  N  N68  1  0.87093156  0.88281382  0.32860135  1
  N  N69  1  0.77848557  0.76151114  0.09019744  1
  N  N70  1  0.57834178  0.86115660  0.84157109  1
  N  N71  1  0.45621466  0.73959182  0.60017736  1
