# generated using pymatgen
data_Sc4Al5N9
_symmetry_space_group_name_H-M   'P 1'
_cell_length_a   10.55723604
_cell_length_b   10.44397032
_cell_length_c   9.10235831
_cell_angle_alpha   89.99091899
_cell_angle_beta   90.17844417
_cell_angle_gamma   59.96021141
_symmetry_Int_Tables_number   1
_chemical_formula_structural   Sc4Al5N9
_chemical_formula_sum   'Sc16 Al20 N36'
_cell_volume   868.80676626
_cell_formula_units_Z   4
loop_
 _symmetry_equiv_pos_site_id
 _symmetry_equiv_pos_as_xyz
  1  'x, y, z'
loop_
 _atom_site_type_symbol
 _atom_site_label
 _atom_site_symmetry_multiplicity
 _atom_site_fract_x
 _atom_site_fract_y
 _atom_site_fract_z
 _atom_site_occupancy
  Sc  Sc0  1  0.09965731  0.10454907  0.34697872  1
  Sc  Sc1  1  0.86782702  0.21519413  0.59935422  1
  Sc  Sc2  1  0.45543386  0.09462171  0.34749383  1
  Sc  Sc3  1  0.09987454  0.10743622  0.85307971  1
  Sc  Sc4  1  0.22577548  0.21543255  0.60351083  1
  Sc  Sc5  1  0.45167334  0.09492244  0.85945961  1
  Sc  Sc6  1  0.10493127  0.43790567  0.34331644  1
  Sc  Sc7  1  0.88803883  0.54029473  0.61188876  1
  Sc  Sc8  1  0.45403896  0.42447637  0.35288683  1
  Sc  Sc9  1  0.09888143  0.76037976  0.35432619  1
  Sc  Sc10  1  0.22210744  0.87055313  0.10163551  1
  Sc  Sc11  1  0.45981660  0.74503141  0.35054838  1
  Sc  Sc12  1  0.09841236  0.75820942  0.85485177  1
  Sc  Sc13  1  0.22214005  0.86741899  0.60214873  1
  Sc  Sc14  1  0.45472149  0.75546680  0.85733766  1
  Sc  Sc15  1  0.57140533  0.86571743  0.60137294  1
  Al  Al16  1  0.22122291  0.21016176  0.10557904  1
  Al  Al17  1  0.77285087  0.09580454  0.87321621  1
  Al  Al18  1  0.56407977  0.20436018  0.10987978  1
  Al  Al19  1  0.77223746  0.09323328  0.36082371  1
  Al  Al20  1  0.88080635  0.20667559  0.09483767  1
  Al  Al21  1  0.56098038  0.20768922  0.62766103  1
  Al  Al22  1  0.22532401  0.53539081  0.10720647  1
  Al  Al23  1  0.77279496  0.42410128  0.85656862  1
  Al  Al24  1  0.56121721  0.53110719  0.09489679  1
  Al  Al25  1  0.11288859  0.43115942  0.87528399  1
  Al  Al26  1  0.22860521  0.53310212  0.62816440  1
  Al  Al27  1  0.77764092  0.42841746  0.30691056  1
  Al  Al28  1  0.88738584  0.54221169  0.09376721  1
  Al  Al29  1  0.44741159  0.42018077  0.87337142  1
  Al  Al30  1  0.55348085  0.52975116  0.63902692  1
  Al  Al31  1  0.78087028  0.76428988  0.87797487  1
  Al  Al32  1  0.87774756  0.87747796  0.61952418  1
  Al  Al33  1  0.56692851  0.86569078  0.11644103  1
  Al  Al34  1  0.78209166  0.76019398  0.35539915  1
  Al  Al35  1  0.87934775  0.87700594  0.11702554  1
  N  N36  1  0.22511698  0.20753298  0.33615452  1
  N  N37  1  0.09828420  0.11368618  0.09817935  1
  N  N38  1  0.86900902  0.20944249  0.85458845  1
  N  N39  1  0.76480027  0.08682344  0.57828163  1
  N  N40  1  0.57484280  0.19898345  0.31923079  1
  N  N41  1  0.44860777  0.09051238  0.09759940  1
  N  N42  1  0.21695443  0.22349716  0.85275269  1
  N  N43  1  0.10162863  0.10446033  0.59836884  1
  N  N44  1  0.86486327  0.21765234  0.33617300  1
  N  N45  1  0.77919816  0.09161451  0.08402824  1
  N  N46  1  0.56717918  0.21243610  0.84358918  1
  N  N47  1  0.45744598  0.10401001  0.59890424  1
  N  N48  1  0.22915998  0.53791679  0.31937333  1
  N  N49  1  0.11089229  0.43018665  0.09047284  1
  N  N50  1  0.89518587  0.54477464  0.86095421  1
  N  N51  1  0.75576803  0.44221636  0.63281795  1
  N  N52  1  0.57821998  0.52232063  0.31190666  1
  N  N53  1  0.44426950  0.42387829  0.08618760  1
  N  N54  1  0.23541063  0.51879321  0.84596674  1
  N  N55  1  0.11714317  0.44359073  0.58659351  1
  N  N56  1  0.87034060  0.54493903  0.32664892  1
  N  N57  1  0.78264119  0.42533962  0.08290667  1
  N  N58  1  0.55824312  0.52084635  0.86098799  1
  N  N59  1  0.44654820  0.42696569  0.60070176  1
  N  N60  1  0.22283111  0.86953789  0.34774664  1
  N  N61  1  0.09499331  0.75655257  0.09363440  1
  N  N62  1  0.86383839  0.88663124  0.83414469  1
  N  N63  1  0.79462633  0.76341165  0.57060817  1
  N  N64  1  0.57573566  0.86098062  0.33860532  1
  N  N65  1  0.46244502  0.75479902  0.09692151  1
  N  N66  1  0.22052087  0.87158391  0.85210829  1
  N  N67  1  0.09944387  0.75272124  0.60304461  1
  N  N68  1  0.86859452  0.88386542  0.32670220  1
  N  N69  1  0.77902113  0.76329122  0.09016961  1
  N  N70  1  0.57931914  0.86061155  0.84162939  1
  N  N71  1  0.45659939  0.73747628  0.60158039  1
