# generated using pymatgen
data_Sc4Al5N9
_symmetry_space_group_name_H-M   'P 1'
_cell_length_a   10.23338962
_cell_length_b   10.16213740
_cell_length_c   9.89418853
_cell_angle_alpha   89.88868512
_cell_angle_beta   89.80444704
_cell_angle_gamma   60.21058431
_symmetry_Int_Tables_number   1
_chemical_formula_structural   Sc4Al5N9
_chemical_formula_sum   'Sc16 Al20 N36'
_cell_volume   892.95690565
_cell_formula_units_Z   4
loop_
 _symmetry_equiv_pos_site_id
 _symmetry_equiv_pos_as_xyz
  1  'x, y, z'
loop_
 _atom_site_type_symbol
 _atom_site_label
 _atom_site_symmetry_multiplicity
 _atom_site_fract_x
 _atom_site_fract_y
 _atom_site_fract_z
 _atom_site_occupancy
  Sc  Sc0  1  0.10165820  0.10095611  0.36260778  1
  Sc  Sc1  1  0.87248268  0.21115095  0.61684098  1
  Sc  Sc2  1  0.45577069  0.09415508  0.36371933  1
  Sc  Sc3  1  0.09631474  0.11123069  0.88183675  1
  Sc  Sc4  1  0.22431012  0.21756755  0.62321007  1
  Sc  Sc5  1  0.45018406  0.09484518  0.87844728  1
  Sc  Sc6  1  0.10455499  0.43819658  0.35757341  1
  Sc  Sc7  1  0.89152180  0.54122777  0.62772956  1
  Sc  Sc8  1  0.45102666  0.42368113  0.37359361  1
  Sc  Sc9  1  0.09837243  0.75997412  0.38120994  1
  Sc  Sc10  1  0.22152855  0.86741958  0.11679299  1
  Sc  Sc11  1  0.45542771  0.74808439  0.36805874  1
  Sc  Sc12  1  0.09969862  0.75630930  0.86558542  1
  Sc  Sc13  1  0.22321536  0.87011843  0.62761019  1
  Sc  Sc14  1  0.46015551  0.74892717  0.87516564  1
  Sc  Sc15  1  0.56900344  0.86788335  0.61723575  1
  Al  Al16  1  0.22126583  0.20999230  0.13254428  1
  Al  Al17  1  0.77237036  0.10021562  0.88447714  1
  Al  Al18  1  0.56431680  0.20503209  0.12703090  1
  Al  Al19  1  0.77236003  0.09136833  0.37834084  1
  Al  Al20  1  0.87518652  0.21391822  0.13772772  1
  Al  Al21  1  0.55993282  0.20798436  0.63834250  1
  Al  Al22  1  0.22351267  0.53816006  0.12224896  1
  Al  Al23  1  0.77677720  0.42345976  0.88650110  1
  Al  Al24  1  0.56673394  0.52913534  0.12714351  1
  Al  Al25  1  0.11062939  0.43019203  0.89465097  1
  Al  Al26  1  0.23079937  0.53056378  0.64271130  1
  Al  Al27  1  0.77020811  0.43350675  0.37765182  1
  Al  Al28  1  0.88028231  0.54201696  0.12652612  1
  Al  Al29  1  0.45286039  0.41975578  0.88341293  1
  Al  Al30  1  0.55744558  0.52878905  0.63868154  1
  Al  Al31  1  0.77961956  0.76176555  0.88945464  1
  Al  Al32  1  0.87726156  0.87778320  0.63654788  1
  Al  Al33  1  0.56833756  0.86423418  0.13675545  1
  Al  Al34  1  0.78248733  0.76116467  0.37390519  1
  Al  Al35  1  0.88117507  0.87488162  0.12902469  1
  N  N36  1  0.22564274  0.20754516  0.32630879  1
  N  N37  1  0.09500853  0.11580860  0.10416315  1
  N  N38  1  0.86705974  0.21589473  0.83294769  1
  N  N39  1  0.76518223  0.08401995  0.57243628  1
  N  N40  1  0.57670036  0.19939332  0.31497998  1
  N  N41  1  0.44824219  0.09106044  0.09944654  1
  N  N42  1  0.21420222  0.22582041  0.84132167  1
  N  N43  1  0.10573058  0.10208241  0.58477525  1
  N  N44  1  0.86351863  0.21693121  0.33472649  1
  N  N45  1  0.77977502  0.09466291  0.07751779  1
  N  N46  1  0.56678842  0.21229972  0.83260382  1
  N  N47  1  0.45618166  0.10517433  0.58869498  1
  N  N48  1  0.22798021  0.54193715  0.31149575  1
  N  N49  1  0.10873971  0.42974224  0.09143058  1
  N  N50  1  0.89212889  0.53962848  0.84839165  1
  N  N51  1  0.75642137  0.44349060  0.57015606  1
  N  N52  1  0.57496600  0.52323036  0.31526168  1
  N  N53  1  0.44783641  0.42615626  0.07921240  1
  N  N54  1  0.23750719  0.51416444  0.83806194  1
  N  N55  1  0.11936274  0.44536486  0.57257855  1
  N  N56  1  0.86723228  0.54853209  0.32259281  1
  N  N57  1  0.77929707  0.42516063  0.07878390  1
  N  N58  1  0.56963006  0.51479597  0.83267232  1
  N  N59  1  0.44623100  0.42641533  0.59317193  1
  N  N60  1  0.22102239  0.86694915  0.33842908  1
  N  N61  1  0.09479250  0.75371615  0.08412272  1
  N  N62  1  0.86141732  0.88829623  0.82967420  1
  N  N63  1  0.79587523  0.76467023  0.56491039  1
  N  N64  1  0.57703135  0.86021738  0.33279256  1
  N  N65  1  0.46705770  0.74905807  0.09637545  1
  N  N66  1  0.22253920  0.87399658  0.85378799  1
  N  N67  1  0.10036275  0.75296331  0.61045209  1
  N  N68  1  0.86956715  0.88331336  0.31982666  1
  N  N69  1  0.77826294  0.76161116  0.08203651  1
  N  N70  1  0.57903450  0.86070804  0.83148082  1
  N  N71  1  0.45574083  0.73892377  0.59388594  1
