# generated using pymatgen
data_Sc4Al5N9
_symmetry_space_group_name_H-M   'P 1'
_cell_length_a   10.61559651
_cell_length_b   10.48801442
_cell_length_c   8.95460080
_cell_angle_alpha   89.99600539
_cell_angle_beta   90.33137680
_cell_angle_gamma   60.01911953
_symmetry_Int_Tables_number   1
_chemical_formula_structural   Sc4Al5N9
_chemical_formula_sum   'Sc16 Al20 N36'
_cell_volume   863.55177332
_cell_formula_units_Z   4
loop_
 _symmetry_equiv_pos_site_id
 _symmetry_equiv_pos_as_xyz
  1  'x, y, z'
loop_
 _atom_site_type_symbol
 _atom_site_label
 _atom_site_symmetry_multiplicity
 _atom_site_fract_x
 _atom_site_fract_y
 _atom_site_fract_z
 _atom_site_occupancy
  Sc  Sc0  1  0.10020769  0.10509545  0.34467492  1
  Sc  Sc1  1  0.86746110  0.21366644  0.59494983  1
  Sc  Sc2  1  0.45619497  0.09154831  0.34261169  1
  Sc  Sc3  1  0.09930235  0.10729964  0.85048515  1
  Sc  Sc4  1  0.22596526  0.21397196  0.60058069  1
  Sc  Sc5  1  0.45085137  0.09849648  0.85570828  1
  Sc  Sc6  1  0.10464771  0.43753431  0.34219191  1
  Sc  Sc7  1  0.88545669  0.53983102  0.60414202  1
  Sc  Sc8  1  0.45314204  0.42597172  0.34938966  1
  Sc  Sc9  1  0.10033994  0.75988964  0.34698684  1
  Sc  Sc10  1  0.22275478  0.87117059  0.09948823  1
  Sc  Sc11  1  0.46139358  0.74664573  0.34778827  1
  Sc  Sc12  1  0.09695399  0.75989121  0.85043492  1
  Sc  Sc13  1  0.22223348  0.86728680  0.59894159  1
  Sc  Sc14  1  0.45314581  0.75374937  0.85451434  1
  Sc  Sc15  1  0.57115895  0.86586563  0.60061922  1
  Al  Al16  1  0.21962239  0.21237934  0.09799852  1
  Al  Al17  1  0.77171876  0.09481238  0.84480683  1
  Al  Al18  1  0.56226356  0.20665623  0.09636773  1
  Al  Al19  1  0.77545926  0.09490308  0.32300613  1
  Al  Al20  1  0.88067187  0.20862282  0.08658519  1
  Al  Al21  1  0.56098506  0.20609323  0.60594947  1
  Al  Al22  1  0.22484804  0.53526773  0.10272037  1
  Al  Al23  1  0.77321353  0.42459037  0.85495910  1
  Al  Al24  1  0.56209039  0.53129415  0.09486222  1
  Al  Al25  1  0.11172727  0.43176811  0.86457300  1
  Al  Al26  1  0.22773692  0.53423106  0.62411772  1
  Al  Al27  1  0.77778690  0.42927470  0.31159013  1
  Al  Al28  1  0.88852847  0.54066204  0.08266923  1
  Al  Al29  1  0.44755145  0.42097239  0.86790568  1
  Al  Al30  1  0.55468404  0.52896411  0.63490699  1
  Al  Al31  1  0.78449228  0.76298695  0.84543752  1
  Al  Al32  1  0.87787108  0.87726225  0.57928853  1
  Al  Al33  1  0.56754496  0.86520607  0.08907058  1
  Al  Al34  1  0.77873211  0.75896316  0.32154877  1
  Al  Al35  1  0.88018097  0.87586375  0.08611110  1
  N  N36  1  0.22547550  0.20805095  0.33928850  1
  N  N37  1  0.09814918  0.11420223  0.09763646  1
  N  N38  1  0.86841198  0.21024596  0.86097636  1
  N  N39  1  0.76695509  0.08474990  0.61706511  1
  N  N40  1  0.57552380  0.19866587  0.34092981  1
  N  N41  1  0.44932084  0.09162958  0.09811933  1
  N  N42  1  0.21695053  0.22275924  0.85709942  1
  N  N43  1  0.10127552  0.10418987  0.59887576  1
  N  N44  1  0.86624438  0.21806885  0.34157111  1
  N  N45  1  0.77919540  0.09346109  0.10435496  1
  N  N46  1  0.56581071  0.21323024  0.86055462  1
  N  N47  1  0.45670716  0.10288726  0.60205342  1
  N  N48  1  0.22835236  0.53673672  0.32482864  1
  N  N49  1  0.10880276  0.43202698  0.08957684  1
  N  N50  1  0.89349409  0.54053606  0.86158524  1
  N  N51  1  0.75570969  0.43976738  0.63030601  1
  N  N52  1  0.57903859  0.52278478  0.31748736  1
  N  N53  1  0.44367794  0.42607494  0.08972795  1
  N  N54  1  0.23446561  0.52105686  0.84951411  1
  N  N55  1  0.11627484  0.44259183  0.59666528  1
  N  N56  1  0.87047297  0.54552863  0.34216721  1
  N  N57  1  0.78301427  0.42690792  0.08728717  1
  N  N58  1  0.55983915  0.52014808  0.86210511  1
  N  N59  1  0.44607041  0.42651459  0.60616619  1
  N  N60  1  0.22373492  0.87004011  0.34726606  1
  N  N61  1  0.09674794  0.75644284  0.09702523  1
  N  N62  1  0.86772243  0.88593500  0.87027753  1
  N  N63  1  0.79306452  0.76502026  0.62298523  1
  N  N64  1  0.57813086  0.85987227  0.35004682  1
  N  N65  1  0.46210436  0.75445141  0.09728307  1
  N  N66  1  0.22004341  0.87175494  0.85094270  1
  N  N67  1  0.09853579  0.75359663  0.60035235  1
  N  N68  1  0.86633580  0.88250551  0.35521885  1
  N  N69  1  0.78140254  0.75914006  0.10276207  1
  N  N70  1  0.57693829  0.86181531  0.85929886  1
  N  N71  1  0.45693628  0.73747385  0.60317304  1
