# generated using pymatgen
data_Sc4Al5N9
_symmetry_space_group_name_H-M   'P 1'
_cell_length_a   10.27730613
_cell_length_b   10.20596938
_cell_length_c   9.80383949
_cell_angle_alpha   89.95077248
_cell_angle_beta   90.08391879
_cell_angle_gamma   60.11462660
_symmetry_Int_Tables_number   1
_chemical_formula_structural   Sc4Al5N9
_chemical_formula_sum   'Sc16 Al20 N36'
_cell_volume   891.57864613
_cell_formula_units_Z   4
loop_
 _symmetry_equiv_pos_site_id
 _symmetry_equiv_pos_as_xyz
  1  'x, y, z'
loop_
 _atom_site_type_symbol
 _atom_site_label
 _atom_site_symmetry_multiplicity
 _atom_site_fract_x
 _atom_site_fract_y
 _atom_site_fract_z
 _atom_site_occupancy
  Sc  Sc0  1  0.10053933  0.10741310  0.32542800  1
  Sc  Sc1  1  0.87149867  0.21084163  0.58203601  1
  Sc  Sc2  1  0.45301205  0.09199617  0.32057852  1
  Sc  Sc3  1  0.09834129  0.10396601  0.84200567  1
  Sc  Sc4  1  0.22747233  0.21153003  0.59363366  1
  Sc  Sc5  1  0.45279512  0.09878625  0.84705964  1
  Sc  Sc6  1  0.10392182  0.43338576  0.32654276  1
  Sc  Sc7  1  0.88462293  0.54254618  0.59096291  1
  Sc  Sc8  1  0.45204475  0.42301688  0.33871847  1
  Sc  Sc9  1  0.09838104  0.76059539  0.33070293  1
  Sc  Sc10  1  0.22455916  0.86891430  0.08776264  1
  Sc  Sc11  1  0.46212672  0.75071347  0.33060091  1
  Sc  Sc12  1  0.10001017  0.75655916  0.83804585  1
  Sc  Sc13  1  0.22159990  0.86793893  0.58197403  1
  Sc  Sc14  1  0.45549167  0.74552781  0.83759431  1
  Sc  Sc15  1  0.56676349  0.87110067  0.58958864  1
  Al  Al16  1  0.21476694  0.21889801  0.06142101  1
  Al  Al17  1  0.76944511  0.09656209  0.82629154  1
  Al  Al18  1  0.56139049  0.21303419  0.06911035  1
  Al  Al19  1  0.77443984  0.09536517  0.31957557  1
  Al  Al20  1  0.87617929  0.21367180  0.07123185  1
  Al  Al21  1  0.56353454  0.20094343  0.57575985  1
  Al  Al22  1  0.22807288  0.52930199  0.06706169  1
  Al  Al23  1  0.76896310  0.42616544  0.83058946  1
  Al  Al24  1  0.56325690  0.52709697  0.07095999  1
  Al  Al25  1  0.11287177  0.43505826  0.82630605  1
  Al  Al26  1  0.22425746  0.53994962  0.57820088  1
  Al  Al27  1  0.77709534  0.42951223  0.31564440  1
  Al  Al28  1  0.88854555  0.53972405  0.06629614  1
  Al  Al29  1  0.45198827  0.42116771  0.81968875  1
  Al  Al30  1  0.56032233  0.53112691  0.57482279  1
  Al  Al31  1  0.78457693  0.76318325  0.82813000  1
  Al  Al32  1  0.88045086  0.87652902  0.57100522  1
  Al  Al33  1  0.57093661  0.86064874  0.06537245  1
  Al  Al34  1  0.77723065  0.76035096  0.31779551  1
  Al  Al35  1  0.87788304  0.87575886  0.07411386  1
  N  N36  1  0.22660324  0.20683539  0.37473009  1
  N  N37  1  0.09752046  0.11788462  0.09802058  1
  N  N38  1  0.86383656  0.21461323  0.87395418  1
  N  N39  1  0.76902412  0.08281433  0.63227002  1
  N  N40  1  0.57655511  0.19356069  0.38154935  1
  N  N41  1  0.44618096  0.09481529  0.09425427  1
  N  N42  1  0.21306610  0.22616716  0.86452461  1
  N  N43  1  0.10270904  0.09990443  0.61841238  1
  N  N44  1  0.86737324  0.21648688  0.36227327  1
  N  N45  1  0.77573563  0.09581617  0.12415165  1
  N  N46  1  0.56684702  0.21792283  0.87772824  1
  N  N47  1  0.45756578  0.10375547  0.62636834  1
  N  N48  1  0.22394298  0.53675513  0.38436810  1
  N  N49  1  0.10917942  0.43112419  0.10697482  1
  N  N50  1  0.89039401  0.54011501  0.86845643  1
  N  N51  1  0.75729024  0.43777794  0.64006876  1
  N  N52  1  0.58060174  0.52341508  0.38077802  1
  N  N53  1  0.44509492  0.42752107  0.11970706  1
  N  N54  1  0.24064982  0.51754967  0.87266919  1
  N  N55  1  0.11672624  0.44402055  0.63020611  1
  N  N56  1  0.86964818  0.54796602  0.36804141  1
  N  N57  1  0.77829756  0.42916937  0.11740515  1
  N  N58  1  0.56397987  0.51446357  0.87967164  1
  N  N59  1  0.44773187  0.42605601  0.61851417  1
  N  N60  1  0.22350743  0.87151586  0.34681990  1
  N  N61  1  0.09852683  0.74909450  0.10396998  1
  N  N62  1  0.86496379  0.88832737  0.88320407  1
  N  N63  1  0.79276051  0.76844328  0.63698038  1
  N  N64  1  0.57660460  0.86469760  0.37099874  1
  N  N65  1  0.46927847  0.74609722  0.10324899  1
  N  N66  1  0.22181238  0.86813910  0.86592450  1
  N  N67  1  0.09687635  0.75736308  0.61010138  1
  N  N68  1  0.86534447  0.88356375  0.37328526  1
  N  N69  1  0.78077711  0.75786624  0.12051806  1
  N  N70  1  0.57876759  0.85775394  0.86914626  1
  N  N71  1  0.45479427  0.74125563  0.61299011  1
