# generated using pymatgen
data_Sc4Al5N9
_symmetry_space_group_name_H-M   'P 1'
_cell_length_a   10.32001127
_cell_length_b   10.23907816
_cell_length_c   9.72040644
_cell_angle_alpha   89.87108686
_cell_angle_beta   90.06827762
_cell_angle_gamma   60.10827775
_symmetry_Int_Tables_number   1
_chemical_formula_structural   Sc4Al5N9
_chemical_formula_sum   'Sc16 Al20 N36'
_cell_volume   890.48428013
_cell_formula_units_Z   4
loop_
 _symmetry_equiv_pos_site_id
 _symmetry_equiv_pos_as_xyz
  1  'x, y, z'
loop_
 _atom_site_type_symbol
 _atom_site_label
 _atom_site_symmetry_multiplicity
 _atom_site_fract_x
 _atom_site_fract_y
 _atom_site_fract_z
 _atom_site_occupancy
  Sc  Sc0  1  0.10062503  0.10690401  0.32748740  1
  Sc  Sc1  1  0.87145541  0.21070992  0.58285182  1
  Sc  Sc2  1  0.45295293  0.09205848  0.32102445  1
  Sc  Sc3  1  0.09809928  0.10421691  0.84273692  1
  Sc  Sc4  1  0.22811577  0.20975219  0.59422067  1
  Sc  Sc5  1  0.45292569  0.09894083  0.84754073  1
  Sc  Sc6  1  0.10131074  0.43163307  0.33032391  1
  Sc  Sc7  1  0.88299678  0.54320654  0.59164977  1
  Sc  Sc8  1  0.45343872  0.42216853  0.34089706  1
  Sc  Sc9  1  0.09717809  0.76285395  0.33639529  1
  Sc  Sc10  1  0.22508305  0.87001860  0.08984194  1
  Sc  Sc11  1  0.46215705  0.75105125  0.33160721  1
  Sc  Sc12  1  0.09948666  0.75801703  0.84829848  1
  Sc  Sc13  1  0.22216373  0.86731686  0.58492740  1
  Sc  Sc14  1  0.45575481  0.74561099  0.83895081  1
  Sc  Sc15  1  0.56686995  0.87113470  0.59047968  1
  Al  Al16  1  0.21449314  0.21911907  0.06177897  1
  Al  Al17  1  0.76982405  0.09617689  0.82664315  1
  Al  Al18  1  0.56199936  0.21308944  0.06942603  1
  Al  Al19  1  0.77418628  0.09538050  0.31994987  1
  Al  Al20  1  0.87628081  0.21360513  0.07218055  1
  Al  Al21  1  0.56460604  0.19933965  0.57561055  1
  Al  Al22  1  0.22574555  0.53271062  0.10467165  1
  Al  Al23  1  0.76929502  0.42581647  0.83104280  1
  Al  Al24  1  0.56393181  0.52670147  0.07139549  1
  Al  Al25  1  0.11130674  0.43450830  0.82865756  1
  Al  Al26  1  0.22724176  0.53890122  0.61999303  1
  Al  Al27  1  0.77662991  0.42994984  0.31567981  1
  Al  Al28  1  0.88840606  0.53963542  0.06633589  1
  Al  Al29  1  0.45512933  0.41995547  0.82273570  1
  Al  Al30  1  0.56102618  0.53162104  0.57455527  1
  Al  Al31  1  0.78419332  0.76379509  0.82865695  1
  Al  Al32  1  0.88018939  0.87611911  0.57142842  1
  Al  Al33  1  0.57105780  0.86051586  0.06592587  1
  Al  Al34  1  0.77675474  0.76044242  0.31804600  1
  Al  Al35  1  0.87637016  0.87727929  0.07537042  1
  N  N36  1  0.22763319  0.20465849  0.37415921  1
  N  N37  1  0.09745137  0.11809201  0.09760060  1
  N  N38  1  0.86402648  0.21427273  0.87295238  1
  N  N39  1  0.76962585  0.08223954  0.63130963  1
  N  N40  1  0.57694803  0.19264644  0.38048653  1
  N  N41  1  0.44613648  0.09499724  0.09352775  1
  N  N42  1  0.21331528  0.22576795  0.86276090  1
  N  N43  1  0.10236001  0.09944943  0.61703290  1
  N  N44  1  0.86710481  0.21664660  0.36127015  1
  N  N45  1  0.77554650  0.09618374  0.12334747  1
  N  N46  1  0.56769216  0.21695633  0.87641347  1
  N  N47  1  0.45782428  0.10362813  0.62537223  1
  N  N48  1  0.22389156  0.53604231  0.33563566  1
  N  N49  1  0.10732670  0.43080541  0.10359793  1
  N  N50  1  0.89009146  0.54022957  0.86664796  1
  N  N51  1  0.75724296  0.43731238  0.63911388  1
  N  N52  1  0.58069883  0.52407121  0.37941531  1
  N  N53  1  0.44860178  0.42599836  0.11635700  1
  N  N54  1  0.24028330  0.51970185  0.84865595  1
  N  N55  1  0.11525337  0.44235524  0.62296993  1
  N  N56  1  0.86719074  0.54913712  0.36754447  1
  N  N57  1  0.77861675  0.42915605  0.11596921  1
  N  N58  1  0.56504226  0.51459576  0.87840860  1
  N  N59  1  0.44909814  0.42541983  0.61502075  1
  N  N60  1  0.22425889  0.87166285  0.34687264  1
  N  N61  1  0.09649772  0.75409843  0.09995474  1
  N  N62  1  0.86357766  0.88896528  0.88264567  1
  N  N63  1  0.79246787  0.76866751  0.63618044  1
  N  N64  1  0.57644221  0.86484260  0.37004573  1
  N  N65  1  0.46956749  0.74590425  0.10224309  1
  N  N66  1  0.22235563  0.86890676  0.86450144  1
  N  N67  1  0.09821279  0.75479770  0.60575222  1
  N  N68  1  0.86385485  0.88403237  0.37227100  1
  N  N69  1  0.78077151  0.75782004  0.11932264  1
  N  N70  1  0.57854125  0.85804678  0.86789683  1
  N  N71  1  0.45512496  0.74114368  0.61232394  1
