# generated using pymatgen
data_Sc4Al5N9
_symmetry_space_group_name_H-M   'P 1'
_cell_length_a   10.61240953
_cell_length_b   10.50260038
_cell_length_c   8.95083865
_cell_angle_alpha   89.88478083
_cell_angle_beta   90.05728175
_cell_angle_gamma   59.97816034
_symmetry_Int_Tables_number   1
_chemical_formula_structural   Sc4Al5N9
_chemical_formula_sum   'Sc16 Al20 N36'
_cell_volume   863.78874470
_cell_formula_units_Z   4
loop_
 _symmetry_equiv_pos_site_id
 _symmetry_equiv_pos_as_xyz
  1  'x, y, z'
loop_
 _atom_site_type_symbol
 _atom_site_label
 _atom_site_symmetry_multiplicity
 _atom_site_fract_x
 _atom_site_fract_y
 _atom_site_fract_z
 _atom_site_occupancy
  Sc  Sc0  1  0.10070165  0.10489384  0.34565851  1
  Sc  Sc1  1  0.86800166  0.21332151  0.59625561  1
  Sc  Sc2  1  0.45648866  0.09186086  0.34343902  1
  Sc  Sc3  1  0.09913299  0.10754206  0.85168782  1
  Sc  Sc4  1  0.22649491  0.21402099  0.60060626  1
  Sc  Sc5  1  0.45084297  0.09841868  0.85632366  1
  Sc  Sc6  1  0.10484636  0.43761024  0.34144715  1
  Sc  Sc7  1  0.88564035  0.54093504  0.60404781  1
  Sc  Sc8  1  0.45247520  0.42537313  0.35154810  1
  Sc  Sc9  1  0.09597808  0.76131993  0.35078262  1
  Sc  Sc10  1  0.22236646  0.87105070  0.10093938  1
  Sc  Sc11  1  0.46037067  0.74672882  0.34753756  1
  Sc  Sc12  1  0.10184344  0.75716002  0.85468161  1
  Sc  Sc13  1  0.22179436  0.86773328  0.59948505  1
  Sc  Sc14  1  0.45315133  0.75354047  0.85390366  1
  Sc  Sc15  1  0.57188483  0.86603650  0.59952355  1
  Al  Al16  1  0.22025339  0.21196288  0.09859438  1
  Al  Al17  1  0.77269422  0.10010015  0.87662606  1
  Al  Al18  1  0.56201413  0.20723137  0.10817583  1
  Al  Al19  1  0.77285088  0.09059292  0.35022475  1
  Al  Al20  1  0.88050015  0.21003850  0.09832744  1
  Al  Al21  1  0.56317889  0.20557969  0.62203785  1
  Al  Al22  1  0.22582611  0.53458871  0.10306469  1
  Al  Al23  1  0.77406282  0.42440274  0.85412271  1
  Al  Al24  1  0.56222286  0.53058316  0.09463847  1
  Al  Al25  1  0.11231375  0.43069416  0.86457776  1
  Al  Al26  1  0.22770075  0.53393857  0.62433916  1
  Al  Al27  1  0.77646439  0.43035389  0.31392137  1
  Al  Al28  1  0.88874829  0.53827763  0.08290952  1
  Al  Al29  1  0.44890317  0.42062911  0.86714301  1
  Al  Al30  1  0.55497713  0.52956024  0.63266354  1
  Al  Al31  1  0.78230828  0.76164916  0.85347581  1
  Al  Al32  1  0.87894012  0.87910614  0.62339670  1
  Al  Al33  1  0.56513045  0.86590287  0.08989626  1
  Al  Al34  1  0.77915386  0.75890221  0.31673957  1
  Al  Al35  1  0.88076720  0.87623965  0.10028287  1
  N  N36  1  0.22572584  0.20810060  0.33858273  1
  N  N37  1  0.09843422  0.11426971  0.09807612  1
  N  N38  1  0.86864910  0.21135924  0.85615719  1
  N  N39  1  0.76706143  0.08398256  0.57846035  1
  N  N40  1  0.57277701  0.20004323  0.32450613  1
  N  N41  1  0.44840550  0.09232701  0.09665719  1
  N  N42  1  0.21733544  0.22225842  0.85579993  1
  N  N43  1  0.10170454  0.10421156  0.59849917  1
  N  N44  1  0.86622368  0.21796801  0.33614634  1
  N  N45  1  0.77789012  0.09589404  0.09321924  1
  N  N46  1  0.56894336  0.21251268  0.84562741  1
  N  N47  1  0.45797392  0.10325751  0.60069868  1
  N  N48  1  0.22766153  0.53801903  0.32395009  1
  N  N49  1  0.10957469  0.43135494  0.08876866  1
  N  N50  1  0.89433312  0.53747722  0.86030930  1
  N  N51  1  0.75609919  0.44015339  0.62537401  1
  N  N52  1  0.57746407  0.52308558  0.31753004  1
  N  N53  1  0.44442192  0.42484667  0.08655521  1
  N  N54  1  0.23577731  0.51918825  0.84797292  1
  N  N55  1  0.11656126  0.44256900  0.59498806  1
  N  N56  1  0.87003769  0.54665749  0.33718364  1
  N  N57  1  0.78219170  0.42677854  0.08680502  1
  N  N58  1  0.56087988  0.51993505  0.86004310  1
  N  N59  1  0.44647960  0.42688780  0.60445500  1
  N  N60  1  0.22214243  0.86988179  0.34800946  1
  N  N61  1  0.09846151  0.75506935  0.09499467  1
  N  N62  1  0.86792438  0.88993672  0.85325348  1
  N  N63  1  0.79267738  0.76482161  0.62241177  1
  N  N64  1  0.57829946  0.85940715  0.34505452  1
  N  N65  1  0.46134323  0.75373958  0.09681842  1
  N  N66  1  0.22037613  0.87209389  0.85124271  1
  N  N67  1  0.09720850  0.75442908  0.60321577  1
  N  N68  1  0.86646278  0.87960150  0.32418491  1
  N  N69  1  0.78050725  0.75789354  0.09079584  1
  N  N70  1  0.57425956  0.86343842  0.85763354  1
  N  N71  1  0.45680800  0.73816735  0.60210711  1
