# generated using pymatgen
data_Sc4Al5N9
_symmetry_space_group_name_H-M   'P 1'
_cell_length_a   10.14486427
_cell_length_b   10.08774315
_cell_length_c   10.11641879
_cell_angle_alpha   89.85226377
_cell_angle_beta   89.75084028
_cell_angle_gamma   60.22133283
_symmetry_Int_Tables_number   1
_chemical_formula_structural   Sc4Al5N9
_chemical_formula_sum   'Sc16 Al20 N36'
_cell_volume   898.58222263
_cell_formula_units_Z   4
loop_
 _symmetry_equiv_pos_site_id
 _symmetry_equiv_pos_as_xyz
  1  'x, y, z'
loop_
 _atom_site_type_symbol
 _atom_site_label
 _atom_site_symmetry_multiplicity
 _atom_site_fract_x
 _atom_site_fract_y
 _atom_site_fract_z
 _atom_site_occupancy
  Sc  Sc0  1  0.10175449  0.10055001  0.38149822  1
  Sc  Sc1  1  0.87399837  0.21081559  0.63946624  1
  Sc  Sc2  1  0.45551315  0.09378510  0.38449321  1
  Sc  Sc3  1  0.09714130  0.11044888  0.90663010  1
  Sc  Sc4  1  0.22414580  0.21700280  0.64556724  1
  Sc  Sc5  1  0.45035133  0.09544769  0.90026206  1
  Sc  Sc6  1  0.10446925  0.43752481  0.37975363  1
  Sc  Sc7  1  0.89093699  0.54210961  0.64769228  1
  Sc  Sc8  1  0.45031834  0.42386929  0.39503991  1
  Sc  Sc9  1  0.09848078  0.75949474  0.40507391  1
  Sc  Sc10  1  0.22136384  0.86572457  0.13941450  1
  Sc  Sc11  1  0.45550418  0.74867886  0.38880918  1
  Sc  Sc12  1  0.10021279  0.75609487  0.88475202  1
  Sc  Sc13  1  0.22387748  0.87117716  0.65011986  1
  Sc  Sc14  1  0.46040895  0.74836936  0.89814491  1
  Sc  Sc15  1  0.56859165  0.86868448  0.63970116  1
  Al  Al16  1  0.22152686  0.21055319  0.15193430  1
  Al  Al17  1  0.77217615  0.09999159  0.90317354  1
  Al  Al18  1  0.56339895  0.20532828  0.14701021  1
  Al  Al19  1  0.77293210  0.09210300  0.39628876  1
  Al  Al20  1  0.87510531  0.21381459  0.15578289  1
  Al  Al21  1  0.56002206  0.20809995  0.65623539  1
  Al  Al22  1  0.22258856  0.53800938  0.14197010  1
  Al  Al23  1  0.77702057  0.42429653  0.90584848  1
  Al  Al24  1  0.56613623  0.52903369  0.14733578  1
  Al  Al25  1  0.11067923  0.43033446  0.91280990  1
  Al  Al26  1  0.23111933  0.53069965  0.66190918  1
  Al  Al27  1  0.77063589  0.43251334  0.39535606  1
  Al  Al28  1  0.88108586  0.54191359  0.14608942  1
  Al  Al29  1  0.45323679  0.41979717  0.90101673  1
  Al  Al30  1  0.55799164  0.52954136  0.65643724  1
  Al  Al31  1  0.77994117  0.76162475  0.90838919  1
  Al  Al32  1  0.87748155  0.87804018  0.65463789  1
  Al  Al33  1  0.56804102  0.86476705  0.15518861  1
  Al  Al34  1  0.78178387  0.76151075  0.39209796  1
  Al  Al35  1  0.88205195  0.87387073  0.14831622  1
  N  N36  1  0.22565164  0.20787243  0.33960393  1
  N  N37  1  0.09595054  0.11464453  0.12165050  1
  N  N38  1  0.86849579  0.21558977  0.85075832  1
  N  N39  1  0.76626660  0.08458060  0.58720065  1
  N  N40  1  0.57613576  0.20002321  0.33101118  1
  N  N41  1  0.44809617  0.09175870  0.11522838  1
  N  N42  1  0.21411828  0.22514106  0.85765847  1
  N  N43  1  0.10654800  0.10178594  0.59671215  1
  N  N44  1  0.86344610  0.21714770  0.34750688  1
  N  N45  1  0.77915203  0.09418338  0.09303150  1
  N  N46  1  0.56700878  0.21222454  0.84630476  1
  N  N47  1  0.45589892  0.10544579  0.60266998  1
  N  N48  1  0.22688374  0.54267994  0.32734074  1
  N  N49  1  0.10877547  0.42952272  0.10557731  1
  N  N50  1  0.89189928  0.53989267  0.86367870  1
  N  N51  1  0.75770671  0.44245017  0.58428980  1
  N  N52  1  0.57414333  0.52333279  0.33135530  1
  N  N53  1  0.44751735  0.42620845  0.09358140  1
  N  N54  1  0.23787532  0.51362446  0.85223676  1
  N  N55  1  0.11972694  0.44485491  0.58947842  1
  N  N56  1  0.86730372  0.54860594  0.33752333  1
  N  N57  1  0.77885949  0.42565279  0.09459957  1
  N  N58  1  0.57028239  0.51522833  0.84637149  1
  N  N59  1  0.44637453  0.42688484  0.60962441  1
  N  N60  1  0.22065808  0.86557360  0.35266240  1
  N  N61  1  0.09489440  0.75255662  0.09752368  1
  N  N62  1  0.86101656  0.88847663  0.84393578  1
  N  N63  1  0.79525911  0.76541273  0.57937125  1
  N  N64  1  0.57692032  0.86054624  0.34523217  1
  N  N65  1  0.46693818  0.74871052  0.11248595  1
  N  N66  1  0.22323998  0.87452798  0.86799408  1
  N  N67  1  0.10102523  0.75320535  0.62808777  1
  N  N68  1  0.87097244  0.88281176  0.33566900  1
  N  N69  1  0.77852648  0.76150909  0.09726589  1
  N  N70  1  0.57838290  0.86115416  0.84863935  1
  N  N71  1  0.45625489  0.73958967  0.60724619  1
