# generated using pymatgen
data_Sc4Al5N9
_symmetry_space_group_name_H-M   'P 1'
_cell_length_a   10.14515238
_cell_length_b   10.09768452
_cell_length_c   10.12986223
_cell_angle_alpha   89.95396403
_cell_angle_beta   90.08143440
_cell_angle_gamma   60.12464146
_symmetry_Int_Tables_number   1
_chemical_formula_structural   Sc4Al5N9
_chemical_formula_sum   'Sc16 Al20 N36'
_cell_volume   899.82392551
_cell_formula_units_Z   4
loop_
 _symmetry_equiv_pos_site_id
 _symmetry_equiv_pos_as_xyz
  1  'x, y, z'
loop_
 _atom_site_type_symbol
 _atom_site_label
 _atom_site_symmetry_multiplicity
 _atom_site_fract_x
 _atom_site_fract_y
 _atom_site_fract_z
 _atom_site_occupancy
  Sc  Sc0  1  0.10120457  0.10727218  0.30747602  1
  Sc  Sc1  1  0.87294225  0.21084969  0.56824284  1
  Sc  Sc2  1  0.45313878  0.09288514  0.30602365  1
  Sc  Sc3  1  0.09860851  0.10310898  0.83063342  1
  Sc  Sc4  1  0.22690025  0.21238260  0.57992474  1
  Sc  Sc5  1  0.45226252  0.09762186  0.83625256  1
  Sc  Sc6  1  0.10536012  0.43316644  0.31178580  1
  Sc  Sc7  1  0.88517976  0.54329816  0.57633547  1
  Sc  Sc8  1  0.45213566  0.42321340  0.32545992  1
  Sc  Sc9  1  0.09862671  0.75956720  0.31753885  1
  Sc  Sc10  1  0.22426691  0.86730138  0.07374510  1
  Sc  Sc11  1  0.46281102  0.74956784  0.31545473  1
  Sc  Sc12  1  0.10049386  0.75654120  0.82184941  1
  Sc  Sc13  1  0.22143256  0.86930308  0.56409720  1
  Sc  Sc14  1  0.45481519  0.74643296  0.82358678  1
  Sc  Sc15  1  0.56545430  0.87276122  0.57402513  1
  Al  Al16  1  0.21527613  0.21815357  0.05019258  1
  Al  Al17  1  0.76974846  0.09740727  0.81636078  1
  Al  Al18  1  0.56095115  0.21181445  0.05766567  1
  Al  Al19  1  0.77429495  0.09500963  0.31074961  1
  Al  Al20  1  0.87576303  0.21386556  0.06067011  1
  Al  Al21  1  0.56200166  0.20276835  0.56765995  1
  Al  Al22  1  0.22691843  0.52985153  0.05471040  1
  Al  Al23  1  0.77048920  0.42665168  0.81976188  1
  Al  Al24  1  0.56344631  0.52751821  0.05914101  1
  Al  Al25  1  0.11169342  0.43458539  0.81705146  1
  Al  Al26  1  0.22455923  0.53957074  0.56937751  1
  Al  Al27  1  0.77676456  0.42917552  0.30645739  1
  Al  Al28  1  0.88806951  0.53983807  0.05721594  1
  Al  Al29  1  0.45185683  0.42128221  0.81129576  1
  Al  Al30  1  0.55961069  0.53150425  0.56636072  1
  Al  Al31  1  0.78351830  0.76223740  0.81811150  1
  Al  Al32  1  0.88073030  0.87676642  0.56283473  1
  Al  Al33  1  0.57043402  0.86078388  0.05561001  1
  Al  Al34  1  0.77753711  0.76131859  0.30757018  1
  Al  Al35  1  0.87874334  0.87462463  0.06226350  1
  N  N36  1  0.22666732  0.20673660  0.36857903  1
  N  N37  1  0.09788245  0.11695784  0.09116601  1
  N  N38  1  0.86335254  0.21569150  0.87097742  1
  N  N39  1  0.76946338  0.08415835  0.62763817  1
  N  N40  1  0.57560839  0.19403595  0.37879774  1
  N  N41  1  0.44585662  0.09470695  0.08683497  1
  N  N42  1  0.21214053  0.22644091  0.86187299  1
  N  N43  1  0.10361906  0.09934190  0.61687318  1
  N  N44  1  0.86889370  0.21551411  0.35589269  1
  N  N45  1  0.77547235  0.09468148  0.11964281  1
  N  N46  1  0.56673189  0.21769885  0.87254898  1
  N  N47  1  0.45702857  0.10404060  0.62375171  1
  N  N48  1  0.22401098  0.53612605  0.38252360  1
  N  N49  1  0.10972269  0.43027552  0.10052643  1
  N  N50  1  0.88944828  0.54011288  0.86522389  1
  N  N51  1  0.75863681  0.43747167  0.63466637  1
  N  N52  1  0.58043272  0.52348455  0.37849723  1
  N  N53  1  0.44470252  0.42737084  0.11255605  1
  N  N54  1  0.23951191  0.51821807  0.86740351  1
  N  N55  1  0.11649873  0.44422710  0.62861042  1
  N  N56  1  0.87081240  0.54803538  0.36092890  1
  N  N57  1  0.77763513  0.42902593  0.11403283  1
  N  N58  1  0.56452588  0.51530201  0.87386525  1
  N  N59  1  0.44733509  0.42649779  0.61612483  1
  N  N60  1  0.22347852  0.87172098  0.34212412  1
  N  N61  1  0.09822177  0.74750356  0.10075336  1
  N  N62  1  0.86540766  0.88773963  0.87682185  1
  N  N63  1  0.79135702  0.76897008  0.63263075  1
  N  N64  1  0.57539635  0.86603463  0.36357690  1
  N  N65  1  0.46947973  0.74539848  0.09891802  1
  N  N66  1  0.22177487  0.86712504  0.86429410  1
  N  N67  1  0.09788475  0.75781570  0.60506929  1
  N  N68  1  0.86586298  0.88351932  0.37076991  1
  N  N69  1  0.78070334  0.75844491  0.11606963  1
  N  N70  1  0.57877013  0.85664703  0.86761573  1
  N  N71  1  0.45419084  0.74256633  0.60874084  1
