# generated using pymatgen
data_Sc4Al5N9
_symmetry_space_group_name_H-M   'P 1'
_cell_length_a   10.60282629
_cell_length_b   10.47673225
_cell_length_c   8.99069379
_cell_angle_alpha   89.98578737
_cell_angle_beta   90.28282074
_cell_angle_gamma   60.01031109
_symmetry_Int_Tables_number   1
_chemical_formula_structural   Sc4Al5N9
_chemical_formula_sum   'Sc16 Al20 N36'
_cell_volume   864.98588034
_cell_formula_units_Z   4
loop_
 _symmetry_equiv_pos_site_id
 _symmetry_equiv_pos_as_xyz
  1  'x, y, z'
loop_
 _atom_site_type_symbol
 _atom_site_label
 _atom_site_symmetry_multiplicity
 _atom_site_fract_x
 _atom_site_fract_y
 _atom_site_fract_z
 _atom_site_occupancy
  Sc  Sc0  1  0.09997105  0.10514687  0.34454454  1
  Sc  Sc1  1  0.86779426  0.21410906  0.59476088  1
  Sc  Sc2  1  0.45579250  0.09085504  0.34062843  1
  Sc  Sc3  1  0.09921176  0.10721485  0.85055019  1
  Sc  Sc4  1  0.22619724  0.21380127  0.60033679  1
  Sc  Sc5  1  0.45188793  0.09937223  0.85308861  1
  Sc  Sc6  1  0.10441470  0.43752894  0.34229849  1
  Sc  Sc7  1  0.88565865  0.53983942  0.60450602  1
  Sc  Sc8  1  0.45225783  0.42746037  0.34764187  1
  Sc  Sc9  1  0.10015231  0.76001235  0.34691311  1
  Sc  Sc10  1  0.22267387  0.87121750  0.09953303  1
  Sc  Sc11  1  0.46146699  0.74691042  0.34762452  1
  Sc  Sc12  1  0.09647284  0.76032735  0.85090599  1
  Sc  Sc13  1  0.22221145  0.86713549  0.59898819  1
  Sc  Sc14  1  0.45295699  0.75393002  0.85442806  1
  Sc  Sc15  1  0.57119778  0.86564800  0.60037176  1
  Al  Al16  1  0.21952047  0.21251169  0.09720837  1
  Al  Al17  1  0.77024999  0.09507157  0.83830994  1
  Al  Al18  1  0.56332632  0.20632506  0.08738603  1
  Al  Al19  1  0.77508692  0.09529614  0.32499125  1
  Al  Al20  1  0.87988385  0.20813229  0.08579209  1
  Al  Al21  1  0.56254076  0.20404194  0.58463293  1
  Al  Al22  1  0.22457228  0.53533150  0.10272951  1
  Al  Al23  1  0.77299100  0.42426518  0.85504880  1
  Al  Al24  1  0.56215700  0.53141930  0.09461865  1
  Al  Al25  1  0.11185712  0.43160210  0.86540861  1
  Al  Al26  1  0.22823578  0.53388526  0.62540282  1
  Al  Al27  1  0.77808199  0.42926341  0.31091913  1
  Al  Al28  1  0.88856735  0.54072511  0.08173808  1
  Al  Al29  1  0.44824464  0.41986952  0.86613260  1
  Al  Al30  1  0.55435923  0.52874911  0.63560594  1
  Al  Al31  1  0.78457219  0.76348179  0.84484031  1
  Al  Al32  1  0.87855653  0.87632818  0.57833725  1
  Al  Al33  1  0.56780698  0.86540689  0.08675143  1
  Al  Al34  1  0.77859751  0.75875233  0.32088566  1
  Al  Al35  1  0.87915167  0.87719671  0.08623000  1
  N  N36  1  0.22552670  0.20779753  0.33930433  1
  N  N37  1  0.09774899  0.11428786  0.09767712  1
  N  N38  1  0.86783148  0.20945231  0.86167499  1
  N  N39  1  0.76781607  0.08397825  0.61784026  1
  N  N40  1  0.57587171  0.19867150  0.35885594  1
  N  N41  1  0.45081971  0.09213221  0.09817786  1
  N  N42  1  0.21731828  0.22255178  0.85748193  1
  N  N43  1  0.10141367  0.10412301  0.59928718  1
  N  N44  1  0.86611771  0.21870517  0.34371680  1
  N  N45  1  0.77743023  0.09442313  0.11058717  1
  N  N46  1  0.56708439  0.21262391  0.86766383  1
  N  N47  1  0.45662948  0.10233324  0.60236192  1
  N  N48  1  0.22775137  0.53705784  0.32356131  1
  N  N49  1  0.10861094  0.43193195  0.08977007  1
  N  N50  1  0.89375097  0.54069184  0.86187863  1
  N  N51  1  0.75567078  0.43994629  0.63200330  1
  N  N52  1  0.57910569  0.52310503  0.31649140  1
  N  N53  1  0.44421477  0.42528115  0.09101589  1
  N  N54  1  0.23458411  0.52093176  0.85017330  1
  N  N55  1  0.11662987  0.44256564  0.59612782  1
  N  N56  1  0.87022044  0.54562410  0.34331466  1
  N  N57  1  0.78324531  0.42663887  0.08728102  1
  N  N58  1  0.55948212  0.52019937  0.86266001  1
  N  N59  1  0.44596705  0.42635558  0.60667801  1
  N  N60  1  0.22375366  0.87000361  0.34727073  1
  N  N61  1  0.09623406  0.75698785  0.09712237  1
  N  N62  1  0.86682760  0.88733359  0.87212451  1
  N  N63  1  0.79332561  0.76509491  0.62475148  1
  N  N64  1  0.57824231  0.85981436  0.35167281  1
  N  N65  1  0.46219167  0.75491282  0.09704488  1
  N  N66  1  0.21987324  0.87175576  0.85116681  1
  N  N67  1  0.09866061  0.75332234  0.60081087  1
  N  N68  1  0.86615278  0.88211969  0.35668683  1
  N  N69  1  0.78127532  0.75920021  0.10350909  1
  N  N70  1  0.57690575  0.86211506  0.85952258  1
  N  N71  1  0.45688896  0.73731833  0.60345346  1
