# generated using pymatgen
data_Sc4Al5N9
_symmetry_space_group_name_H-M   'P 1'
_cell_length_a   10.52254017
_cell_length_b   10.41036973
_cell_length_c   9.16955230
_cell_angle_alpha   89.98362440
_cell_angle_beta   90.11545095
_cell_angle_gamma   60.10313997
_symmetry_Int_Tables_number   1
_chemical_formula_structural   Sc4Al5N9
_chemical_formula_sum   'Sc16 Al20 N36'
_cell_volume   870.79228968
_cell_formula_units_Z   4
loop_
 _symmetry_equiv_pos_site_id
 _symmetry_equiv_pos_as_xyz
  1  'x, y, z'
loop_
 _atom_site_type_symbol
 _atom_site_label
 _atom_site_symmetry_multiplicity
 _atom_site_fract_x
 _atom_site_fract_y
 _atom_site_fract_z
 _atom_site_occupancy
  Sc  Sc0  1  0.09871602  0.10559508  0.34445561  1
  Sc  Sc1  1  0.86910600  0.21252232  0.59483312  1
  Sc  Sc2  1  0.45728476  0.08958938  0.33873567  1
  Sc  Sc3  1  0.09923860  0.10746449  0.85147216  1
  Sc  Sc4  1  0.22608364  0.21471264  0.60063370  1
  Sc  Sc5  1  0.45054630  0.09952811  0.85267214  1
  Sc  Sc6  1  0.10319954  0.43797441  0.34307433  1
  Sc  Sc7  1  0.88785887  0.54018455  0.60407626  1
  Sc  Sc8  1  0.45078273  0.42424687  0.34579878  1
  Sc  Sc9  1  0.09970644  0.76115265  0.34689787  1
  Sc  Sc10  1  0.22368616  0.87092137  0.09856314  1
  Sc  Sc11  1  0.46004234  0.75112868  0.34467886  1
  Sc  Sc12  1  0.09651048  0.76051316  0.85267023  1
  Sc  Sc13  1  0.22200989  0.86784668  0.59889706  1
  Sc  Sc14  1  0.45557458  0.74664529  0.84743928  1
  Sc  Sc15  1  0.57113219  0.86669368  0.60063837  1
  Al  Al16  1  0.21988416  0.21153049  0.10045570  1
  Al  Al17  1  0.77013816  0.09473983  0.83521422  1
  Al  Al18  1  0.56313091  0.20953075  0.07914061  1
  Al  Al19  1  0.77441380  0.09608688  0.32499825  1
  Al  Al20  1  0.87724478  0.21091310  0.08305433  1
  Al  Al21  1  0.56365561  0.20209318  0.58289089  1
  Al  Al22  1  0.22672635  0.53569434  0.10606534  1
  Al  Al23  1  0.76907353  0.42610086  0.84431130  1
  Al  Al24  1  0.56226783  0.52835196  0.08029086  1
  Al  Al25  1  0.11178011  0.43117668  0.87504527  1
  Al  Al26  1  0.22651576  0.53517963  0.62868861  1
  Al  Al27  1  0.77622420  0.42944491  0.31866449  1
  Al  Al28  1  0.88466417  0.54082186  0.08234133  1
  Al  Al29  1  0.45275066  0.42060101  0.84168809  1
  Al  Al30  1  0.56065969  0.53040458  0.58333513  1
  Al  Al31  1  0.78484794  0.76324185  0.84233327  1
  Al  Al32  1  0.87931747  0.87573839  0.57645476  1
  Al  Al33  1  0.56873716  0.86312899  0.07826161  1
  Al  Al34  1  0.77764925  0.75902923  0.32079717  1
  Al  Al35  1  0.87794574  0.87810563  0.08579886  1
  N  N36  1  0.22630390  0.20706699  0.33972969  1
  N  N37  1  0.09613263  0.11540693  0.09881409  1
  N  N38  1  0.86609756  0.21206853  0.86582424  1
  N  N39  1  0.76888557  0.08201815  0.62444039  1
  N  N40  1  0.57692804  0.19681993  0.37067240  1
  N  N41  1  0.45119273  0.09147765  0.09816129  1
  N  N42  1  0.21626765  0.22374112  0.85749323  1
  N  N43  1  0.10196488  0.10375530  0.60210693  1
  N  N44  1  0.86550743  0.21785757  0.35340350  1
  N  N45  1  0.77561428  0.09637708  0.11636490  1
  N  N46  1  0.56664890  0.21388214  0.86987051  1
  N  N47  1  0.45598385  0.10260226  0.60764907  1
  N  N48  1  0.22621604  0.53859612  0.32111204  1
  N  N49  1  0.10815035  0.43170031  0.09208706  1
  N  N50  1  0.89189273  0.53902083  0.86644227  1
  N  N51  1  0.75792319  0.43927234  0.63536211  1
  N  N52  1  0.57962498  0.52267129  0.36882578  1
  N  N53  1  0.44872004  0.42524140  0.10239787  1
  N  N54  1  0.23561670  0.52002461  0.85048849  1
  N  N55  1  0.11767022  0.44315999  0.58992100  1
  N  N56  1  0.86868985  0.54717466  0.35129352  1
  N  N57  1  0.77717568  0.42833369  0.10465197  1
  N  N58  1  0.56301693  0.51729138  0.87243217  1
  N  N59  1  0.44636891  0.42676440  0.61307641  1
  N  N60  1  0.22342750  0.87113122  0.34708733  1
  N  N61  1  0.09632547  0.75767819  0.09799428  1
  N  N62  1  0.86552431  0.88824235  0.87883269  1
  N  N63  1  0.79483705  0.76534811  0.63211036  1
  N  N64  1  0.57883945  0.86048822  0.36181586  1
  N  N65  1  0.46689882  0.74777790  0.10063121  1
  N  N66  1  0.22111587  0.87107763  0.85354846  1
  N  N67  1  0.09856923  0.75356066  0.60275544  1
  N  N68  1  0.86535705  0.88267847  0.36159626  1
  N  N69  1  0.78013324  0.75900586  0.10939366  1
  N  N70  1  0.57673232  0.86022852  0.86198946  1
  N  N71  1  0.45516619  0.74133469  0.60462781  1
