# generated using pymatgen
data_Sc4Al5N9
_symmetry_space_group_name_H-M   'P 1'
_cell_length_a   10.14525256
_cell_length_b   10.09779326
_cell_length_c   10.12962715
_cell_angle_alpha   89.95420091
_cell_angle_beta   90.08155031
_cell_angle_gamma   60.12460613
_symmetry_Int_Tables_number   1
_chemical_formula_structural   Sc4Al5N9
_chemical_formula_sum   'Sc16 Al20 N36'
_cell_volume   899.82130280
_cell_formula_units_Z   4
loop_
 _symmetry_equiv_pos_site_id
 _symmetry_equiv_pos_as_xyz
  1  'x, y, z'
loop_
 _atom_site_type_symbol
 _atom_site_label
 _atom_site_symmetry_multiplicity
 _atom_site_fract_x
 _atom_site_fract_y
 _atom_site_fract_z
 _atom_site_occupancy
  Sc  Sc0  1  0.10121223  0.10727483  0.30904075  1
  Sc  Sc1  1  0.87295068  0.21084840  0.56980441  1
  Sc  Sc2  1  0.45315101  0.09287836  0.30758506  1
  Sc  Sc3  1  0.09861896  0.10310997  0.83219075  1
  Sc  Sc4  1  0.22691211  0.21237798  0.58148645  1
  Sc  Sc5  1  0.45227378  0.09762175  0.83781206  1
  Sc  Sc6  1  0.10537088  0.43316496  0.31334935  1
  Sc  Sc7  1  0.88518811  0.54329415  0.57789194  1
  Sc  Sc8  1  0.45214106  0.42321380  0.32702238  1
  Sc  Sc9  1  0.09863270  0.75956793  0.31908375  1
  Sc  Sc10  1  0.22427700  0.86730864  0.07530927  1
  Sc  Sc11  1  0.46281947  0.74956731  0.31701422  1
  Sc  Sc12  1  0.10050328  0.75654329  0.82342368  1
  Sc  Sc13  1  0.22143712  0.86929812  0.56565602  1
  Sc  Sc14  1  0.45482104  0.74643167  0.82514917  1
  Sc  Sc15  1  0.56546123  0.87275518  0.57559312  1
  Al  Al16  1  0.21528579  0.21815635  0.05175091  1
  Al  Al17  1  0.76975734  0.09740700  0.81791589  1
  Al  Al18  1  0.56096196  0.21181633  0.05922583  1
  Al  Al19  1  0.77430548  0.09500977  0.31230659  1
  Al  Al20  1  0.87577357  0.21386719  0.06222634  1
  Al  Al21  1  0.56201231  0.20276347  0.56921366  1
  Al  Al22  1  0.22693130  0.52984881  0.05626652  1
  Al  Al23  1  0.77049725  0.42665191  0.82131875  1
  Al  Al24  1  0.56345551  0.52751756  0.06070005  1
  Al  Al25  1  0.11170370  0.43458545  0.81860481  1
  Al  Al26  1  0.22456331  0.53957453  0.57093657  1
  Al  Al27  1  0.77677271  0.42917509  0.30801347  1
  Al  Al28  1  0.88808089  0.53983853  0.05877367  1
  Al  Al29  1  0.45186737  0.42127998  0.81284887  1
  Al  Al30  1  0.55961786  0.53150232  0.56791650  1
  Al  Al31  1  0.78352959  0.76223563  0.81966571  1
  Al  Al32  1  0.88074145  0.87676245  0.56439232  1
  Al  Al33  1  0.57044558  0.86078235  0.05716284  1
  Al  Al34  1  0.77754606  0.76131698  0.30912942  1
  Al  Al35  1  0.87874765  0.87462918  0.06381890  1
  N  N36  1  0.22668107  0.20673435  0.37013692  1
  N  N37  1  0.09789012  0.11696521  0.09272402  1
  N  N38  1  0.86336247  0.21569102  0.87252825  1
  N  N39  1  0.76947161  0.08415559  0.62919067  1
  N  N40  1  0.57561820  0.19403384  0.38034872  1
  N  N41  1  0.44586878  0.09470544  0.08839005  1
  N  N42  1  0.21215166  0.22644203  0.86342513  1
  N  N43  1  0.10362932  0.09933811  0.61842429  1
  N  N44  1  0.86890043  0.21551603  0.35745048  1
  N  N45  1  0.77548348  0.09468363  0.12119654  1
  N  N46  1  0.56674242  0.21769991  0.87410413  1
  N  N47  1  0.45704124  0.10403678  0.62530670  1
  N  N48  1  0.22401472  0.53613410  0.38407790  1
  N  N49  1  0.10973374  0.43027756  0.10208415  1
  N  N50  1  0.88945987  0.54011239  0.86677730  1
  N  N51  1  0.75864259  0.43747218  0.63622023  1
  N  N52  1  0.58044037  0.52348416  0.38004922  1
  N  N53  1  0.44471177  0.42737190  0.11411351  1
  N  N54  1  0.23952477  0.51821410  0.86895534  1
  N  N55  1  0.11650717  0.44422430  0.63015964  1
  N  N56  1  0.87082150  0.54803316  0.36248176  1
  N  N57  1  0.77764451  0.42902687  0.11558539  1
  N  N58  1  0.56453479  0.51529905  0.87541993  1
  N  N59  1  0.44734387  0.42649379  0.61767454  1
  N  N60  1  0.22348481  0.87172028  0.34366996  1
  N  N61  1  0.09823056  0.74750662  0.10229283  1
  N  N62  1  0.86541095  0.88774270  0.87837425  1
  N  N63  1  0.79136744  0.76896602  0.63418178  1
  N  N64  1  0.57540789  0.86602900  0.36514048  1
  N  N65  1  0.46949138  0.74539888  0.10047036  1
  N  N66  1  0.22178330  0.86713047  0.86585398  1
  N  N67  1  0.09789045  0.75781423  0.60663712  1
  N  N68  1  0.86587336  0.88351844  0.37232274  1
  N  N69  1  0.78071191  0.75844636  0.11762423  1
  N  N70  1  0.57877978  0.85664539  0.86916279  1
  N  N71  1  0.45419356  0.74256205  0.61029772  1
