# generated using pymatgen
data_Sc4Al5N9
_symmetry_space_group_name_H-M   'P 1'
_cell_length_a   10.16033625
_cell_length_b   10.10052752
_cell_length_c   10.07801196
_cell_angle_alpha   89.86172746
_cell_angle_beta   89.76329864
_cell_angle_gamma   60.22298160
_symmetry_Int_Tables_number   1
_chemical_formula_structural   Sc4Al5N9
_chemical_formula_sum   'Sc16 Al20 N36'
_cell_volume   897.68782845
_cell_formula_units_Z   4
loop_
 _symmetry_equiv_pos_site_id
 _symmetry_equiv_pos_as_xyz
  1  'x, y, z'
loop_
 _atom_site_type_symbol
 _atom_site_label
 _atom_site_symmetry_multiplicity
 _atom_site_fract_x
 _atom_site_fract_y
 _atom_site_fract_z
 _atom_site_occupancy
  Sc  Sc0  1  0.10167252  0.10059354  0.36370008  1
  Sc  Sc1  1  0.87365665  0.21088606  0.62103356  1
  Sc  Sc2  1  0.45550032  0.09383736  0.36641500  1
  Sc  Sc3  1  0.09682562  0.11072808  0.88798157  1
  Sc  Sc4  1  0.22409255  0.21711406  0.62717886  1
  Sc  Sc5  1  0.45023070  0.09529585  0.88203829  1
  Sc  Sc6  1  0.10442140  0.43768108  0.36136762  1
  Sc  Sc7  1  0.89101399  0.54193358  0.62979490  1
  Sc  Sc8  1  0.45038856  0.42381274  0.37691578  1
  Sc  Sc9  1  0.09841999  0.75962451  0.38662682  1
  Sc  Sc10  1  0.22128078  0.86604320  0.12085007  1
  Sc  Sc11  1  0.45528240  0.74860557  0.37072766  1
  Sc  Sc12  1  0.10001168  0.75610182  0.86692735  1
  Sc  Sc13  1  0.22365297  0.87106441  0.63201801  1
  Sc  Sc14  1  0.46033876  0.74844886  0.87975353  1
  Sc  Sc15  1  0.56855914  0.86849546  0.62126590  1
  Al  Al16  1  0.22141622  0.21046887  0.13418298  1
  Al  Al17  1  0.77210664  0.10004200  0.88549752  1
  Al  Al18  1  0.56349847  0.20526848  0.12913493  1
  Al  Al19  1  0.77276439  0.09195633  0.37877526  1
  Al  Al20  1  0.87499426  0.21387704  0.13826910  1
  Al  Al21  1  0.55992283  0.20804631  0.63869934  1
  Al  Al22  1  0.22267319  0.53809469  0.12415294  1
  Al  Al23  1  0.77686549  0.42416224  0.88804327  1
  Al  Al24  1  0.56616728  0.52904857  0.12943836  1
  Al  Al25  1  0.11060859  0.43031480  0.89525442  1
  Al  Al26  1  0.23101314  0.53063536  0.64412644  1
  Al  Al27  1  0.77046181  0.43272825  0.37789737  1
  Al  Al28  1  0.88083804  0.54195402  0.12830039  1
  Al  Al29  1  0.45307990  0.41976953  0.88354220  1
  Al  Al30  1  0.55778517  0.52940918  0.63891780  1
  Al  Al31  1  0.77979656  0.76165236  0.89066003  1
  Al  Al32  1  0.87731709  0.87801795  0.63710321  1
  Al  Al33  1  0.56804943  0.86463115  0.13762273  1
  Al  Al34  1  0.78185589  0.76143059  0.37455302  1
  Al  Al35  1  0.88185506  0.87402131  0.13055838  1
  N  N36  1  0.22559144  0.20781191  0.32283019  1
  N  N37  1  0.09563912  0.11495579  0.10415304  1
  N  N38  1  0.86811142  0.21567382  0.83311971  1
  N  N39  1  0.76597375  0.08446526  0.57018282  1
  N  N40  1  0.57620354  0.19989262  0.31377050  1
  N  N41  1  0.44806083  0.09161115  0.09805302  1
  N  N42  1  0.21404361  0.22530123  0.84028274  1
  N  N43  1  0.10634298  0.10180107  0.58005101  1
  N  N44  1  0.86335786  0.21713772  0.33087973  1
  N  N45  1  0.77918880  0.09427451  0.07587883  1
  N  N46  1  0.56686457  0.21222042  0.82945692  1
  N  N47  1  0.45587722  0.10537014  0.58570801  1
  N  N48  1  0.22703153  0.54262894  0.31014403  1
  N  N49  1  0.10870452  0.42958048  0.08873008  1
  N  N50  1  0.89188409  0.53983742  0.84654611  1
  N  N51  1  0.75735825  0.44270003  0.56739296  1
  N  N52  1  0.57421961  0.52331753  0.31412277  1
  N  N53  1  0.44749450  0.42619718  0.07662512  1
  N  N54  1  0.23774914  0.51368267  0.83526910  1
  N  N55  1  0.11960230  0.44496317  0.57196623  1
  N  N56  1  0.86719492  0.54860849  0.32047520  1
  N  N57  1  0.77883844  0.42557642  0.07738448  1
  N  N58  1  0.57006434  0.51513722  0.82950535  1
  N  N59  1  0.44628444  0.42675734  0.59229003  1
  N  N60  1  0.22058336  0.86584829  0.33540862  1
  N  N61  1  0.09476222  0.75272594  0.08061612  1
  N  N62  1  0.86097164  0.88846887  0.82700188  1
  N  N63  1  0.79531585  0.76526408  0.56241294  1
  N  N64  1  0.57687785  0.86043355  0.32866962  1
  N  N65  1  0.46693116  0.74873786  0.09520843  1
  N  N66  1  0.22301277  0.87449219  0.85127330  1
  N  N67  1  0.10083867  0.75319654  0.61066902  1
  N  N68  1  0.87067788  0.88287625  0.31847542  1
  N  N69  1  0.77838983  0.76153392  0.08015581  1
  N  N70  1  0.57845404  0.86104443  0.83108591  1
  N  N71  1  0.45596369  0.73946185  0.59041108  1
