# generated using pymatgen
data_Sc4Al5N9
_symmetry_space_group_name_H-M   'P 1'
_cell_length_a   10.49270872
_cell_length_b   10.38908249
_cell_length_c   9.22825158
_cell_angle_alpha   89.95559612
_cell_angle_beta   89.97321410
_cell_angle_gamma   60.07837936
_symmetry_Int_Tables_number   1
_chemical_formula_structural   Sc4Al5N9
_chemical_formula_sum   'Sc16 Al20 N36'
_cell_volume   871.88097688
_cell_formula_units_Z   4
loop_
 _symmetry_equiv_pos_site_id
 _symmetry_equiv_pos_as_xyz
  1  'x, y, z'
loop_
 _atom_site_type_symbol
 _atom_site_label
 _atom_site_symmetry_multiplicity
 _atom_site_fract_x
 _atom_site_fract_y
 _atom_site_fract_z
 _atom_site_occupancy
  Sc  Sc0  1  0.10128484  0.10331223  0.35585662  1
  Sc  Sc1  1  0.87010759  0.21110032  0.60716421  1
  Sc  Sc2  1  0.45587017  0.09466756  0.35384080  1
  Sc  Sc3  1  0.09718028  0.10914316  0.86225623  1
  Sc  Sc4  1  0.22565413  0.21625736  0.61170796  1
  Sc  Sc5  1  0.45116550  0.09445998  0.86690009  1
  Sc  Sc6  1  0.10533757  0.43826615  0.34962135  1
  Sc  Sc7  1  0.89002432  0.54076456  0.61844336  1
  Sc  Sc8  1  0.45223106  0.42419998  0.36041334  1
  Sc  Sc9  1  0.09824881  0.76046863  0.36126499  1
  Sc  Sc10  1  0.22215215  0.87070268  0.10760458  1
  Sc  Sc11  1  0.45777566  0.74685400  0.35746692  1
  Sc  Sc12  1  0.09878003  0.75840865  0.86170173  1
  Sc  Sc13  1  0.22261193  0.86724935  0.60996899  1
  Sc  Sc14  1  0.45719090  0.75170416  0.86287247  1
  Sc  Sc15  1  0.57072119  0.86644891  0.60778957  1
  Al  Al16  1  0.22030547  0.21018677  0.11610674  1
  Al  Al17  1  0.77374527  0.09897469  0.88027989  1
  Al  Al18  1  0.56539370  0.20513376  0.11599214  1
  Al  Al19  1  0.77166053  0.09153432  0.37086669  1
  Al  Al20  1  0.87697150  0.21307179  0.12636120  1
  Al  Al21  1  0.56054034  0.20772470  0.63541104  1
  Al  Al22  1  0.22537026  0.53648332  0.11188636  1
  Al  Al23  1  0.77686423  0.42245673  0.87870970  1
  Al  Al24  1  0.56762112  0.52892324  0.11297349  1
  Al  Al25  1  0.11051983  0.43055370  0.88570875  1
  Al  Al26  1  0.22930046  0.53245152  0.63730411  1
  Al  Al27  1  0.77055182  0.43364559  0.37043056  1
  Al  Al28  1  0.88193207  0.54025131  0.11428431  1
  Al  Al29  1  0.45139488  0.42050719  0.87888701  1
  Al  Al30  1  0.55620026  0.52859509  0.63770842  1
  Al  Al31  1  0.77999284  0.76215983  0.88512246  1
  Al  Al32  1  0.87776467  0.87718518  0.62998660  1
  Al  Al33  1  0.56760100  0.86463917  0.12516602  1
  Al  Al34  1  0.78263250  0.76085161  0.36478646  1
  Al  Al35  1  0.87930178  0.87742492  0.12197816  1
  N  N36  1  0.22563970  0.20768620  0.33910429  1
  N  N37  1  0.09538988  0.11542549  0.10531416  1
  N  N38  1  0.86646997  0.21460672  0.84257761  1
  N  N39  1  0.76406161  0.08474198  0.58167344  1
  N  N40  1  0.57567566  0.19901621  0.32126308  1
  N  N41  1  0.44854880  0.09012574  0.10275755  1
  N  N42  1  0.21585491  0.22407814  0.85531073  1
  N  N43  1  0.10377329  0.10306315  0.60196794  1
  N  N44  1  0.86499757  0.21613548  0.34259937  1
  N  N45  1  0.78103486  0.09442197  0.08635123  1
  N  N46  1  0.56744792  0.21231882  0.84712681  1
  N  N47  1  0.45707884  0.10429132  0.60296253  1
  N  N48  1  0.22895408  0.53888886  0.31926343  1
  N  N49  1  0.10817256  0.43079422  0.09600660  1
  N  N50  1  0.89130359  0.54036430  0.85873069  1
  N  N51  1  0.75477672  0.44289198  0.58349685  1
  N  N52  1  0.57596252  0.52350703  0.31914432  1
  N  N53  1  0.44764453  0.42590527  0.08829992  1
  N  N54  1  0.23573908  0.51792950  0.85153065  1
  N  N55  1  0.11820193  0.44432573  0.58705992  1
  N  N56  1  0.86967461  0.54628691  0.33207488  1
  N  N57  1  0.78126729  0.42471544  0.08498618  1
  N  N58  1  0.56754653  0.51627257  0.84953661  1
  N  N59  1  0.44579907  0.42648110  0.60284712  1
  N  N60  1  0.22235390  0.86936659  0.35226323  1
  N  N61  1  0.09508664  0.75705860  0.09745666  1
  N  N62  1  0.86329936  0.88697500  0.84017757  1
  N  N63  1  0.79513135  0.76401312  0.57464460  1
  N  N64  1  0.57629233  0.86089437  0.34303182  1
  N  N65  1  0.46470937  0.75162197  0.10136870  1
  N  N66  1  0.22122017  0.87204892  0.85828930  1
  N  N67  1  0.09929754  0.75246750  0.60956282  1
  N  N68  1  0.86793563  0.88415750  0.32783061  1
  N  N69  1  0.77916727  0.76130101  0.09258379  1
  N  N70  1  0.57909054  0.86012959  0.84329639  1
  N  N71  1  0.45625680  0.73831163  0.60508859  1
