# generated using pymatgen
data_Sc4Al5N9
_symmetry_space_group_name_H-M   'P 1'
_cell_length_a   10.14475242
_cell_length_b   10.09725017
_cell_length_c   10.13080272
_cell_angle_alpha   89.95302025
_cell_angle_beta   90.08097190
_cell_angle_gamma   60.12478247
_symmetry_Int_Tables_number   1
_chemical_formula_structural   Sc4Al5N9
_chemical_formula_sum   'Sc16 Al20 N36'
_cell_volume   899.83454302
_cell_formula_units_Z   4
loop_
 _symmetry_equiv_pos_site_id
 _symmetry_equiv_pos_as_xyz
  1  'x, y, z'
loop_
 _atom_site_type_symbol
 _atom_site_label
 _atom_site_symmetry_multiplicity
 _atom_site_fract_x
 _atom_site_fract_y
 _atom_site_fract_z
 _atom_site_occupancy
  Sc  Sc0  1  0.10117391  0.10726162  0.30121713  1
  Sc  Sc1  1  0.87290856  0.21085489  0.56199658  1
  Sc  Sc2  1  0.45308986  0.09291224  0.29977803  1
  Sc  Sc3  1  0.09856668  0.10310502  0.82440414  1
  Sc  Sc4  1  0.22685280  0.21240107  0.57367790  1
  Sc  Sc5  1  0.45221748  0.09762229  0.83001455  1
  Sc  Sc6  1  0.10531709  0.43317233  0.30553161  1
  Sc  Sc7  1  0.88514635  0.54331419  0.57010957  1
  Sc  Sc8  1  0.45211408  0.42321181  0.31921007  1
  Sc  Sc9  1  0.09860273  0.75956425  0.31135925  1
  Sc  Sc10  1  0.22422653  0.86727234  0.06748842  1
  Sc  Sc11  1  0.46277722  0.74956998  0.30921677  1
  Sc  Sc12  1  0.10045618  0.75653281  0.81555232  1
  Sc  Sc13  1  0.22141431  0.86932291  0.55786194  1
  Sc  Sc14  1  0.45479179  0.74643816  0.81733722  1
  Sc  Sc15  1  0.56542660  0.87278536  0.56775315  1
  Al  Al16  1  0.21523746  0.21814248  0.04395926  1
  Al  Al17  1  0.76971293  0.09740838  0.81014036  1
  Al  Al18  1  0.56090793  0.21180691  0.05142503  1
  Al  Al19  1  0.77425281  0.09500908  0.30452169  1
  Al  Al20  1  0.87572085  0.21385904  0.05444518  1
  Al  Al21  1  0.56195908  0.20278786  0.56144513  1
  Al  Al22  1  0.22686698  0.52986243  0.04848594  1
  Al  Al23  1  0.77045697  0.42665075  0.81353439  1
  Al  Al24  1  0.56340951  0.52752082  0.05290487  1
  Al  Al25  1  0.11165231  0.43458515  0.81083805  1
  Al  Al26  1  0.22454291  0.53955560  0.56314125  1
  Al  Al27  1  0.77673193  0.42917725  0.30023306  1
  Al  Al28  1  0.88802399  0.53983619  0.05098501  1
  Al  Al29  1  0.45181467  0.42129113  0.80508333  1
  Al  Al30  1  0.55958203  0.53151198  0.56013760  1
  Al  Al31  1  0.78347313  0.76224445  0.81189464  1
  Al  Al32  1  0.88068566  0.87678231  0.55660437  1
  Al  Al33  1  0.57038775  0.86079001  0.04939872  1
  Al  Al34  1  0.77750132  0.76132503  0.30133323  1
  Al  Al35  1  0.87872612  0.87460647  0.05604188  1
  N  N36  1  0.22661233  0.20674563  0.36234747  1
  N  N37  1  0.09785178  0.11692838  0.08493398  1
  N  N38  1  0.86331280  0.21569342  0.86477411  1
  N  N39  1  0.76943043  0.08416940  0.62142813  1
  N  N40  1  0.57556918  0.19404440  0.37259382  1
  N  N41  1  0.44580797  0.09471299  0.08061461  1
  N  N42  1  0.21209601  0.22643643  0.85566442  1
  N  N43  1  0.10357801  0.09935703  0.61066874  1
  N  N44  1  0.86886677  0.21550642  0.34966155  1
  N  N45  1  0.77542781  0.09467289  0.11342792  1
  N  N46  1  0.56668974  0.21769460  0.86632835  1
  N  N47  1  0.45697790  0.10405590  0.61753175  1
  N  N48  1  0.22399598  0.53609384  0.37630637  1
  N  N49  1  0.10967848  0.43026739  0.09429558  1
  N  N50  1  0.88940194  0.54011482  0.85901027  1
  N  N51  1  0.75861368  0.43746965  0.62845097  1
  N  N52  1  0.58040212  0.52348613  0.37228927  1
  N  N53  1  0.44466548  0.42736657  0.10632625  1
  N  N54  1  0.23946051  0.51823395  0.86119620  1
  N  N55  1  0.11646496  0.44423831  0.62241352  1
  N  N56  1  0.87077599  0.54804427  0.35471745  1
  N  N57  1  0.77759760  0.42902217  0.10782258  1
  N  N58  1  0.56449022  0.51531385  0.86764652  1
  N  N59  1  0.44729995  0.42651380  0.60992602  1
  N  N60  1  0.22345337  0.87172375  0.33594077  1
  N  N61  1  0.09818664  0.74749134  0.09459550  1
  N  N62  1  0.86539450  0.88772733  0.87061225  1
  N  N63  1  0.79131534  0.76898635  0.62642664  1
  N  N64  1  0.57535021  0.86605718  0.35732260  1
  N  N65  1  0.46943314  0.74539687  0.09270867  1
  N  N66  1  0.22174119  0.86710333  0.85805456  1
  N  N67  1  0.09786192  0.75782156  0.59879797  1
  N  N68  1  0.86582143  0.88352286  0.36455861  1
  N  N69  1  0.78066907  0.75843909  0.10985123  1
  N  N70  1  0.57873155  0.85665357  0.86142750  1
  N  N71  1  0.45417996  0.74258344  0.60251330  1
