# generated using pymatgen
data_Sc4Al5N9
_symmetry_space_group_name_H-M   'P 1'
_cell_length_a   10.58786481
_cell_length_b   10.46814399
_cell_length_c   9.00175644
_cell_angle_alpha   89.98027129
_cell_angle_beta   90.10591674
_cell_angle_gamma   60.08309274
_symmetry_Int_Tables_number   1
_chemical_formula_structural   Sc4Al5N9
_chemical_formula_sum   'Sc16 Al20 N36'
_cell_volume   864.76436379
_cell_formula_units_Z   4
loop_
 _symmetry_equiv_pos_site_id
 _symmetry_equiv_pos_as_xyz
  1  'x, y, z'
loop_
 _atom_site_type_symbol
 _atom_site_label
 _atom_site_symmetry_multiplicity
 _atom_site_fract_x
 _atom_site_fract_y
 _atom_site_fract_z
 _atom_site_occupancy
  Sc  Sc0  1  0.09952075  0.10561352  0.34536246  1
  Sc  Sc1  1  0.86898542  0.21275094  0.59633949  1
  Sc  Sc2  1  0.45607736  0.09101505  0.34099378  1
  Sc  Sc3  1  0.09885042  0.10749195  0.85240199  1
  Sc  Sc4  1  0.22629466  0.21393347  0.60148489  1
  Sc  Sc5  1  0.45142766  0.09863851  0.85394726  1
  Sc  Sc6  1  0.10389858  0.43786259  0.34306303  1
  Sc  Sc7  1  0.88689179  0.54029499  0.60657066  1
  Sc  Sc8  1  0.44997276  0.42486728  0.34604316  1
  Sc  Sc9  1  0.10009213  0.76029263  0.34748305  1
  Sc  Sc10  1  0.22331759  0.87095920  0.09930627  1
  Sc  Sc11  1  0.45927135  0.75091578  0.34631925  1
  Sc  Sc12  1  0.09627909  0.76100345  0.85244056  1
  Sc  Sc13  1  0.22209599  0.86794369  0.59971187  1
  Sc  Sc14  1  0.45574712  0.74762664  0.84962474  1
  Sc  Sc15  1  0.57162615  0.86632039  0.60098268  1
  Al  Al16  1  0.21923104  0.21283973  0.09810499  1
  Al  Al17  1  0.77061200  0.09501019  0.83911220  1
  Al  Al18  1  0.56348130  0.20769658  0.08370080  1
  Al  Al19  1  0.77438387  0.09528987  0.32713769  1
  Al  Al20  1  0.87765868  0.21026863  0.08874368  1
  Al  Al21  1  0.56287392  0.20342719  0.58661025  1
  Al  Al22  1  0.22545830  0.53538438  0.10103793  1
  Al  Al23  1  0.76946655  0.42575426  0.84936436  1
  Al  Al24  1  0.56234395  0.52952656  0.08495126  1
  Al  Al25  1  0.11138280  0.43127117  0.86774355  1
  Al  Al26  1  0.22809129  0.53459825  0.62797376  1
  Al  Al27  1  0.77638767  0.42978137  0.31929542  1
  Al  Al28  1  0.88644329  0.53992421  0.08485855  1
  Al  Al29  1  0.45244521  0.42097771  0.85220774  1
  Al  Al30  1  0.55963304  0.53002485  0.58877380  1
  Al  Al31  1  0.78402034  0.76320093  0.84772753  1
  Al  Al32  1  0.87907293  0.87577006  0.57978672  1
  Al  Al33  1  0.56818894  0.86379326  0.08618696  1
  Al  Al34  1  0.77876715  0.75876361  0.32140781  1
  Al  Al35  1  0.87877153  0.87786909  0.08804193  1
  N  N36  1  0.22564665  0.20813406  0.34093478  1
  N  N37  1  0.09695233  0.11490015  0.09915027  1
  N  N38  1  0.86676293  0.21147602  0.86464059  1
  N  N39  1  0.76873613  0.08294322  0.62024685  1
  N  N40  1  0.57609909  0.19790028  0.36509471  1
  N  N41  1  0.45088073  0.09255899  0.09883256  1
  N  N42  1  0.21719239  0.22253451  0.85903211  1
  N  N43  1  0.10162698  0.10409458  0.60117864  1
  N  N44  1  0.86606052  0.21764671  0.34695472  1
  N  N45  1  0.77594194  0.09531701  0.11293790  1
  N  N46  1  0.56675813  0.21307479  0.86698686  1
  N  N47  1  0.45629923  0.10203713  0.60461829  1
  N  N48  1  0.22643119  0.53781569  0.32289777  1
  N  N49  1  0.10773863  0.43188275  0.09117871  1
  N  N50  1  0.89192079  0.53869195  0.86506263  1
  N  N51  1  0.75797167  0.43899019  0.63210864  1
  N  N52  1  0.57902139  0.52257012  0.36162777  1
  N  N53  1  0.44834006  0.42511280  0.09660410  1
  N  N54  1  0.23544963  0.52104519  0.85439527  1
  N  N55  1  0.11729988  0.44279941  0.59862633  1
  N  N56  1  0.86991983  0.54662893  0.34633939  1
  N  N57  1  0.77755122  0.42850677  0.09989004  1
  N  N58  1  0.56274618  0.51857752  0.86963468  1
  N  N59  1  0.44555998  0.42712996  0.61164753  1
  N  N60  1  0.22295059  0.87111728  0.34778450  1
  N  N61  1  0.09619955  0.75805361  0.09828301  1
  N  N62  1  0.86652494  0.88766485  0.87480841  1
  N  N63  1  0.79380249  0.76506320  0.62856517  1
  N  N64  1  0.57857032  0.86057102  0.35280112  1
  N  N65  1  0.46537427  0.74862253  0.10058735  1
  N  N66  1  0.22110142  0.87128978  0.85255632  1
  N  N67  1  0.09892249  0.75311177  0.60240253  1
  N  N68  1  0.86612510  0.88193704  0.35818326  1
  N  N69  1  0.78129673  0.75866744  0.10457494  1
  N  N70  1  0.57610076  0.86093508  0.86177430  1
  N  N71  1  0.45568686  0.74140573  0.60263421  1
