# generated using pymatgen
data_Sc4Al5N9
_symmetry_space_group_name_H-M   'P 1'
_cell_length_a   10.31660849
_cell_length_b   10.23729802
_cell_length_c   9.72036588
_cell_angle_alpha   89.88452031
_cell_angle_beta   90.07110345
_cell_angle_gamma   60.10897999
_symmetry_Int_Tables_number   1
_chemical_formula_structural   Sc4Al5N9
_chemical_formula_sum   'Sc16 Al20 N36'
_cell_volume   890.03908144
_cell_formula_units_Z   4
loop_
 _symmetry_equiv_pos_site_id
 _symmetry_equiv_pos_as_xyz
  1  'x, y, z'
loop_
 _atom_site_type_symbol
 _atom_site_label
 _atom_site_symmetry_multiplicity
 _atom_site_fract_x
 _atom_site_fract_y
 _atom_site_fract_z
 _atom_site_occupancy
  Sc  Sc0  1  0.10057962  0.10698119  0.32745362  1
  Sc  Sc1  1  0.87143139  0.21072898  0.58286395  1
  Sc  Sc2  1  0.45290700  0.09210972  0.32118641  1
  Sc  Sc3  1  0.09812107  0.10420042  0.84273417  1
  Sc  Sc4  1  0.22804252  0.20993910  0.59425163  1
  Sc  Sc5  1  0.45290040  0.09894809  0.84756419  1
  Sc  Sc6  1  0.10186384  0.43196554  0.32948655  1
  Sc  Sc7  1  0.88324101  0.54308445  0.59169018  1
  Sc  Sc8  1  0.45314729  0.42232622  0.34021192  1
  Sc  Sc9  1  0.09745987  0.76239453  0.33507211  1
  Sc  Sc10  1  0.22505182  0.86994856  0.08969849  1
  Sc  Sc11  1  0.46211053  0.75099466  0.33167530  1
  Sc  Sc12  1  0.09956300  0.75782049  0.84644727  1
  Sc  Sc13  1  0.22210904  0.86742368  0.58463925  1
  Sc  Sc14  1  0.45574514  0.74558616  0.83891483  1
  Sc  Sc15  1  0.56688104  0.87109826  0.59048888  1
  Al  Al16  1  0.21454762  0.21901070  0.06183072  1
  Al  Al17  1  0.76977811  0.09622494  0.82669158  1
  Al  Al18  1  0.56197436  0.21299467  0.06947404  1
  Al  Al19  1  0.77422807  0.09535798  0.32000506  1
  Al  Al20  1  0.87627684  0.21360604  0.07217042  1
  Al  Al21  1  0.56450503  0.19944823  0.57566993  1
  Al  Al22  1  0.22645016  0.53185687  0.09127921  1
  Al  Al23  1  0.76923982  0.42585570  0.83110565  1
  Al  Al24  1  0.56388740  0.52680785  0.07144440  1
  Al  Al25  1  0.11173111  0.43468586  0.82826040  1
  Al  Al26  1  0.22673855  0.53919275  0.60754521  1
  Al  Al27  1  0.77670296  0.42990391  0.31578043  1
  Al  Al28  1  0.88832699  0.53969694  0.06640449  1
  Al  Al29  1  0.45427990  0.42032106  0.82245095  1
  Al  Al30  1  0.56092102  0.53160116  0.57464883  1
  Al  Al31  1  0.78426725  0.76369868  0.82870179  1
  Al  Al32  1  0.88017231  0.87618384  0.57136671  1
  Al  Al33  1  0.57104239  0.86054288  0.06595921  1
  Al  Al34  1  0.77683389  0.76040550  0.31813735  1
  Al  Al35  1  0.87650598  0.87711518  0.07533193  1
  N  N36  1  0.22743393  0.20491392  0.37417526  1
  N  N37  1  0.09744111  0.11809713  0.09760768  1
  N  N38  1  0.86400859  0.21430219  0.87297174  1
  N  N39  1  0.76955721  0.08228902  0.63135407  1
  N  N40  1  0.57692988  0.19275519  0.38055797  1
  N  N41  1  0.44614358  0.09499825  0.09360381  1
  N  N42  1  0.21327528  0.22577023  0.86289033  1
  N  N43  1  0.10238778  0.09951009  0.61703133  1
  N  N44  1  0.86708721  0.21665329  0.36130876  1
  N  N45  1  0.77556456  0.09616312  0.12337051  1
  N  N46  1  0.56758607  0.21710453  0.87650222  1
  N  N47  1  0.45777056  0.10362418  0.62534381  1
  N  N48  1  0.22404470  0.53605366  0.34958099  1
  N  N49  1  0.10766736  0.43090682  0.10428209  1
  N  N50  1  0.89013144  0.54019019  0.86683897  1
  N  N51  1  0.75723465  0.43738628  0.63915088  1
  N  N52  1  0.58069209  0.52397550  0.37952730  1
  N  N53  1  0.44787062  0.42633432  0.11689886  1
  N  N54  1  0.24025922  0.51920966  0.85797500  1
  N  N55  1  0.11564783  0.44258464  0.62478244  1
  N  N56  1  0.86750558  0.54896452  0.36760256  1
  N  N57  1  0.77858399  0.42915402  0.11604735  1
  N  N58  1  0.56486042  0.51455702  0.87853240  1
  N  N59  1  0.44859937  0.42567562  0.61606018  1
  N  N60  1  0.22418171  0.87171578  0.34681443  1
  N  N61  1  0.09689510  0.75321317  0.10070335  1
  N  N62  1  0.86378377  0.88888162  0.88270171  1
  N  N63  1  0.79254179  0.76858160  0.63618241  1
  N  N64  1  0.57645013  0.86482364  0.37006260  1
  N  N65  1  0.46953091  0.74593480  0.10228311  1
  N  N66  1  0.22230617  0.86883445  0.86459765  1
  N  N67  1  0.09796490  0.75528743  0.60696189  1
  N  N68  1  0.86403852  0.88397305  0.37233526  1
  N  N69  1  0.78077908  0.75781082  0.11938942  1
  N  N70  1  0.57855706  0.85804887  0.86792563  1
  N  N71  1  0.45507970  0.74116871  0.61230679  1
