# generated using pymatgen
data_Sc4Al5N9
_symmetry_space_group_name_H-M   'P 1'
_cell_length_a   10.30763869
_cell_length_b   10.22339554
_cell_length_c   9.78001214
_cell_angle_alpha   89.80716364
_cell_angle_beta   90.06293443
_cell_angle_gamma   60.11171368
_symmetry_Int_Tables_number   1
_chemical_formula_structural   Sc4Al5N9
_chemical_formula_sum   'Sc16 Al20 N36'
_cell_volume   893.52658248
_cell_formula_units_Z   4
loop_
 _symmetry_equiv_pos_site_id
 _symmetry_equiv_pos_as_xyz
  1  'x, y, z'
loop_
 _atom_site_type_symbol
 _atom_site_label
 _atom_site_symmetry_multiplicity
 _atom_site_fract_x
 _atom_site_fract_y
 _atom_site_fract_z
 _atom_site_occupancy
  Sc  Sc0  1  0.10086962  0.10656380  0.32653939  1
  Sc  Sc1  1  0.87206436  0.21035943  0.58299030  1
  Sc  Sc2  1  0.45292140  0.09222130  0.32004632  1
  Sc  Sc3  1  0.09818490  0.10395725  0.84407115  1
  Sc  Sc4  1  0.22852814  0.20841219  0.59462540  1
  Sc  Sc5  1  0.45266281  0.09934071  0.84873805  1
  Sc  Sc6  1  0.10043307  0.43095968  0.33520375  1
  Sc  Sc7  1  0.88135189  0.54415289  0.59159915  1
  Sc  Sc8  1  0.45438406  0.42183653  0.34415567  1
  Sc  Sc9  1  0.09657257  0.76375088  0.34146085  1
  Sc  Sc10  1  0.22522785  0.86939604  0.09082142  1
  Sc  Sc11  1  0.46245908  0.75124504  0.33137456  1
  Sc  Sc12  1  0.10013168  0.75692282  0.85213078  1
  Sc  Sc13  1  0.22257165  0.86704887  0.58596481  1
  Sc  Sc14  1  0.45592449  0.74567678  0.83973445  1
  Sc  Sc15  1  0.56641444  0.87194421  0.59065088  1
  Al  Al16  1  0.21374692  0.22062396  0.06227495  1
  Al  Al17  1  0.76998521  0.09625670  0.82741648  1
  Al  Al18  1  0.56146168  0.21412601  0.06986596  1
  Al  Al19  1  0.77401285  0.09546003  0.32048182  1
  Al  Al20  1  0.87620486  0.21370713  0.07274584  1
  Al  Al21  1  0.56508255  0.19881089  0.57626771  1
  Al  Al22  1  0.22451726  0.53348424  0.12300473  1
  Al  Al23  1  0.76955024  0.42551578  0.83173962  1
  Al  Al24  1  0.56367169  0.52643016  0.07195148  1
  Al  Al25  1  0.11050572  0.43451049  0.82635906  1
  Al  Al26  1  0.22740738  0.53842383  0.62893199  1
  Al  Al27  1  0.77648724  0.43005158  0.31594384  1
  Al  Al28  1  0.88950644  0.53937406  0.06731653  1
  Al  Al29  1  0.45631677  0.41949460  0.82137833  1
  Al  Al30  1  0.56164280  0.53177864  0.57514661  1
  Al  Al31  1  0.78399399  0.76415371  0.82936984  1
  Al  Al32  1  0.88003775  0.87627467  0.57256981  1
  Al  Al33  1  0.57118507  0.86045545  0.06637912  1
  Al  Al34  1  0.77629641  0.76093270  0.31849079  1
  Al  Al35  1  0.87639548  0.87731732  0.07624643  1
  N  N36  1  0.22837038  0.20318534  0.37618405  1
  N  N37  1  0.09767338  0.11793623  0.09864949  1
  N  N38  1  0.86411880  0.21422402  0.87505374  1
  N  N39  1  0.76993223  0.08228604  0.63315074  1
  N  N40  1  0.57708555  0.19198112  0.38229578  1
  N  N41  1  0.44581205  0.09550173  0.09415840  1
  N  N42  1  0.21256771  0.22691488  0.86439645  1
  N  N43  1  0.10250579  0.09876747  0.62034008  1
  N  N44  1  0.86744814  0.21646552  0.36268159  1
  N  N45  1  0.77530376  0.09634839  0.12494619  1
  N  N46  1  0.56775823  0.21734105  0.87790949  1
  N  N47  1  0.45793599  0.10396344  0.62827235  1
  N  N48  1  0.22361773  0.53610484  0.32788397  1
  N  N49  1  0.10695021  0.43087267  0.10758972  1
  N  N50  1  0.89075308  0.54033773  0.86804472  1
  N  N51  1  0.75751194  0.43670788  0.64102800  1
  N  N52  1  0.58109635  0.52452314  0.38127241  1
  N  N53  1  0.44872435  0.42611751  0.11901750  1
  N  N54  1  0.24043509  0.51959241  0.83563235  1
  N  N55  1  0.11407159  0.44180595  0.61918994  1
  N  N56  1  0.86605203  0.54985561  0.36912898  1
  N  N57  1  0.77862815  0.42921903  0.11746328  1
  N  N58  1  0.56522804  0.51440232  0.87986581  1
  N  N59  1  0.45068937  0.42464219  0.61374191  1
  N  N60  1  0.22462659  0.87146992  0.34870624  1
  N  N61  1  0.09639867  0.75407115  0.10120263  1
  N  N62  1  0.86373443  0.88894977  0.88430027  1
  N  N63  1  0.79184910  0.76936092  0.63816018  1
  N  N64  1  0.57610594  0.86546652  0.37154028  1
  N  N65  1  0.46978902  0.74573423  0.10375447  1
  N  N66  1  0.22253766  0.86825234  0.86693835  1
  N  N67  1  0.09830893  0.75450579  0.60352167  1
  N  N68  1  0.86314239  0.88440841  0.37411956  1
  N  N69  1  0.78069623  0.75800664  0.12099783  1
  N  N70  1  0.57862589  0.85812061  0.87004267  1
  N  N71  1  0.45565156  0.74108642  0.61471454  1
