# generated using pymatgen
data_Sc4Al5N9
_symmetry_space_group_name_H-M   'P 1'
_cell_length_a   10.47328044
_cell_length_b   10.37199822
_cell_length_c   9.27690760
_cell_angle_alpha   89.94994937
_cell_angle_beta   89.94564330
_cell_angle_gamma   60.09194009
_symmetry_Int_Tables_number   1
_chemical_formula_structural   Sc4Al5N9
_chemical_formula_sum   'Sc16 Al20 N36'
_cell_volume   873.53516747
_cell_formula_units_Z   4
loop_
 _symmetry_equiv_pos_site_id
 _symmetry_equiv_pos_as_xyz
  1  'x, y, z'
loop_
 _atom_site_type_symbol
 _atom_site_label
 _atom_site_symmetry_multiplicity
 _atom_site_fract_x
 _atom_site_fract_y
 _atom_site_fract_z
 _atom_site_occupancy
  Sc  Sc0  1  0.10144063  0.10307893  0.35655053  1
  Sc  Sc1  1  0.87021425  0.21104696  0.60732048  1
  Sc  Sc2  1  0.45592490  0.09471987  0.35438630  1
  Sc  Sc3  1  0.09685936  0.10942105  0.86302112  1
  Sc  Sc4  1  0.22552861  0.21654658  0.61250827  1
  Sc  Sc5  1  0.45100822  0.09441881  0.86752338  1
  Sc  Sc6  1  0.10531702  0.43836150  0.35000013  1
  Sc  Sc7  1  0.89028921  0.54069244  0.61906591  1
  Sc  Sc8  1  0.45204739  0.42411076  0.36125105  1
  Sc  Sc9  1  0.09818461  0.76047241  0.36200556  1
  Sc  Sc10  1  0.22215561  0.87068490  0.10781926  1
  Sc  Sc11  1  0.45754531  0.74702747  0.35808514  1
  Sc  Sc12  1  0.09889827  0.75830265  0.86196830  1
  Sc  Sc13  1  0.22268752  0.86724668  0.61067596  1
  Sc  Sc14  1  0.45761044  0.75123110  0.86320679  1
  Sc  Sc15  1  0.57059160  0.86660452  0.60820847  1
  Al  Al16  1  0.22023692  0.21008560  0.11792563  1
  Al  Al17  1  0.77379362  0.09935455  0.88061894  1
  Al  Al18  1  0.56554629  0.20513779  0.11669258  1
  Al  Al19  1  0.77155046  0.09127079  0.37195073  1
  Al  Al20  1  0.87671744  0.21329424  0.12878922  1
  Al  Al21  1  0.56044693  0.20780683  0.63594593  1
  Al  Al22  1  0.22529155  0.53669845  0.11239869  1
  Al  Al23  1  0.77701278  0.42227635  0.87971149  1
  Al  Al24  1  0.56772669  0.52898203  0.11476604  1
  Al  Al25  1  0.11021619  0.43048715  0.88699126  1
  Al  Al26  1  0.22944887  0.53221991  0.63800508  1
  Al  Al27  1  0.77017865  0.43397648  0.37219132  1
  Al  Al28  1  0.88144662  0.54041870  0.11616026  1
  Al  Al29  1  0.45180869  0.42049597  0.87950935  1
  Al  Al30  1  0.55641974  0.52843583  0.63745351  1
  Al  Al31  1  0.77990701  0.76188496  0.88547418  1
  Al  Al32  1  0.87777723  0.87712546  0.63101275  1
  Al  Al33  1  0.56774259  0.86451645  0.12644032  1
  Al  Al34  1  0.78273053  0.76093925  0.36594850  1
  Al  Al35  1  0.87929679  0.87740593  0.12227925  1
  N  N36  1  0.22567162  0.20766323  0.33807867  1
  N  N37  1  0.09502862  0.11567716  0.10544102  1
  N  N38  1  0.86629688  0.21495194  0.84056432  1
  N  N39  1  0.76400005  0.08444481  0.58092989  1
  N  N40  1  0.57589896  0.19898195  0.32038053  1
  N  N41  1  0.44850913  0.09010657  0.10257607  1
  N  N42  1  0.21557689  0.22437004  0.85385290  1
  N  N43  1  0.10401146  0.10290023  0.60116355  1
  N  N44  1  0.86482766  0.21615399  0.34278972  1
  N  N45  1  0.78117291  0.09472508  0.08542936  1
  N  N46  1  0.56741420  0.21235912  0.84609807  1
  N  N47  1  0.45698661  0.10442642  0.60211628  1
  N  N48  1  0.22894499  0.53910001  0.31804320  1
  N  N49  1  0.10794435  0.43074337  0.09598291  1
  N  N50  1  0.89130970  0.54004515  0.85743295  1
  N  N51  1  0.75485542  0.44302937  0.58171091  1
  N  N52  1  0.57586294  0.52351565  0.31909143  1
  N  N53  1  0.44796644  0.42606550  0.08767147  1
  N  N54  1  0.23588638  0.51755965  0.85078553  1
  N  N55  1  0.11836273  0.44455286  0.58524376  1
  N  N56  1  0.86933415  0.54654228  0.33152842  1
  N  N57  1  0.78109970  0.42457584  0.08458242  1
  N  N58  1  0.56805451  0.51587240  0.84746195  1
  N  N59  1  0.44578183  0.42640352  0.60161919  1
  N  N60  1  0.22230254  0.86926511  0.35174549  1
  N  N61  1  0.09509492  0.75701612  0.09674323  1
  N  N62  1  0.86315871  0.88707878  0.83961688  1
  N  N63  1  0.79533041  0.76404761  0.57383453  1
  N  N64  1  0.57642081  0.86087248  0.34250900  1
  N  N65  1  0.46510825  0.75123674  0.10108364  1
  N  N66  1  0.22139295  0.87214613  0.85826602  1
  N  N67  1  0.09933349  0.75241889  0.60967718  1
  N  N68  1  0.86782087  0.88419010  0.32673869  1
  N  N69  1  0.77906123  0.76116566  0.09153225  1
  N  N70  1  0.57915997  0.86008077  0.84181755  1
  N  N71  1  0.45627623  0.73831821  0.60440260  1
