# generated using pymatgen
data_Sc4Al5N9
_symmetry_space_group_name_H-M   'P 1'
_cell_length_a   10.14484700
_cell_length_b   10.08772708
_cell_length_c   10.11647081
_cell_angle_alpha   89.85225236
_cell_angle_beta   89.75077810
_cell_angle_gamma   60.22129764
_symmetry_Int_Tables_number   1
_chemical_formula_structural   Sc4Al5N9
_chemical_formula_sum   'Sc16 Al20 N36'
_cell_volume   898.58356164
_cell_formula_units_Z   4
loop_
 _symmetry_equiv_pos_site_id
 _symmetry_equiv_pos_as_xyz
  1  'x, y, z'
loop_
 _atom_site_type_symbol
 _atom_site_label
 _atom_site_symmetry_multiplicity
 _atom_site_fract_x
 _atom_site_fract_y
 _atom_site_fract_z
 _atom_site_occupancy
  Sc  Sc0  1  0.10172337  0.10055240  0.37620405  1
  Sc  Sc1  1  0.87396849  0.21081665  0.63417623  1
  Sc  Sc2  1  0.45548041  0.09378768  0.37919995  1
  Sc  Sc3  1  0.09711100  0.11044856  0.90133733  1
  Sc  Sc4  1  0.22411510  0.21700411  0.64028037  1
  Sc  Sc5  1  0.45032287  0.09544847  0.89497140  1
  Sc  Sc6  1  0.10443896  0.43752517  0.37446535  1
  Sc  Sc7  1  0.89090529  0.54211202  0.64239817  1
  Sc  Sc8  1  0.45028609  0.42387161  0.38975249  1
  Sc  Sc9  1  0.09844935  0.75949590  0.39978038  1
  Sc  Sc10  1  0.22133356  0.86572536  0.13412062  1
  Sc  Sc11  1  0.45547400  0.74868018  0.38351606  1
  Sc  Sc12  1  0.10018216  0.75609676  0.87945995  1
  Sc  Sc13  1  0.22384718  0.87117812  0.64482749  1
  Sc  Sc14  1  0.46037922  0.74837020  0.89285227  1
  Sc  Sc15  1  0.56856142  0.86868662  0.63440740  1
  Al  Al16  1  0.22149498  0.21055567  0.14663722  1
  Al  Al17  1  0.77214478  0.09999364  0.89788338  1
  Al  Al18  1  0.56336755  0.20533105  0.14172203  1
  Al  Al19  1  0.77290118  0.09210475  0.39100013  1
  Al  Al20  1  0.87507437  0.21381576  0.15049127  1
  Al  Al21  1  0.55999139  0.20810122  0.65094338  1
  Al  Al22  1  0.22255779  0.53801048  0.13667671  1
  Al  Al23  1  0.77698996  0.42429857  0.90055895  1
  Al  Al24  1  0.56610483  0.52903498  0.14204726  1
  Al  Al25  1  0.11064669  0.43033701  0.90751938  1
  Al  Al26  1  0.23108797  0.53070146  0.65662058  1
  Al  Al27  1  0.77060531  0.43251365  0.39006568  1
  Al  Al28  1  0.88105502  0.54191533  0.14080125  1
  Al  Al29  1  0.45320700  0.41979852  0.89572261  1
  Al  Al30  1  0.55796153  0.52954306  0.65114455  1
  Al  Al31  1  0.77991076  0.76162517  0.90309474  1
  Al  Al32  1  0.87745115  0.87804128  0.64934789  1
  Al  Al33  1  0.56801058  0.86476844  0.14989751  1
  Al  Al34  1  0.78175315  0.76151302  0.38680411  1
  Al  Al35  1  0.88202072  0.87387248  0.14302506  1
  N  N36  1  0.22561957  0.20787461  0.33430585  1
  N  N37  1  0.09591920  0.11464545  0.11635534  1
  N  N38  1  0.86846493  0.21559141  0.84546695  1
  N  N39  1  0.76623666  0.08458193  0.58190990  1
  N  N40  1  0.57610425  0.20002587  0.32572214  1
  N  N41  1  0.44806651  0.09176039  0.10993606  1
  N  N42  1  0.21408847  0.22514197  0.85236955  1
  N  N43  1  0.10651845  0.10178742  0.59141775  1
  N  N44  1  0.86341543  0.21714874  0.34221409  1
  N  N45  1  0.77911999  0.09418550  0.08774052  1
  N  N46  1  0.56697858  0.21222571  0.84101100  1
  N  N47  1  0.45586705  0.10544872  0.59737551  1
  N  N48  1  0.22685261  0.54268048  0.32204704  1
  N  N49  1  0.10874291  0.42952569  0.10028395  1
  N  N50  1  0.89186813  0.53989383  0.85838374  1
  N  N51  1  0.75767669  0.44245020  0.57899749  1
  N  N52  1  0.57411208  0.52333362  0.32606560  1
  N  N53  1  0.44748713  0.42620982  0.08828794  1
  N  N54  1  0.23784408  0.51362608  0.84694589  1
  N  N55  1  0.11969747  0.44485501  0.58418829  1
  N  N56  1  0.86727349  0.54860704  0.33223320  1
  N  N57  1  0.77882829  0.42565491  0.08930916  1
  N  N58  1  0.57025271  0.51522977  0.84107759  1
  N  N59  1  0.44634312  0.42688703  0.60433464  1
  N  N60  1  0.22062707  0.86557479  0.34736646  1
  N  N61  1  0.09486330  0.75255837  0.09223026  1
  N  N62  1  0.86098575  0.88847832  0.83864414  1
  N  N63  1  0.79522851  0.76541528  0.57407684  1
  N  N64  1  0.57688947  0.86054820  0.33993895  1
  N  N65  1  0.46690835  0.74871133  0.10719271  1
  N  N66  1  0.22321059  0.87452836  0.86269896  1
  N  N67  1  0.10099459  0.75320654  0.62279504  1
  N  N68  1  0.87094138  0.88281400  0.33037657  1
  N  N69  1  0.77849578  0.76151011  0.09197232  1
  N  N70  1  0.57835260  0.86115570  0.84334402  1
  N  N71  1  0.45622484  0.73959102  0.60195097  1
