# generated using pymatgen
data_Sc4Al5N9
_symmetry_space_group_name_H-M   'P 1'
_cell_length_a   10.52647454
_cell_length_b   10.41747663
_cell_length_c   9.14887738
_cell_angle_alpha   89.96977496
_cell_angle_beta   90.05533035
_cell_angle_gamma   60.05233783
_symmetry_Int_Tables_number   1
_chemical_formula_structural   Sc4Al5N9
_chemical_formula_sum   'Sc16 Al20 N36'
_cell_volume   869.30508903
_cell_formula_units_Z   4
loop_
 _symmetry_equiv_pos_site_id
 _symmetry_equiv_pos_as_xyz
  1  'x, y, z'
loop_
 _atom_site_type_symbol
 _atom_site_label
 _atom_site_symmetry_multiplicity
 _atom_site_fract_x
 _atom_site_fract_y
 _atom_site_fract_z
 _atom_site_occupancy
  Sc  Sc0  1  0.10088955  0.10367110  0.35463901  1
  Sc  Sc1  1  0.86937919  0.21246180  0.60691082  1
  Sc  Sc2  1  0.45574551  0.09456567  0.35350378  1
  Sc  Sc3  1  0.09831249  0.10841899  0.86093844  1
  Sc  Sc4  1  0.22582912  0.21587312  0.61058037  1
  Sc  Sc5  1  0.45141756  0.09455571  0.86606217  1
  Sc  Sc6  1  0.10549285  0.43810573  0.34915678  1
  Sc  Sc7  1  0.88929361  0.54065895  0.61754838  1
  Sc  Sc8  1  0.45275458  0.42429761  0.35945898  1
  Sc  Sc9  1  0.09840926  0.76044217  0.36053851  1
  Sc  Sc10  1  0.22217677  0.87059857  0.10755058  1
  Sc  Sc11  1  0.45838545  0.74624825  0.35696785  1
  Sc  Sc12  1  0.09853805  0.75847592  0.86130542  1
  Sc  Sc13  1  0.22224055  0.86744502  0.60909316  1
  Sc  Sc14  1  0.45598569  0.75335692  0.86287597  1
  Sc  Sc15  1  0.57103319  0.86598321  0.60735064  1
  Al  Al16  1  0.22074057  0.21015354  0.11381264  1
  Al  Al17  1  0.77339525  0.09775445  0.87970356  1
  Al  Al18  1  0.56490152  0.20483667  0.11544580  1
  Al  Al19  1  0.77185451  0.09208889  0.36893915  1
  Al  Al20  1  0.87845652  0.21076718  0.11660865  1
  Al  Al21  1  0.56072121  0.20765391  0.63446860  1
  Al  Al22  1  0.22547045  0.53602077  0.11164747  1
  Al  Al23  1  0.77576385  0.42350877  0.87172358  1
  Al  Al24  1  0.56578722  0.52939426  0.10746620  1
  Al  Al25  1  0.11157125  0.43061496  0.88363027  1
  Al  Al26  1  0.22894614  0.53281295  0.63606037  1
  Al  Al27  1  0.77403489  0.43116462  0.34960384  1
  Al  Al28  1  0.88395030  0.54073365  0.10772820  1
  Al  Al29  1  0.44986974  0.42031314  0.87864111  1
  Al  Al30  1  0.55484056  0.52927692  0.64007503  1
  Al  Al31  1  0.78015941  0.76313170  0.88441515  1
  Al  Al32  1  0.87770097  0.87740584  0.62806072  1
  Al  Al33  1  0.56732199  0.86497987  0.12362912  1
  Al  Al34  1  0.78236462  0.76086981  0.36300944  1
  Al  Al35  1  0.87927031  0.87731872  0.12181764  1
  N  N36  1  0.22552741  0.20764851  0.34051281  1
  N  N37  1  0.09671081  0.11455653  0.10488185  1
  N  N38  1  0.86748025  0.21272809  0.84987237  1
  N  N39  1  0.76427323  0.08561113  0.58299547  1
  N  N40  1  0.57528039  0.19902891  0.32317057  1
  N  N41  1  0.44864298  0.09015524  0.10317061  1
  N  N42  1  0.21645198  0.22371338  0.85718204  1
  N  N43  1  0.10306178  0.10365872  0.60310015  1
  N  N44  1  0.86535206  0.21612787  0.34142050  1
  N  N45  1  0.78025686  0.09324158  0.08805869  1
  N  N46  1  0.56737141  0.21229155  0.84859095  1
  N  N47  1  0.45728002  0.10403911  0.60401992  1
  N  N48  1  0.22905421  0.53860972  0.32173749  1
  N  N49  1  0.10925138  0.43054622  0.09615855  1
  N  N50  1  0.89231678  0.54176338  0.86281155  1
  N  N51  1  0.75517454  0.44272618  0.60212246  1
  N  N52  1  0.57636537  0.52328914  0.31923383  1
  N  N53  1  0.44644169  0.42504447  0.09001040  1
  N  N54  1  0.23548202  0.51846893  0.85247819  1
  N  N55  1  0.11797481  0.44388880  0.58977617  1
  N  N56  1  0.87045038  0.54609022  0.33232894  1
  N  N57  1  0.78167064  0.42509439  0.08744330  1
  N  N58  1  0.56427696  0.51810390  0.85704374  1
  N  N59  1  0.44575288  0.42677181  0.60511133  1
  N  N60  1  0.22247152  0.86947050  0.35307107  1
  N  N61  1  0.09498197  0.75699188  0.09855408  1
  N  N62  1  0.86355373  0.88680215  0.84071551  1
  N  N63  1  0.79479313  0.76396815  0.57588111  1
  N  N64  1  0.57605813  0.86087647  0.34392233  1
  N  N65  1  0.46371677  0.75284363  0.10217334  1
  N  N66  1  0.22083427  0.87189304  0.85830827  1
  N  N67  1  0.09924643  0.75256161  0.60943712  1
  N  N68  1  0.86823396  0.88409152  0.32993292  1
  N  N69  1  0.77907838  0.76212438  0.09430382  1
  N  N70  1  0.57908134  0.86030061  0.84549962  1
  N  N71  1  0.45590191  0.73830100  0.60640489  1
