# generated using pymatgen
data_Sc4Al5N9
_symmetry_space_group_name_H-M   'P 1'
_cell_length_a   10.32110154
_cell_length_b   10.23876317
_cell_length_c   9.72526380
_cell_angle_alpha   89.85991333
_cell_angle_beta   90.06621118
_cell_angle_gamma   60.10809403
_symmetry_Int_Tables_number   1
_chemical_formula_structural   Sc4Al5N9
_chemical_formula_sum   'Sc16 Al20 N36'
_cell_volume   890.99375451
_cell_formula_units_Z   4
loop_
 _symmetry_equiv_pos_site_id
 _symmetry_equiv_pos_as_xyz
  1  'x, y, z'
loop_
 _atom_site_type_symbol
 _atom_site_label
 _atom_site_symmetry_multiplicity
 _atom_site_fract_x
 _atom_site_fract_y
 _atom_site_fract_z
 _atom_site_occupancy
  Sc  Sc0  1  0.10066620  0.10683072  0.32740464  1
  Sc  Sc1  1  0.87150443  0.21067183  0.58278097  1
  Sc  Sc2  1  0.45299204  0.09201751  0.32078936  1
  Sc  Sc3  1  0.09809273  0.10422647  0.84274446  1
  Sc  Sc4  1  0.22818084  0.20959618  0.59417714  1
  Sc  Sc5  1  0.45293335  0.09895874  0.84752713  1
  Sc  Sc6  1  0.10096689  0.43146224  0.33109108  1
  Sc  Sc7  1  0.88278032  0.54332417  0.59158638  1
  Sc  Sc8  1  0.45360180  0.42209227  0.34148460  1
  Sc  Sc9  1  0.09700502  0.76312166  0.33753288  1
  Sc  Sc10  1  0.22510008  0.87000314  0.08994733  1
  Sc  Sc11  1  0.46219693  0.75110046  0.33150265  1
  Sc  Sc12  1  0.09949593  0.75801447  0.84946548  1
  Sc  Sc13  1  0.22221042  0.86721271  0.58519323  1
  Sc  Sc14  1  0.45577829  0.74562304  0.83895785  1
  Sc  Sc15  1  0.56683531  0.87120105  0.59042074  1
  Al  Al16  1  0.21440518  0.21931198  0.06172803  1
  Al  Al17  1  0.76985354  0.09615895  0.82658001  1
  Al  Al18  1  0.56195728  0.21325068  0.06937339  1
  Al  Al19  1  0.77414949  0.09541328  0.31985906  1
  Al  Al20  1  0.87628730  0.21360808  0.07214049  1
  Al  Al21  1  0.56468813  0.19927592  0.57555274  1
  Al  Al22  1  0.22534459  0.53313195  0.11184449  1
  Al  Al23  1  0.76933985  0.42577237  0.83096426  1
  Al  Al24  1  0.56392371  0.52661435  0.07135465  1
  Al  Al25  1  0.11104633  0.43445708  0.82862060  1
  Al  Al26  1  0.22743349  0.53865937  0.62531092  1
  Al  Al27  1  0.77657852  0.42996654  0.31554029  1
  Al  Al28  1  0.88854432  0.53957847  0.06628780  1
  Al  Al29  1  0.45563265  0.41975775  0.82262080  1
  Al  Al30  1  0.56112569  0.53161208  0.57447552  1
  Al  Al31  1  0.78413615  0.76387627  0.82859322  1
  Al  Al32  1  0.88021833  0.87607750  0.57149112  1
  Al  Al33  1  0.57106932  0.86049853  0.06584932  1
  Al  Al34  1  0.77667058  0.76049339  0.31792495  1
  Al  Al35  1  0.87631555  0.87736257  0.07539662  1
  N  N36  1  0.22777147  0.20447850  0.37417146  1
  N  N37  1  0.09747404  0.11808155  0.09760174  1
  N  N38  1  0.86405017  0.21424667  0.87299342  1
  N  N39  1  0.76967878  0.08220934  0.63132386  1
  N  N40  1  0.57695268  0.19257594  0.38046418  1
  N  N41  1  0.44611538  0.09501778  0.09345604  1
  N  N42  1  0.21329790  0.22586601  0.86271400  1
  N  N43  1  0.10235727  0.09938325  0.61714864  1
  N  N44  1  0.86714005  0.21662705  0.36126870  1
  N  N45  1  0.77551891  0.09621357  0.12335968  1
  N  N46  1  0.56773888  0.21692109  0.87639949  1
  N  N47  1  0.45786941  0.10364749  0.62548617  1
  N  N48  1  0.22373337  0.53609499  0.32935934  1
  N  N49  1  0.10714001  0.43082042  0.10349760  1
  N  N50  1  0.89011099  0.54026128  0.86655016  1
  N  N51  1  0.75727144  0.43723103  0.63913566  1
  N  N52  1  0.58071510  0.52412772  0.37937183  1
  N  N53  1  0.44892710  0.42587728  0.11630100  1
  N  N54  1  0.24031971  0.51991143  0.84338904  1
  N  N55  1  0.11498770  0.44224299  0.62165549  1
  N  N56  1  0.86697523  0.54924905  0.36752740  1
  N  N57  1  0.77863845  0.42916006  0.11594155  1
  N  N58  1  0.56515446  0.51459999  0.87837560  1
  N  N59  1  0.44950115  0.42520788  0.61429861  1
  N  N60  1  0.22430921  0.87158583  0.34693113  1
  N  N61  1  0.09633020  0.75448937  0.09961110  1
  N  N62  1  0.86349266  0.88900216  0.88265693  1
  N  N63  1  0.79237577  0.76876698  0.63623156  1
  N  N64  1  0.57642678  0.86488057  0.37006618  1
  N  N65  1  0.46959495  0.74588610  0.10224976  1
  N  N66  1  0.22237576  0.86889643  0.86449380  1
  N  N67  1  0.09832929  0.75453267  0.60483349  1
  N  N68  1  0.86373484  0.88407822  0.37226193  1
  N  N69  1  0.78074814  0.75784490  0.11931463  1
  N  N70  1  0.57853923  0.85804721  0.86793666  1
  N  N71  1  0.45519918  0.74111154  0.61240574  1
