# generated using pymatgen
data_Sc4Al5N9
_symmetry_space_group_name_H-M   'P 1'
_cell_length_a   10.41137776
_cell_length_b   10.31715155
_cell_length_c   9.43457672
_cell_angle_alpha   89.93562652
_cell_angle_beta   89.89258393
_cell_angle_gamma   60.13090272
_symmetry_Int_Tables_number   1
_chemical_formula_structural   Sc4Al5N9
_chemical_formula_sum   'Sc16 Al20 N36'
_cell_volume   878.80323048
_cell_formula_units_Z   4
loop_
 _symmetry_equiv_pos_site_id
 _symmetry_equiv_pos_as_xyz
  1  'x, y, z'
loop_
 _atom_site_type_symbol
 _atom_site_label
 _atom_site_symmetry_multiplicity
 _atom_site_fract_x
 _atom_site_fract_y
 _atom_site_fract_z
 _atom_site_occupancy
  Sc  Sc0  1  0.10155716  0.10244834  0.35861471  1
  Sc  Sc1  1  0.87048019  0.21118560  0.60873934  1
  Sc  Sc2  1  0.45603899  0.09474620  0.35684619  1
  Sc  Sc3  1  0.09644507  0.11014690  0.86625345  1
  Sc  Sc4  1  0.22511705  0.21734722  0.61496767  1
  Sc  Sc5  1  0.45056262  0.09440411  0.86982884  1
  Sc  Sc6  1  0.10510958  0.43860862  0.35134083  1
  Sc  Sc7  1  0.89105823  0.54054844  0.62142690  1
  Sc  Sc8  1  0.45176839  0.42389489  0.36429258  1
  Sc  Sc9  1  0.09806888  0.76042654  0.36551849  1
  Sc  Sc10  1  0.22212180  0.87031130  0.10916210  1
  Sc  Sc11  1  0.45698827  0.74722445  0.36052147  1
  Sc  Sc12  1  0.09917999  0.75779466  0.86286517  1
  Sc  Sc13  1  0.22275983  0.86755392  0.61371972  1
  Sc  Sc14  1  0.45852765  0.75039467  0.86511608  1
  Sc  Sc15  1  0.57021663  0.86691825  0.60984585  1
  Al  Al16  1  0.22044776  0.20968015  0.12375213  1
  Al  Al17  1  0.77350791  0.10000207  0.88164054  1
  Al  Al18  1  0.56560373  0.20494878  0.11963369  1
  Al  Al19  1  0.77150347  0.09084709  0.37469087  1
  Al  Al20  1  0.87624956  0.21352870  0.13299744  1
  Al  Al21  1  0.56017614  0.20802802  0.63704493  1
  Al  Al22  1  0.22501524  0.53721424  0.11488904  1
  Al  Al23  1  0.77705196  0.42220835  0.88187520  1
  Al  Al24  1  0.56770058  0.52914655  0.11903634  1
  Al  Al25  1  0.11007772  0.43017376  0.89030715  1
  Al  Al26  1  0.22985036  0.53159781  0.63962475  1
  Al  Al27  1  0.76991316  0.43430802  0.37477364  1
  Al  Al28  1  0.88051211  0.54108422  0.12002810  1
  Al  Al29  1  0.45240369  0.42024852  0.88141863  1
  Al  Al30  1  0.55673448  0.52817257  0.63761627  1
  Al  Al31  1  0.77962074  0.76168285  0.88645063  1
  Al  Al32  1  0.87776522  0.87711874  0.63338908  1
  Al  Al33  1  0.56809570  0.86427955  0.13046586  1
  Al  Al34  1  0.78297090  0.76104854  0.36919156  1
  Al  Al35  1  0.87939639  0.87707793  0.12383462  1
  N  N36  1  0.22569094  0.20753605  0.33501400  1
  N  N37  1  0.09463463  0.11607491  0.10534290  1
  N  N38  1  0.86606822  0.21552728  0.83672539  1
  N  N39  1  0.76403406  0.08391743  0.57865459  1
  N  N40  1  0.57646270  0.19888855  0.31847538  1
  N  N41  1  0.44839482  0.09018510  0.10204881  1
  N  N42  1  0.21498836  0.22523855  0.84887571  1
  N  N43  1  0.10443359  0.10267699  0.59797718  1
  N  N44  1  0.86437244  0.21626494  0.34198268  1
  N  N45  1  0.78104351  0.09511400  0.08282233  1
  N  N46  1  0.56715764  0.21245946  0.84237752  1
  N  N47  1  0.45677021  0.10471181  0.59875184  1
  N  N48  1  0.22897204  0.53974834  0.31534471  1
  N  N49  1  0.10802718  0.43029141  0.09556732  1
  N  N50  1  0.89170330  0.53959777  0.85437202  1
  N  N51  1  0.75511299  0.44352751  0.57808818  1
  N  N52  1  0.57580489  0.52336544  0.31828158  1
  N  N53  1  0.44837270  0.42613476  0.08578099  1
  N  N54  1  0.23637564  0.51645312  0.84767788  1
  N  N55  1  0.11873500  0.44519211  0.58006894  1
  N  N56  1  0.86847483  0.54736232  0.32911647  1
  N  N57  1  0.78063227  0.42445759  0.08303417  1
  N  N58  1  0.56868997  0.51514844  0.84266978  1
  N  N59  1  0.44579688  0.42629916  0.59827221  1
  N  N60  1  0.22211537  0.86886720  0.34959584  1
  N  N61  1  0.09503742  0.75650900  0.09420642  1
  N  N62  1  0.86273351  0.88743901  0.83723337  1
  N  N63  1  0.79586941  0.76408647  0.57141909  1
  N  N64  1  0.57677425  0.86067608  0.34074360  1
  N  N65  1  0.46598744  0.75049005  0.10013087  1
  N  N66  1  0.22176073  0.87250759  0.85788933  1
  N  N67  1  0.09946194  0.75238233  0.60993005  1
  N  N68  1  0.86767554  0.88421408  0.32411163  1
  N  N69  1  0.77860661  0.76124669  0.08837628  1
  N  N70  1  0.57931998  0.86012917  0.83750783  1
  N  N71  1  0.45616898  0.73831081  0.60221657  1
