# generated using pymatgen
data_Sc4Al5N9
_symmetry_space_group_name_H-M   'P 1'
_cell_length_a   10.53050263
_cell_length_b   10.42067525
_cell_length_c   9.14175080
_cell_angle_alpha   89.97210573
_cell_angle_beta   90.07184353
_cell_angle_gamma   60.04879966
_symmetry_Int_Tables_number   1
_chemical_formula_structural   Sc4Al5N9
_chemical_formula_sum   'Sc16 Al20 N36'
_cell_volume   869.19580582
_cell_formula_units_Z   4
loop_
 _symmetry_equiv_pos_site_id
 _symmetry_equiv_pos_as_xyz
  1  'x, y, z'
loop_
 _atom_site_type_symbol
 _atom_site_label
 _atom_site_symmetry_multiplicity
 _atom_site_fract_x
 _atom_site_fract_y
 _atom_site_fract_z
 _atom_site_occupancy
  Sc  Sc0  1  0.10081491  0.10372513  0.35449763  1
  Sc  Sc1  1  0.86911214  0.21301790  0.60670204  1
  Sc  Sc2  1  0.45572461  0.09455711  0.35353024  1
  Sc  Sc3  1  0.09851127  0.10829024  0.86072448  1
  Sc  Sc4  1  0.22583622  0.21585230  0.61049397  1
  Sc  Sc5  1  0.45144172  0.09457138  0.86599884  1
  Sc  Sc6  1  0.10552253  0.43808105  0.34915838  1
  Sc  Sc7  1  0.88910294  0.54057049  0.61743800  1
  Sc  Sc8  1  0.45286954  0.42429017  0.35941754  1
  Sc  Sc9  1  0.09843947  0.76043752  0.36051494  1
  Sc  Sc10  1  0.22218712  0.87058241  0.10757912  1
  Sc  Sc11  1  0.45852795  0.74610970  0.35698778  1
  Sc  Sc12  1  0.09850886  0.75846634  0.86127022  1
  Sc  Sc13  1  0.22217643  0.86748315  0.60901968  1
  Sc  Sc14  1  0.45577667  0.75366530  0.86296091  1
  Sc  Sc15  1  0.57108869  0.86591294  0.60736077  1
  Al  Al16  1  0.22083253  0.21012008  0.11364518  1
  Al  Al17  1  0.77334157  0.09752358  0.87965213  1
  Al  Al18  1  0.56480987  0.20475722  0.11548671  1
  Al  Al19  1  0.77186229  0.09217284  0.36872862  1
  Al  Al20  1  0.87893963  0.20989701  0.11418585  1
  Al  Al21  1  0.56075986  0.20765239  0.63440223  1
  Al  Al22  1  0.22547627  0.53594883  0.11172833  1
  Al  Al23  1  0.77534947  0.42380770  0.86872695  1
  Al  Al24  1  0.56498472  0.52968131  0.10618703  1
  Al  Al25  1  0.11173162  0.43065168  0.88343085  1
  Al  Al26  1  0.22888993  0.53284673  0.63594425  1
  Al  Al27  1  0.77507538  0.43044970  0.34028226  1
  Al  Al28  1  0.88453852  0.54104666  0.10619632  1
  Al  Al29  1  0.44955506  0.42027352  0.87879804  1
  Al  Al30  1  0.55449560  0.52943578  0.64080893  1
  Al  Al31  1  0.78021705  0.76327870  0.88432601  1
  Al  Al32  1  0.87768985  0.87744465  0.62785645  1
  Al  Al33  1  0.56727667  0.86505163  0.12355339  1
  Al  Al34  1  0.78230434  0.76089449  0.36286379  1
  Al  Al35  1  0.87925661  0.87729006  0.12186331  1
  N  N36  1  0.22550315  0.20763427  0.34063805  1
  N  N37  1  0.09696405  0.11439768  0.10483982  1
  N  N38  1  0.86779981  0.21216085  0.85165775  1
  N  N39  1  0.76432900  0.08577873  0.58314470  1
  N  N40  1  0.57523599  0.19901966  0.32341505  1
  N  N41  1  0.44865186  0.09015739  0.10323124  1
  N  N42  1  0.21652529  0.22370558  0.85733911  1
  N  N43  1  0.10289779  0.10378073  0.60322985  1
  N  N44  1  0.86534313  0.21624331  0.34133521  1
  N  N45  1  0.78006998  0.09299102  0.08830147  1
  N  N46  1  0.56734951  0.21229927  0.84872280  1
  N  N47  1  0.45730548  0.10402062  0.60410312  1
  N  N48  1  0.22907271  0.53858640  0.32205214  1
  N  N49  1  0.10947957  0.43046230  0.09624057  1
  N  N50  1  0.89272625  0.54212988  0.86375311  1
  N  N51  1  0.75542384  0.44266002  0.61072167  1
  N  N52  1  0.57654022  0.52318383  0.31940241  1
  N  N53  1  0.44618156  0.42482357  0.09037053  1
  N  N54  1  0.23546150  0.51850261  0.85254025  1
  N  N55  1  0.11794205  0.44384111  0.59002133  1
  N  N56  1  0.87050609  0.54606051  0.33239150  1
  N  N57  1  0.78177963  0.42511164  0.08870340  1
  N  N58  1  0.56323858  0.51861971  0.85899299  1
  N  N59  1  0.44578654  0.42682030  0.60536848  1
  N  N60  1  0.22249847  0.86947783  0.35316348  1
  N  N61  1  0.09496082  0.75697268  0.09866414  1
  N  N62  1  0.86357782  0.88678704  0.84071593  1
  N  N63  1  0.79475843  0.76395528  0.57597053  1
  N  N64  1  0.57602586  0.86087577  0.34401955  1
  N  N65  1  0.46356341  0.75307781  0.10235043  1
  N  N66  1  0.22079220  0.87186950  0.85830914  1
  N  N67  1  0.09925221  0.75257352  0.60943184  1
  N  N68  1  0.86828014  0.88407882  0.33018131  1
  N  N69  1  0.77901959  0.76231039  0.09450885  1
  N  N70  1  0.57911237  0.86032899  0.84570031  1
  N  N71  1  0.45587433  0.73824578  0.60655008  1
