# generated using pymatgen
data_Sc4Al5N9
_symmetry_space_group_name_H-M   'P 1'
_cell_length_a   10.36388701
_cell_length_b   10.27342125
_cell_length_c   9.62196214
_cell_angle_alpha   89.91626997
_cell_angle_beta   90.16834779
_cell_angle_gamma   60.11482409
_symmetry_Int_Tables_number   1
_chemical_formula_structural   Sc4Al5N9
_chemical_formula_sum   'Sc16 Al20 N36'
_cell_volume   888.23734787
_cell_formula_units_Z   4
loop_
 _symmetry_equiv_pos_site_id
 _symmetry_equiv_pos_as_xyz
  1  'x, y, z'
loop_
 _atom_site_type_symbol
 _atom_site_label
 _atom_site_symmetry_multiplicity
 _atom_site_fract_x
 _atom_site_fract_y
 _atom_site_fract_z
 _atom_site_occupancy
  Sc  Sc0  1  0.10012645  0.10589901  0.33348545  1
  Sc  Sc1  1  0.87050717  0.21150926  0.58629418  1
  Sc  Sc2  1  0.45583701  0.08951281  0.32556307  1
  Sc  Sc3  1  0.09814379  0.10568879  0.84488033  1
  Sc  Sc4  1  0.22727640  0.21318849  0.59543236  1
  Sc  Sc5  1  0.45238800  0.09954985  0.84864824  1
  Sc  Sc6  1  0.10323597  0.43334608  0.34467978  1
  Sc  Sc7  1  0.88673823  0.54150243  0.59436020  1
  Sc  Sc8  1  0.45348723  0.42253258  0.34601026  1
  Sc  Sc9  1  0.09740016  0.76331417  0.34506721  1
  Sc  Sc10  1  0.22430178  0.86978798  0.09328401  1
  Sc  Sc11  1  0.46172576  0.75132543  0.33594046  1
  Sc  Sc12  1  0.09854532  0.75814186  0.85110834  1
  Sc  Sc13  1  0.22227155  0.86760749  0.59179455  1
  Sc  Sc14  1  0.45556164  0.74568610  0.84210294  1
  Sc  Sc15  1  0.56813931  0.86973736  0.59528483  1
  Al  Al16  1  0.21990205  0.21120799  0.07280065  1
  Al  Al17  1  0.76953031  0.09605536  0.82891344  1
  Al  Al18  1  0.56220824  0.21372686  0.07192518  1
  Al  Al19  1  0.77432349  0.09574543  0.32153118  1
  Al  Al20  1  0.87641958  0.21289094  0.07446739  1
  Al  Al21  1  0.56492802  0.19930298  0.57708706  1
  Al  Al22  1  0.22708941  0.53572117  0.12167177  1
  Al  Al23  1  0.76891542  0.42609633  0.83420417  1
  Al  Al24  1  0.56261099  0.52647133  0.07322698  1
  Al  Al25  1  0.11139404  0.43507377  0.88060112  1
  Al  Al26  1  0.22358863  0.53598071  0.62879652  1
  Al  Al27  1  0.77588477  0.42959671  0.31716220  1
  Al  Al28  1  0.88203166  0.54285837  0.07576924  1
  Al  Al29  1  0.45452358  0.41952522  0.82265676  1
  Al  Al30  1  0.56168204  0.53166454  0.57726552  1
  Al  Al31  1  0.78490159  0.76337283  0.83194265  1
  Al  Al32  1  0.87970322  0.87618211  0.57346996  1
  Al  Al33  1  0.57011240  0.86142678  0.06753856  1
  Al  Al34  1  0.77618893  0.76063752  0.31994817  1
  Al  Al35  1  0.87674139  0.87777782  0.07820012  1
  N  N36  1  0.22955808  0.20225576  0.36575615  1
  N  N37  1  0.09703392  0.11685499  0.09926286  1
  N  N38  1  0.86431470  0.21399298  0.87253311  1
  N  N39  1  0.76939437  0.08202247  0.63162781  1
  N  N40  1  0.57752080  0.19317561  0.37976530  1
  N  N41  1  0.44800566  0.09259125  0.09549064  1
  N  N42  1  0.21424998  0.22544449  0.86508807  1
  N  N43  1  0.10206759  0.10162410  0.61448343  1
  N  N44  1  0.86620203  0.21712192  0.36190585  1
  N  N45  1  0.77558476  0.09650551  0.12313606  1
  N  N46  1  0.56702724  0.21697238  0.87647938  1
  N  N47  1  0.45747857  0.10376566  0.62337181  1
  N  N48  1  0.22494791  0.53838597  0.32161703  1
  N  N49  1  0.10991079  0.43153232  0.09230323  1
  N  N50  1  0.89012276  0.54087106  0.87098226  1
  N  N51  1  0.75815338  0.43818249  0.64005558  1
  N  N52  1  0.58055675  0.52413498  0.37945739  1
  N  N53  1  0.44941563  0.42582731  0.11604737  1
  N  N54  1  0.23650866  0.51781262  0.83591776  1
  N  N55  1  0.11669594  0.44369096  0.58009018  1
  N  N56  1  0.86640848  0.54884066  0.36141331  1
  N  N57  1  0.77703428  0.42867263  0.11528874  1
  N  N58  1  0.56381879  0.51468648  0.87770288  1
  N  N59  1  0.44928344  0.42530741  0.61328506  1
  N  N60  1  0.22434896  0.87096520  0.34776287  1
  N  N61  1  0.09635427  0.75521904  0.09827510  1
  N  N62  1  0.86372028  0.88910009  0.88320417  1
  N  N63  1  0.79421657  0.76702559  0.63714703  1
  N  N64  1  0.57754742  0.86288249  0.37263179  1
  N  N65  1  0.46903219  0.74626519  0.10217774  1
  N  N66  1  0.22148316  0.86951416  0.86131995  1
  N  N67  1  0.09819175  0.75470308  0.60369728  1
  N  N68  1  0.86352019  0.88420343  0.37148953  1
  N  N69  1  0.77894463  0.76009400  0.11947082  1
  N  N70  1  0.57837262  0.85850107  0.86669805  1
  N  N71  1  0.45518917  0.74111661  0.61263319  1
