# generated using pymatgen
data_Sc4Al5N9
_symmetry_space_group_name_H-M   'P 1'
_cell_length_a   10.14485230
_cell_length_b   10.09735866
_cell_length_c   10.13056757
_cell_angle_alpha   89.95325564
_cell_angle_beta   90.08108736
_cell_angle_gamma   60.12474726
_symmetry_Int_Tables_number   1
_chemical_formula_structural   Sc4Al5N9
_chemical_formula_sum   'Sc16 Al20 N36'
_cell_volume   899.83186964
_cell_formula_units_Z   4
loop_
 _symmetry_equiv_pos_site_id
 _symmetry_equiv_pos_as_xyz
  1  'x, y, z'
loop_
 _atom_site_type_symbol
 _atom_site_label
 _atom_site_symmetry_multiplicity
 _atom_site_fract_x
 _atom_site_fract_y
 _atom_site_fract_z
 _atom_site_occupancy
  Sc  Sc0  1  0.10118158  0.10726426  0.30278185  1
  Sc  Sc1  1  0.87291699  0.21085359  0.56355815  1
  Sc  Sc2  1  0.45310209  0.09290546  0.30133944  1
  Sc  Sc3  1  0.09857714  0.10310601  0.82596146  1
  Sc  Sc4  1  0.22686467  0.21239645  0.57523961  1
  Sc  Sc5  1  0.45222874  0.09762219  0.83157405  1
  Sc  Sc6  1  0.10532785  0.43317086  0.30709516  1
  Sc  Sc7  1  0.88515470  0.54331018  0.57166605  1
  Sc  Sc8  1  0.45211948  0.42321221  0.32077253  1
  Sc  Sc9  1  0.09860872  0.75956498  0.31290415  1
  Sc  Sc10  1  0.22423663  0.86727960  0.06905259  1
  Sc  Sc11  1  0.46278567  0.74956944  0.31077626  1
  Sc  Sc12  1  0.10046560  0.75653491  0.81712659  1
  Sc  Sc13  1  0.22141887  0.86931795  0.55942075  1
  Sc  Sc14  1  0.45479764  0.74643686  0.81889961  1
  Sc  Sc15  1  0.56543353  0.87277933  0.56932114  1
  Al  Al16  1  0.21524713  0.21814525  0.04551759  1
  Al  Al17  1  0.76972181  0.09740810  0.81169547  1
  Al  Al18  1  0.56091873  0.21180879  0.05298519  1
  Al  Al19  1  0.77426334  0.09500922  0.30607867  1
  Al  Al20  1  0.87573139  0.21386067  0.05600141  1
  Al  Al21  1  0.56196973  0.20278298  0.56299884  1
  Al  Al22  1  0.22687985  0.52985971  0.05004205  1
  Al  Al23  1  0.77046503  0.42665098  0.81509126  1
  Al  Al24  1  0.56341871  0.52752017  0.05446391  1
  Al  Al25  1  0.11166259  0.43458521  0.81239140  1
  Al  Al26  1  0.22454699  0.53955939  0.56470031  1
  Al  Al27  1  0.77674009  0.42917681  0.30178914  1
  Al  Al28  1  0.88803537  0.53983666  0.05254274  1
  Al  Al29  1  0.45182521  0.42128890  0.80663644  1
  Al  Al30  1  0.55958920  0.53151005  0.56169338  1
  Al  Al31  1  0.78348442  0.76224269  0.81344885  1
  Al  Al32  1  0.88069682  0.87677834  0.55816196  1
  Al  Al33  1  0.57039932  0.86078848  0.05095155  1
  Al  Al34  1  0.77751027  0.76132342  0.30289246  1
  Al  Al35  1  0.87873042  0.87461101  0.05759729  1
  N  N36  1  0.22662608  0.20674337  0.36390536  1
  N  N37  1  0.09785945  0.11693575  0.08649199  1
  N  N38  1  0.86332274  0.21569294  0.86632494  1
  N  N39  1  0.76943866  0.08416664  0.62298064  1
  N  N40  1  0.57557898  0.19404228  0.37414480  1
  N  N41  1  0.44582014  0.09471148  0.08216970  1
  N  N42  1  0.21210714  0.22643755  0.85721656  1
  N  N43  1  0.10358827  0.09935325  0.61221985  1
  N  N44  1  0.86887350  0.21550834  0.35121934  1
  N  N45  1  0.77543895  0.09467504  0.11498164  1
  N  N46  1  0.56670028  0.21769566  0.86788351  1
  N  N47  1  0.45699057  0.10405208  0.61908674  1
  N  N48  1  0.22399973  0.53610189  0.37786068  1
  N  N49  1  0.10968953  0.43026943  0.09585329  1
  N  N50  1  0.88941352  0.54011433  0.86056368  1
  N  N51  1  0.75861946  0.43747015  0.63000482  1
  N  N52  1  0.58040977  0.52348574  0.37384126  1
  N  N53  1  0.44467474  0.42736764  0.10788370  1
  N  N54  1  0.23947336  0.51822998  0.86274803  1
  N  N55  1  0.11647341  0.44423551  0.62396274  1
  N  N56  1  0.87078509  0.54804205  0.35627031  1
  N  N57  1  0.77760698  0.42902311  0.10937514  1
  N  N58  1  0.56449913  0.51531089  0.86920121  1
  N  N59  1  0.44730874  0.42650980  0.61147572  1
  N  N60  1  0.22345966  0.87172306  0.33748661  1
  N  N61  1  0.09819542  0.74749439  0.09613496  1
  N  N62  1  0.86539779  0.88773041  0.87216465  1
  N  N63  1  0.79132576  0.76898228  0.62797767  1
  N  N64  1  0.57536175  0.86605154  0.35888617  1
  N  N65  1  0.46944479  0.74539727  0.09426100  1
  N  N66  1  0.22174961  0.86710876  0.85961445  1
  N  N67  1  0.09786762  0.75782009  0.60036580  1
  N  N68  1  0.86583182  0.88352198  0.36611143  1
  N  N69  1  0.78067764  0.75844055  0.11140583  1
  N  N70  1  0.57874119  0.85665193  0.86297456  1
  N  N71  1  0.45418268  0.74257916  0.60407018  1
