# generated using pymatgen
data_Sc4Al5N9
_symmetry_space_group_name_H-M   'P 1'
_cell_length_a   10.14496307
_cell_length_b   10.09729637
_cell_length_c   10.13092325
_cell_angle_alpha   89.95279599
_cell_angle_beta   90.08086551
_cell_angle_gamma   60.12536928
_symmetry_Int_Tables_number   1
_chemical_formula_structural   Sc4Al5N9
_chemical_formula_sum   'Sc16 Al20 N36'
_cell_volume   899.87334118
_cell_formula_units_Z   4
loop_
 _symmetry_equiv_pos_site_id
 _symmetry_equiv_pos_as_xyz
  1  'x, y, z'
loop_
 _atom_site_type_symbol
 _atom_site_label
 _atom_site_symmetry_multiplicity
 _atom_site_fract_x
 _atom_site_fract_y
 _atom_site_fract_z
 _atom_site_occupancy
  Sc  Sc0  1  0.10123880  0.10727171  0.31376066  1
  Sc  Sc1  1  0.87297290  0.21084966  0.57454141  1
  Sc  Sc2  1  0.45315376  0.09290791  0.31231350  1
  Sc  Sc3  1  0.09863668  0.10311043  0.83694406  1
  Sc  Sc4  1  0.22692992  0.21240061  0.58622144  1
  Sc  Sc5  1  0.45229246  0.09760812  0.84255984  1
  Sc  Sc6  1  0.10538588  0.43317601  0.31807523  1
  Sc  Sc7  1  0.88522382  0.54330334  0.58266294  1
  Sc  Sc8  1  0.45218932  0.42320049  0.33175553  1
  Sc  Sc9  1  0.09868039  0.75957232  0.32390677  1
  Sc  Sc10  1  0.22430302  0.86727650  0.08002622  1
  Sc  Sc11  1  0.46284656  0.74957033  0.32176232  1
  Sc  Sc12  1  0.10053780  0.75653326  0.82808664  1
  Sc  Sc13  1  0.22148921  0.86933545  0.57040501  1
  Sc  Sc14  1  0.45487038  0.74643137  0.82987197  1
  Sc  Sc15  1  0.56550962  0.87277844  0.58028708  1
  Al  Al16  1  0.21530837  0.21814321  0.05649555  1
  Al  Al17  1  0.76978017  0.09739958  0.82268236  1
  Al  Al18  1  0.56097707  0.21180220  0.06396051  1
  Al  Al19  1  0.77431717  0.09500289  0.31706207  1
  Al  Al20  1  0.87579094  0.21385420  0.06698359  1
  Al  Al21  1  0.56202840  0.20277428  0.57398850  1
  Al  Al22  1  0.22694234  0.52986410  0.06102555  1
  Al  Al23  1  0.77052143  0.42664365  0.82607407  1
  Al  Al24  1  0.56347927  0.52751815  0.06544446  1
  Al  Al25  1  0.11173525  0.43458195  0.82337799  1
  Al  Al26  1  0.22461778  0.53955692  0.57567406  1
  Al  Al27  1  0.77680128  0.42917440  0.31277519  1
  Al  Al28  1  0.88810098  0.53982686  0.06351988  1
  Al  Al29  1  0.45188704  0.42128366  0.81762176  1
  Al  Al30  1  0.55965255  0.53151123  0.57267629  1
  Al  Al31  1  0.78355108  0.76223596  0.82443174  1
  Al  Al32  1  0.88076061  0.87677543  0.56914067  1
  Al  Al33  1  0.57046755  0.86077491  0.06193956  1
  Al  Al34  1  0.77757202  0.76131883  0.31387496  1
  Al  Al35  1  0.87880721  0.87459641  0.06858050  1
  N  N36  1  0.22667735  0.20675549  0.37488583  1
  N  N37  1  0.09792057  0.11692982  0.09747098  1
  N  N38  1  0.86338300  0.21568551  0.87731226  1
  N  N39  1  0.76949990  0.08416079  0.63396953  1
  N  N40  1  0.57563724  0.19403398  0.38513261  1
  N  N41  1  0.44587958  0.09470533  0.09314962  1
  N  N42  1  0.21217157  0.22643385  0.86820060  1
  N  N43  1  0.10363838  0.09937123  0.62320587  1
  N  N44  1  0.86893076  0.21550243  0.36220259  1
  N  N45  1  0.77549703  0.09466716  0.12596613  1
  N  N46  1  0.56675912  0.21768515  0.87886753  1
  N  N47  1  0.45704856  0.10404417  0.63007362  1
  N  N48  1  0.22407082  0.53609704  0.38883906  1
  N  N49  1  0.10975254  0.43026759  0.10683482  1
  N  N50  1  0.88948031  0.54010372  0.87154542  1
  N  N51  1  0.75867924  0.43746505  0.64099327  1
  N  N52  1  0.58047214  0.52348057  0.38482530  1
  N  N53  1  0.44474077  0.42735859  0.11887020  1
  N  N54  1  0.23953346  0.51824000  0.87373743  1
  N  N55  1  0.11654331  0.44424062  0.63495184  1
  N  N56  1  0.87084712  0.54803801  0.36726694  1
  N  N57  1  0.77767000  0.42901717  0.12036043  1
  N  N58  1  0.56455938  0.51531093  0.88018794  1
  N  N59  1  0.44737283  0.42650874  0.62246140  1
  N  N60  1  0.22352481  0.87173612  0.34848134  1
  N  N61  1  0.09826734  0.74749451  0.10713909  1
  N  N62  1  0.86547899  0.88771422  0.88315373  1
  N  N63  1  0.79139740  0.76897344  0.63896594  1
  N  N64  1  0.57542451  0.86605311  0.36985092  1
  N  N65  1  0.46950539  0.74539070  0.10525076  1
  N  N66  1  0.22181972  0.86710766  0.87058355  1
  N  N67  1  0.09794169  0.75782621  0.61132692  1
  N  N68  1  0.86589786  0.88351381  0.37709383  1
  N  N69  1  0.78075077  0.75842660  0.12238878  1
  N  N70  1  0.57881609  0.85663753  0.87396802  1
  N  N71  1  0.45425717  0.74258219  0.61504221  1
