# generated using pymatgen
data_Sc4Al5N9
_symmetry_space_group_name_H-M   'P 1'
_cell_length_a   10.47165345
_cell_length_b   10.36466446
_cell_length_c   9.31180328
_cell_angle_alpha   89.97645843
_cell_angle_beta   90.14212281
_cell_angle_gamma   60.11061954
_symmetry_Int_Tables_number   1
_chemical_formula_structural   Sc4Al5N9
_chemical_formula_sum   'Sc16 Al20 N36'
_cell_volume   876.22538754
_cell_formula_units_Z   4
loop_
 _symmetry_equiv_pos_site_id
 _symmetry_equiv_pos_as_xyz
  1  'x, y, z'
loop_
 _atom_site_type_symbol
 _atom_site_label
 _atom_site_symmetry_multiplicity
 _atom_site_fract_x
 _atom_site_fract_y
 _atom_site_fract_z
 _atom_site_occupancy
  Sc  Sc0  1  0.09829553  0.10561685  0.34294360  1
  Sc  Sc1  1  0.86923643  0.21228176  0.59322146  1
  Sc  Sc2  1  0.45808298  0.08861385  0.33566845  1
  Sc  Sc3  1  0.09942958  0.10739836  0.85033874  1
  Sc  Sc4  1  0.22626886  0.21485206  0.59974421  1
  Sc  Sc5  1  0.45029719  0.10012498  0.85174015  1
  Sc  Sc6  1  0.10246823  0.43761692  0.34330968  1
  Sc  Sc7  1  0.88812067  0.54015782  0.60137413  1
  Sc  Sc8  1  0.45168216  0.42367484  0.34671525  1
  Sc  Sc9  1  0.09885431  0.76235511  0.34683452  1
  Sc  Sc10  1  0.22378104  0.87081820  0.09758242  1
  Sc  Sc11  1  0.46048762  0.75135774  0.34260697  1
  Sc  Sc12  1  0.09732119  0.75927201  0.85252688  1
  Sc  Sc13  1  0.22193245  0.86776741  0.59796579  1
  Sc  Sc14  1  0.45544943  0.74597916  0.84600492  1
  Sc  Sc15  1  0.57035399  0.86719426  0.60003085  1
  Al  Al16  1  0.22041095  0.21080655  0.10006120  1
  Al  Al17  1  0.76971431  0.09484700  0.83305560  1
  Al  Al18  1  0.56255554  0.21146248  0.07648915  1
  Al  Al19  1  0.77456499  0.09636405  0.32336635  1
  Al  Al20  1  0.87696253  0.21154824  0.07886515  1
  Al  Al21  1  0.56458145  0.20061947  0.58026538  1
  Al  Al22  1  0.22752725  0.53595006  0.11278701  1
  Al  Al23  1  0.76861315  0.42635166  0.84065546  1
  Al  Al24  1  0.56199103  0.52742931  0.07785321  1
  Al  Al25  1  0.11270684  0.43149213  0.87923159  1
  Al  Al26  1  0.22496063  0.53568340  0.62772731  1
  Al  Al27  1  0.77615073  0.42929776  0.31813741  1
  Al  Al28  1  0.88342912  0.54170352  0.07977370  1
  Al  Al29  1  0.45302425  0.42022026  0.83235809  1
  Al  Al30  1  0.56128535  0.53093568  0.58044255  1
  Al  Al31  1  0.78534151  0.76315941  0.83809760  1
  Al  Al32  1  0.87935090  0.87593787  0.57486065  1
  Al  Al33  1  0.56938380  0.86248519  0.07333820  1
  Al  Al34  1  0.77693511  0.75933968  0.32085843  1
  Al  Al35  1  0.87746555  0.87791561  0.08351350  1
  N  N36  1  0.22703244  0.20605892  0.34004962  1
  N  N37  1  0.09571364  0.11584755  0.09859325  1
  N  N38  1  0.86558294  0.21267117  0.86697633  1
  N  N39  1  0.76896474  0.08158491  0.62746754  1
  N  N40  1  0.57766976  0.19555368  0.37398636  1
  N  N41  1  0.45116323  0.09104765  0.09750199  1
  N  N42  1  0.21564350  0.22459050  0.85727891  1
  N  N43  1  0.10222587  0.10346013  0.60359395  1
  N  N44  1  0.86511236  0.21795614  0.35785020  1
  N  N45  1  0.77562544  0.09685926  0.11846429  1
  N  N46  1  0.56642954  0.21513626  0.87219509  1
  N  N47  1  0.45607463  0.10303588  0.61119928  1
  N  N48  1  0.22574722  0.53923511  0.32215931  1
  N  N49  1  0.10902508  0.43190745  0.09260661  1
  N  N50  1  0.89182699  0.53949528  0.86770320  1
  N  N51  1  0.75774685  0.43939849  0.63735016  1
  N  N52  1  0.58001854  0.52316019  0.37262675  1
  N  N53  1  0.44862414  0.42557525  0.10863798  1
  N  N54  1  0.23611029  0.51895139  0.84437580  1
  N  N55  1  0.11766876  0.44303101  0.58381626  1
  N  N56  1  0.86762772  0.54765249  0.35538135  1
  N  N57  1  0.77706787  0.42828778  0.10824019  1
  N  N58  1  0.56293948  0.51605219  0.87451554  1
  N  N59  1  0.44757154  0.42611875  0.61267262  1
  N  N60  1  0.22371772  0.87119712  0.34670632  1
  N  N61  1  0.09662972  0.75666365  0.09796489  1
  N  N62  1  0.86495660  0.88836789  0.88093236  1
  N  N63  1  0.79521116  0.76560159  0.63384104  1
  N  N64  1  0.57882048  0.86059378  0.36747787  1
  N  N65  1  0.46768519  0.74737025  0.10075012  1
  N  N66  1  0.22101818  0.87078040  0.85485697  1
  N  N67  1  0.09808773  0.75418686  0.60275973  1
  N  N68  1  0.86455579  0.88342744  0.36463005  1
  N  N69  1  0.77949803  0.75928496  0.11335948  1
  N  N70  1  0.57737680  0.85956784  0.86255937  1
  N  N71  1  0.45482693  0.74116937  0.60692548  1
