# generated using pymatgen
data_Sc4Al5N9
_symmetry_space_group_name_H-M   'P 1'
_cell_length_a   10.61347049
_cell_length_b   10.48644426
_cell_length_c   8.96011703
_cell_angle_alpha   89.99226169
_cell_angle_beta   90.30724877
_cell_angle_gamma   60.01557219
_symmetry_Int_Tables_number   1
_chemical_formula_structural   Sc4Al5N9
_chemical_formula_sum   'Sc16 Al20 N36'
_cell_volume   863.75300478
_cell_formula_units_Z   4
loop_
 _symmetry_equiv_pos_site_id
 _symmetry_equiv_pos_as_xyz
  1  'x, y, z'
loop_
 _atom_site_type_symbol
 _atom_site_label
 _atom_site_symmetry_multiplicity
 _atom_site_fract_x
 _atom_site_fract_y
 _atom_site_fract_z
 _atom_site_occupancy
  Sc  Sc0  1  0.10013809  0.10510410  0.34465325  1
  Sc  Sc1  1  0.86761324  0.21377226  0.59500636  1
  Sc  Sc2  1  0.45584319  0.09122357  0.34179521  1
  Sc  Sc3  1  0.09927229  0.10726602  0.85056911  1
  Sc  Sc4  1  0.22602147  0.21389579  0.60055001  1
  Sc  Sc5  1  0.45143118  0.09894193  0.85449251  1
  Sc  Sc6  1  0.10454939  0.43754130  0.34222916  1
  Sc  Sc7  1  0.88549341  0.53985088  0.60431800  1
  Sc  Sc8  1  0.45262747  0.42684676  0.34851903  1
  Sc  Sc9  1  0.10023335  0.75997951  0.34699487  1
  Sc  Sc10  1  0.22274373  0.87116816  0.09950028  1
  Sc  Sc11  1  0.46140173  0.74673925  0.34774524  1
  Sc  Sc12  1  0.09681302  0.76003636  0.85059060  1
  Sc  Sc13  1  0.22224540  0.86724265  0.59898186  1
  Sc  Sc14  1  0.45312177  0.75380288  0.85448172  1
  Sc  Sc15  1  0.57117064  0.86576709  0.60055560  1
  Al  Al16  1  0.21954739  0.21251365  0.09763542  1
  Al  Al17  1  0.77086999  0.09506578  0.84231912  1
  Al  Al18  1  0.56255457  0.20659760  0.09187900  1
  Al  Al19  1  0.77535937  0.09499747  0.32377451  1
  Al  Al20  1  0.88033720  0.20851461  0.08655672  1
  Al  Al21  1  0.56181314  0.20505193  0.59383017  1
  Al  Al22  1  0.22472793  0.53528557  0.10255557  1
  Al  Al23  1  0.77314300  0.42446758  0.85503184  1
  Al  Al24  1  0.56216532  0.53131361  0.09473114  1
  Al  Al25  1  0.11177810  0.43172155  0.86461561  1
  Al  Al26  1  0.22793764  0.53411589  0.62438582  1
  Al  Al27  1  0.77787437  0.42928630  0.31156642  1
  Al  Al28  1  0.88854321  0.54066187  0.08252521  1
  Al  Al29  1  0.44795465  0.42034316  0.86680179  1
  Al  Al30  1  0.55460577  0.52886529  0.63496024  1
  Al  Al31  1  0.78448320  0.76315842  0.84544948  1
  Al  Al32  1  0.87813873  0.87694970  0.57920273  1
  Al  Al33  1  0.56766758  0.86525085  0.08854117  1
  Al  Al34  1  0.77874443  0.75889283  0.32145531  1
  Al  Al35  1  0.87981282  0.87630776  0.08627879  1
  N  N36  1  0.22541238  0.20802378  0.33930993  1
  N  N37  1  0.09803666  0.11420505  0.09767323  1
  N  N38  1  0.86819607  0.20995594  0.86127192  1
  N  N39  1  0.76734282  0.08444064  0.61759189  1
  N  N40  1  0.57575861  0.19864980  0.35082523  1
  N  N41  1  0.44996654  0.09193804  0.09833085  1
  N  N42  1  0.21714246  0.22264453  0.85733383  1
  N  N43  1  0.10130517  0.10417671  0.59900717  1
  N  N44  1  0.86623993  0.21825361  0.34210800  1
  N  N45  1  0.77826694  0.09389721  0.10692140  1
  N  N46  1  0.56629460  0.21293983  0.86461647  1
  N  N47  1  0.45659836  0.10257651  0.60206742  1
  N  N48  1  0.22803165  0.53690342  0.32466336  1
  N  N49  1  0.10872673  0.43203470  0.08964518  1
  N  N50  1  0.89354208  0.54055959  0.86166844  1
  N  N51  1  0.75571430  0.43979961  0.63063410  1
  N  N52  1  0.57909636  0.52291429  0.31736005  1
  N  N53  1  0.44391079  0.42577013  0.09050293  1
  N  N54  1  0.23454565  0.52103565  0.84989336  1
  N  N55  1  0.11636353  0.44257917  0.59676388  1
  N  N56  1  0.87042361  0.54556320  0.34239399  1
  N  N57  1  0.78305492  0.42684596  0.08732883  1
  N  N58  1  0.55974382  0.52014400  0.86229110  1
  N  N59  1  0.44603746  0.42644228  0.60649881  1
  N  N60  1  0.22375020  0.87002591  0.34729197  1
  N  N61  1  0.09658921  0.75663332  0.09709684  1
  N  N62  1  0.86744063  0.88643320  0.87083175  1
  N  N63  1  0.79312419  0.76503816  0.62338342  1
  N  N64  1  0.57815803  0.85984043  0.35026303  1
  N  N65  1  0.46212078  0.75457213  0.09724560  1
  N  N66  1  0.22001557  0.87175168  0.85100060  1
  N  N67  1  0.09857409  0.75352724  0.60051014  1
  N  N68  1  0.86629028  0.88237535  0.35563304  1
  N  N69  1  0.78140853  0.75913248  0.10290287  1
  N  N70  1  0.57690011  0.86196160  0.85939742  1
  N  N71  1  0.45694807  0.73742708  0.60322283  1
