# generated using pymatgen
data_Sc4Al5N9
_symmetry_space_group_name_H-M   'P 1'
_cell_length_a   10.23509219
_cell_length_b   10.17086793
_cell_length_c   9.90979892
_cell_angle_alpha   89.97646072
_cell_angle_beta   90.08869675
_cell_angle_gamma   60.11956103
_symmetry_Int_Tables_number   1
_chemical_formula_structural   Sc4Al5N9
_chemical_formula_sum   'Sc16 Al20 N36'
_cell_volume   894.47105578
_cell_formula_units_Z   4
loop_
 _symmetry_equiv_pos_site_id
 _symmetry_equiv_pos_as_xyz
  1  'x, y, z'
loop_
 _atom_site_type_symbol
 _atom_site_label
 _atom_site_symmetry_multiplicity
 _atom_site_fract_x
 _atom_site_fract_y
 _atom_site_fract_z
 _atom_site_occupancy
  Sc  Sc0  1  0.10069788  0.10764996  0.32206781  1
  Sc  Sc1  1  0.87194750  0.21084051  0.58031362  1
  Sc  Sc2  1  0.45313688  0.09205344  0.31855416  1
  Sc  Sc3  1  0.09846694  0.10366625  0.84100810  1
  Sc  Sc4  1  0.22734651  0.21190927  0.59206658  1
  Sc  Sc5  1  0.45271503  0.09838865  0.84630733  1
  Sc  Sc6  1  0.10457797  0.43341096  0.32425271  1
  Sc  Sc7  1  0.88493887  0.54263256  0.58884128  1
  Sc  Sc8  1  0.45187058  0.42316201  0.33730427  1
  Sc  Sc9  1  0.09846093  0.76021078  0.32861313  1
  Sc  Sc10  1  0.22438842  0.86838489  0.08582702  1
  Sc  Sc11  1  0.46237981  0.75037948  0.32820507  1
  Sc  Sc12  1  0.10017489  0.75653821  0.83514588  1
  Sc  Sc13  1  0.22143068  0.86851937  0.57841161  1
  Sc  Sc14  1  0.45513710  0.74572235  0.83577782  1
  Sc  Sc15  1  0.56634558  0.87146165  0.58756695  1
  Al  Al16  1  0.21500193  0.21867486  0.06027334  1
  Al  Al17  1  0.76945081  0.09683417  0.82557030  1
  Al  Al18  1  0.56124404  0.21272593  0.06808233  1
  Al  Al19  1  0.77446614  0.09527019  0.31921599  1
  Al  Al20  1  0.87599514  0.21380609  0.07018805  1
  Al  Al21  1  0.56304497  0.20146452  0.57554949  1
  Al  Al22  1  0.22791479  0.52930097  0.06509025  1
  Al  Al23  1  0.76931116  0.42637797  0.82957715  1
  Al  Al24  1  0.56324478  0.52716506  0.06975109  1
  Al  Al25  1  0.11256716  0.43488941  0.82584980  1
  Al  Al26  1  0.22413013  0.54010836  0.57799237  1
  Al  Al27  1  0.77704596  0.42937585  0.31531393  1
  Al  Al28  1  0.88846642  0.53973530  0.06592373  1
  Al  Al29  1  0.45203768  0.42105049  0.81915723  1
  Al  Al30  1  0.56005002  0.53124677  0.57456757  1
  Al  Al31  1  0.78440712  0.76278529  0.82729656  1
  Al  Al32  1  0.88050016  0.87667851  0.57080770  1
  Al  Al33  1  0.57091291  0.86056991  0.06455234  1
  Al  Al34  1  0.77738756  0.76061486  0.31719337  1
  Al  Al35  1  0.87826388  0.87526663  0.07268321  1
  N  N36  1  0.22669196  0.20700138  0.37568228  1
  N  N37  1  0.09759153  0.11773428  0.09842035  1
  N  N38  1  0.86362321  0.21500234  0.87553586  1
  N  N39  1  0.76902269  0.08327022  0.63341923  1
  N  N40  1  0.57631247  0.19364389  0.38322391  1
  N  N41  1  0.44617900  0.09467385  0.09446849  1
  N  N42  1  0.21285723  0.22625558  0.86626552  1
  N  N43  1  0.10300837  0.09985319  0.62081705  1
  N  N44  1  0.86784456  0.21621667  0.36314829  1
  N  N45  1  0.77577534  0.09543708  0.12533515  1
  N  N46  1  0.56680544  0.21792842  0.87884177  1
  N  N47  1  0.45750171  0.10383995  0.62837395  1
  N  N48  1  0.22378145  0.53687507  0.38707728  1
  N  N49  1  0.10954770  0.43085021  0.10755866  1
  N  N50  1  0.89016240  0.54008095  0.87007791  1
  N  N51  1  0.75753760  0.43781032  0.64099620  1
  N  N52  1  0.58055945  0.52345095  0.38269336  1
  N  N53  1  0.44479548  0.42755533  0.12037867  1
  N  N54  1  0.24052260  0.51759161  0.87339681  1
  N  N55  1  0.11670675  0.44424790  0.63262756  1
  N  N56  1  0.87024422  0.54786754  0.36851068  1
  N  N57  1  0.77807132  0.42913046  0.11908309  1
  N  N58  1  0.56408319  0.51458384  0.88053087  1
  N  N59  1  0.44763572  0.42612346  0.62016465  1
  N  N60  1  0.22338856  0.87170066  0.34770359  1
  N  N61  1  0.09851625  0.74828358  0.10539072  1
  N  N62  1  0.86508830  0.88815683  0.88373427  1
  N  N63  1  0.79252428  0.76851755  0.63816202  1
  N  N64  1  0.57638515  0.86494493  0.37175083  1
  N  N65  1  0.46935734  0.74590198  0.10440170  1
  N  N66  1  0.22169614  0.86785683  0.86837886  1
  N  N67  1  0.09702945  0.75780184  0.61140686  1
  N  N68  1  0.86559850  0.88356638  0.37510528  1
  N  N69  1  0.78076919  0.75803430  0.12183228  1
  N  N70  1  0.57888407  0.85726410  0.87105765  1
  N  N71  1  0.45439928  0.74158319  0.61444704  1
