# generated using pymatgen
data_Sc4Al5N9
_symmetry_space_group_name_H-M   'P 1'
_cell_length_a   10.36843709
_cell_length_b   10.27936632
_cell_length_c   9.54519203
_cell_angle_alpha   89.92549273
_cell_angle_beta   89.86853652
_cell_angle_gamma   60.15509739
_symmetry_Int_Tables_number   1
_chemical_formula_structural   Sc4Al5N9
_chemical_formula_sum   'Sc16 Al20 N36'
_cell_volume   882.40998784
_cell_formula_units_Z   4
loop_
 _symmetry_equiv_pos_site_id
 _symmetry_equiv_pos_as_xyz
  1  'x, y, z'
loop_
 _atom_site_type_symbol
 _atom_site_label
 _atom_site_symmetry_multiplicity
 _atom_site_fract_x
 _atom_site_fract_y
 _atom_site_fract_z
 _atom_site_occupancy
  Sc  Sc0  1  0.10153985  0.10207120  0.35991368  1
  Sc  Sc1  1  0.87075205  0.21129276  0.61028550  1
  Sc  Sc2  1  0.45605034  0.09465802  0.35866820  1
  Sc  Sc3  1  0.09632833  0.11057365  0.86937180  1
  Sc  Sc4  1  0.22487388  0.21767264  0.61669413  1
  Sc  Sc5  1  0.45035649  0.09446574  0.87169918  1
  Sc  Sc6  1  0.10491125  0.43865190  0.35248264  1
  Sc  Sc7  1  0.89141779  0.54056114  0.62314585  1
  Sc  Sc8  1  0.45166424  0.42378647  0.36657359  1
  Sc  Sc9  1  0.09807047  0.76034595  0.36887966  1
  Sc  Sc10  1  0.22203201  0.86981063  0.11062743  1
  Sc  Sc11  1  0.45662539  0.74732044  0.36239943  1
  Sc  Sc12  1  0.09932414  0.75737206  0.86351442  1
  Sc  Sc13  1  0.22280092  0.86800273  0.61661529  1
  Sc  Sc14  1  0.45901745  0.74998969  0.86704633  1
  Sc  Sc15  1  0.56995678  0.86709938  0.61127636  1
  Al  Al16  1  0.22069846  0.20953907  0.12690889  1
  Al  Al17  1  0.77318854  0.10020269  0.88234545  1
  Al  Al18  1  0.56540907  0.20485981  0.12174367  1
  Al  Al19  1  0.77163274  0.09080536  0.37604088  1
  Al  Al20  1  0.87597861  0.21364199  0.13474715  1
  Al  Al21  1  0.56006274  0.20807475  0.63746589  1
  Al  Al22  1  0.22477274  0.53749378  0.11691834  1
  Al  Al23  1  0.77696441  0.42237427  0.88314921  1
  Al  Al24  1  0.56755636  0.52919518  0.12140873  1
  Al  Al25  1  0.11026275  0.43005008  0.89189818  1
  Al  Al26  1  0.23009712  0.53125438  0.64039919  1
  Al  Al27  1  0.76993243  0.43430148  0.37585892  1
  Al  Al28  1  0.88018260  0.54147052  0.12193632  1
  Al  Al29  1  0.45256849  0.42006142  0.88229319  1
  Al  Al30  1  0.55691019  0.52814567  0.63791203  1
  Al  Al31  1  0.77950966  0.76174261  0.88713994  1
  Al  Al32  1  0.87768004  0.87722235  0.63447392  1
  Al  Al33  1  0.56824922  0.86419041  0.13269650  1
  Al  Al34  1  0.78301347  0.76103979  0.37088797  1
  Al  Al35  1  0.87965645  0.87666755  0.12516818  1
  N  N36  1  0.22567624  0.20746410  0.33304620  1
  N  N37  1  0.09461441  0.11618740  0.10502658  1
  N  N38  1  0.86607843  0.21575292  0.83511857  1
  N  N39  1  0.76420019  0.08376692  0.57708820  1
  N  N40  1  0.57669873  0.19890093  0.31753932  1
  N  N41  1  0.44833040  0.09034361  0.10158423  1
  N  N42  1  0.21472972  0.22566676  0.84605658  1
  N  N43  1  0.10465434  0.10259866  0.59518106  1
  N  N44  1  0.86409902  0.21641263  0.34071388  1
  N  N45  1  0.78076006  0.09514426  0.08130844  1
  N  N46  1  0.56699056  0.21247324  0.83974349  1
  N  N47  1  0.45665491  0.10483054  0.59616414  1
  N  N48  1  0.22892464  0.54019702  0.31417328  1
  N  N49  1  0.10831058  0.43001780  0.09494408  1
  N  N50  1  0.89195599  0.53950220  0.85271303  1
  N  N51  1  0.75532694  0.44376985  0.57595716  1
  N  N52  1  0.57575642  0.52325733  0.31754205  1
  N  N53  1  0.44836892  0.42610486  0.08430926  1
  N  N54  1  0.23671074  0.51578508  0.84516655  1
  N  N55  1  0.11888746  0.44546804  0.57733054  1
  N  N56  1  0.86800837  0.54781566  0.32733690  1
  N  N57  1  0.78030366  0.42453478  0.08191897  1
  N  N58  1  0.56893455  0.51486364  0.83990916  1
  N  N59  1  0.44589208  0.42627198  0.59648474  1
  N  N60  1  0.22193315  0.86853164  0.34740175  1
  N  N61  1  0.09499046  0.75591759  0.09208681  1
  N  N62  1  0.86243406  0.88768741  0.83535541  1
  N  N63  1  0.79608871  0.76411240  0.56981846  1
  N  N64  1  0.57693588  0.86050734  0.33923330  1
  N  N65  1  0.46639714  0.75009555  0.09930399  1
  N  N66  1  0.22193757  0.87280773  0.85723908  1
  N  N67  1  0.09959454  0.75245171  0.60998370  1
  N  N68  1  0.86782828  0.88412157  0.32280492  1
  N  N69  1  0.77837250  0.76141575  0.08651060  1
  N  N70  1  0.57935793  0.86024977  0.83524616  1
  N  N71  1  0.45607202  0.73834582  0.60047669  1
