# generated using pymatgen
data_Sc4Al5N9
_symmetry_space_group_name_H-M   'P 1'
_cell_length_a   10.36798787
_cell_length_b   10.27880038
_cell_length_c   9.60744867
_cell_angle_alpha   89.88470518
_cell_angle_beta   90.12377083
_cell_angle_gamma   60.08976741
_symmetry_Int_Tables_number   1
_chemical_formula_structural   Sc4Al5N9
_chemical_formula_sum   'Sc16 Al20 N36'
_cell_volume   887.49104307
_cell_formula_units_Z   4
loop_
 _symmetry_equiv_pos_site_id
 _symmetry_equiv_pos_as_xyz
  1  'x, y, z'
loop_
 _atom_site_type_symbol
 _atom_site_label
 _atom_site_symmetry_multiplicity
 _atom_site_fract_x
 _atom_site_fract_y
 _atom_site_fract_z
 _atom_site_occupancy
  Sc  Sc0  1  0.10070539  0.10598865  0.33306385  1
  Sc  Sc1  1  0.87081206  0.21109025  0.58561944  1
  Sc  Sc2  1  0.45438597  0.09094063  0.32509510  1
  Sc  Sc3  1  0.09803988  0.10461603  0.84473658  1
  Sc  Sc4  1  0.22756171  0.21161334  0.59734019  1
  Sc  Sc5  1  0.45330607  0.09918167  0.84866680  1
  Sc  Sc6  1  0.10201059  0.43299058  0.34473419  1
  Sc  Sc7  1  0.88490788  0.54228593  0.59639090  1
  Sc  Sc8  1  0.45303138  0.42268423  0.34553726  1
  Sc  Sc9  1  0.09747521  0.76293863  0.34415385  1
  Sc  Sc10  1  0.22468740  0.86964562  0.09341867  1
  Sc  Sc11  1  0.46192112  0.75141111  0.33565629  1
  Sc  Sc12  1  0.09883238  0.75809183  0.85176042  1
  Sc  Sc13  1  0.22249315  0.86693650  0.59117926  1
  Sc  Sc14  1  0.45599270  0.74559234  0.84192476  1
  Sc  Sc15  1  0.56778858  0.87035635  0.59404840  1
  Al  Al16  1  0.21799263  0.21405010  0.06879700  1
  Al  Al17  1  0.76978964  0.09607393  0.82886204  1
  Al  Al18  1  0.56196790  0.21404864  0.07191268  1
  Al  Al19  1  0.77426183  0.09579815  0.32114272  1
  Al  Al20  1  0.87666046  0.21307622  0.07483640  1
  Al  Al21  1  0.56508830  0.19931325  0.57687768  1
  Al  Al22  1  0.22590049  0.53465248  0.12013437  1
  Al  Al23  1  0.76852034  0.42547167  0.83390573  1
  Al  Al24  1  0.56287423  0.52661633  0.07377515  1
  Al  Al25  1  0.11123006  0.43488721  0.86588954  1
  Al  Al26  1  0.22477889  0.53663174  0.62884865  1
  Al  Al27  1  0.77644807  0.42998580  0.31689002  1
  Al  Al28  1  0.88469667  0.54162691  0.07190988  1
  Al  Al29  1  0.45509451  0.41974412  0.82307444  1
  Al  Al30  1  0.56166071  0.53148800  0.57635172  1
  Al  Al31  1  0.78432780  0.76449520  0.83138963  1
  Al  Al32  1  0.87978801  0.87633333  0.57294751  1
  Al  Al33  1  0.57040861  0.86112966  0.06810762  1
  Al  Al34  1  0.77656525  0.76019197  0.31969646  1
  Al  Al35  1  0.87674675  0.87763131  0.07846170  1
  N  N36  1  0.22863371  0.20331362  0.36937118  1
  N  N37  1  0.09762546  0.11716849  0.09854912  1
  N  N38  1  0.86443551  0.21377165  0.87252027  1
  N  N39  1  0.76958223  0.08207871  0.63113758  1
  N  N40  1  0.57731823  0.19332671  0.37919933  1
  N  N41  1  0.44691932  0.09397596  0.09489711  1
  N  N42  1  0.21447364  0.22458923  0.86249526  1
  N  N43  1  0.10204300  0.10027693  0.61460777  1
  N  N44  1  0.86668773  0.21702475  0.36078787  1
  N  N45  1  0.77550915  0.09662531  0.12270500  1
  N  N46  1  0.56733548  0.21711848  0.87613625  1
  N  N47  1  0.45799586  0.10365074  0.62327654  1
  N  N48  1  0.22391607  0.53718318  0.32299315  1
  N  N49  1  0.10879337  0.43168043  0.09182691  1
  N  N50  1  0.88967858  0.54107449  0.86777674  1
  N  N51  1  0.75755121  0.43735368  0.63960217  1
  N  N52  1  0.58061296  0.52396206  0.37815911  1
  N  N53  1  0.44887621  0.42614076  0.11599547  1
  N  N54  1  0.23813738  0.51881913  0.83712171  1
  N  N55  1  0.11568846  0.44300834  0.59331564  1
  N  N56  1  0.86636378  0.54908958  0.36440505  1
  N  N57  1  0.77797925  0.42910647  0.11463300  1
  N  N58  1  0.56401733  0.51479431  0.87798540  1
  N  N59  1  0.44940875  0.42544033  0.61280014  1
  N  N60  1  0.22446539  0.87080655  0.34704076  1
  N  N61  1  0.09646096  0.75499083  0.09876609  1
  N  N62  1  0.86384522  0.88916747  0.88306974  1
  N  N63  1  0.79322375  0.76835407  0.63642590  1
  N  N64  1  0.57716909  0.86384413  0.37071618  1
  N  N65  1  0.46911936  0.74629450  0.10207150  1
  N  N66  1  0.22200912  0.86880530  0.86139723  1
  N  N67  1  0.09822088  0.75448548  0.60302346  1
  N  N68  1  0.86368478  0.88416332  0.37070128  1
  N  N69  1  0.77992482  0.75881970  0.11879094  1
  N  N70  1  0.57832455  0.85861439  0.86693734  1
  N  N71  1  0.45566477  0.74097076  0.61172025  1
