# generated using pymatgen
data_Sc4Al5N9
_symmetry_space_group_name_H-M   'P 1'
_cell_length_a   10.58520061
_cell_length_b   10.45946072
_cell_length_c   9.04084712
_cell_angle_alpha   89.98300937
_cell_angle_beta   90.29452721
_cell_angle_gamma   59.99948844
_symmetry_Int_Tables_number   1
_chemical_formula_structural   Sc4Al5N9
_chemical_formula_sum   'Sc16 Al20 N36'
_cell_volume   866.83769232
_cell_formula_units_Z   4
loop_
 _symmetry_equiv_pos_site_id
 _symmetry_equiv_pos_as_xyz
  1  'x, y, z'
loop_
 _atom_site_type_symbol
 _atom_site_label
 _atom_site_symmetry_multiplicity
 _atom_site_fract_x
 _atom_site_fract_y
 _atom_site_fract_z
 _atom_site_occupancy
  Sc  Sc0  1  0.09969769  0.10519820  0.34559669  1
  Sc  Sc1  1  0.86773847  0.21461417  0.59551662  1
  Sc  Sc2  1  0.45622886  0.09022031  0.34121539  1
  Sc  Sc3  1  0.09930540  0.10718492  0.85141207  1
  Sc  Sc4  1  0.22627810  0.21392110  0.60123296  1
  Sc  Sc5  1  0.45185931  0.09978069  0.85362077  1
  Sc  Sc6  1  0.10433035  0.43749845  0.34357407  1
  Sc  Sc7  1  0.88601438  0.53968900  0.60545662  1
  Sc  Sc8  1  0.45236698  0.42761787  0.34868227  1
  Sc  Sc9  1  0.10021674  0.75994216  0.34798972  1
  Sc  Sc10  1  0.22256928  0.87130492  0.10073557  1
  Sc  Sc11  1  0.46167356  0.74702044  0.34877748  1
  Sc  Sc12  1  0.09616138  0.76048945  0.85226857  1
  Sc  Sc13  1  0.22207479  0.86702242  0.60008034  1
  Sc  Sc14  1  0.45253925  0.75415858  0.85557420  1
  Sc  Sc15  1  0.57115699  0.86552477  0.60164357  1
  Al  Al16  1  0.21971333  0.21205328  0.09887646  1
  Al  Al17  1  0.77003207  0.09492500  0.83668046  1
  Al  Al18  1  0.56400746  0.20582065  0.08724168  1
  Al  Al19  1  0.77515304  0.09561106  0.32646953  1
  Al  Al20  1  0.87988367  0.20768620  0.08496231  1
  Al  Al21  1  0.56245550  0.20405468  0.58353991  1
  Al  Al22  1  0.22438810  0.53554302  0.10510776  1
  Al  Al23  1  0.77284519  0.42421181  0.85609901  1
  Al  Al24  1  0.56204666  0.53178046  0.09584561  1
  Al  Al25  1  0.11203695  0.43144942  0.86870720  1
  Al  Al26  1  0.22850605  0.53353371  0.62789197  1
  Al  Al27  1  0.77846366  0.42909685  0.31066907  1
  Al  Al28  1  0.88851403  0.54105863  0.08160932  1
  Al  Al29  1  0.44805267  0.41980483  0.86908177  1
  Al  Al30  1  0.55391004  0.52860501  0.63846985  1
  Al  Al31  1  0.78493598  0.76372017  0.84432132  1
  Al  Al32  1  0.87877696  0.87596345  0.57798486  1
  Al  Al33  1  0.56799446  0.86549419  0.08495629  1
  Al  Al34  1  0.77823131  0.75861969  0.32155624  1
  Al  Al35  1  0.87872940  0.87769651  0.08693028  1
  N  N36  1  0.22580425  0.20735061  0.34014749  1
  N  N37  1  0.09745479  0.11441625  0.09875586  1
  N  N38  1  0.86764984  0.20906073  0.86308729  1
  N  N39  1  0.76791650  0.08376819  0.61938090  1
  N  N40  1  0.57593076  0.19853004  0.36201157  1
  N  N41  1  0.45137206  0.09163574  0.09916194  1
  N  N42  1  0.21725622  0.22270834  0.85838558  1
  N  N43  1  0.10149762  0.10410726  0.60071317  1
  N  N44  1  0.86588654  0.21927365  0.34712793  1
  N  N45  1  0.77755562  0.09466239  0.11412816  1
  N  N46  1  0.56755369  0.21252582  0.87019654  1
  N  N47  1  0.45667420  0.10243159  0.60423075  1
  N  N48  1  0.22775928  0.53710281  0.32304277  1
  N  N49  1  0.10863522  0.43171311  0.09115885  1
  N  N50  1  0.89421901  0.54108832  0.86328735  1
  N  N51  1  0.75550160  0.44028746  0.63546576  1
  N  N52  1  0.57918977  0.52327995  0.31572422  1
  N  N53  1  0.44415030  0.42506093  0.09230302  1
  N  N54  1  0.23460504  0.52062023  0.85078997  1
  N  N55  1  0.11699275  0.44264165  0.59500329  1
  N  N56  1  0.86993067  0.54556623  0.34596850  1
  N  N57  1  0.78369030  0.42641387  0.08810301  1
  N  N58  1  0.55898391  0.52029833  0.86442015  1
  N  N59  1  0.44597268  0.42634742  0.60690332  1
  N  N60  1  0.22378765  0.86995953  0.34831420  1
  N  N61  1  0.09596822  0.75714396  0.09816007  1
  N  N62  1  0.86622957  0.88800679  0.87481513  1
  N  N63  1  0.79372303  0.76516392  0.62742994  1
  N  N64  1  0.57846705  0.85956161  0.35608253  1
  N  N65  1  0.46229850  0.75550423  0.09786435  1
  N  N66  1  0.21957451  0.87178555  0.85256843  1
  N  N67  1  0.09871810  0.75313010  0.60220134  1
  N  N68  1  0.86604766  0.88196577  0.35899405  1
  N  N69  1  0.78092617  0.75936063  0.10604149  1
  N  N70  1  0.57714844  0.86203698  0.86070492  1
  N  N71  1  0.45665389  0.73708305  0.60519605  1
