# generated using pymatgen
data_Sc4Al5N9
_symmetry_space_group_name_H-M   'P 1'
_cell_length_a   10.54808267
_cell_length_b   10.43349668
_cell_length_c   9.10120746
_cell_angle_alpha   89.98251170
_cell_angle_beta   90.10262183
_cell_angle_gamma   60.09715729
_symmetry_Int_Tables_number   1
_chemical_formula_structural   Sc4Al5N9
_chemical_formula_sum   'Sc16 Al20 N36'
_cell_volume   868.27299318
_cell_formula_units_Z   4
loop_
 _symmetry_equiv_pos_site_id
 _symmetry_equiv_pos_as_xyz
  1  'x, y, z'
loop_
 _atom_site_type_symbol
 _atom_site_label
 _atom_site_symmetry_multiplicity
 _atom_site_fract_x
 _atom_site_fract_y
 _atom_site_fract_z
 _atom_site_occupancy
  Sc  Sc0  1  0.09906910  0.10558445  0.34483557  1
  Sc  Sc1  1  0.86908720  0.21259964  0.59540578  1
  Sc  Sc2  1  0.45673106  0.09022745  0.33970933  1
  Sc  Sc3  1  0.09904534  0.10742626  0.85186549  1
  Sc  Sc4  1  0.22612254  0.21442080  0.60091234  1
  Sc  Sc5  1  0.45088098  0.09914401  0.85311703  1
  Sc  Sc6  1  0.10350258  0.43795555  0.34302253  1
  Sc  Sc7  1  0.88750629  0.54028930  0.60522700  1
  Sc  Sc8  1  0.45041384  0.42450265  0.34568946  1
  Sc  Sc9  1  0.09997031  0.76068629  0.34706007  1
  Sc  Sc10  1  0.22359881  0.87090840  0.09887599  1
  Sc  Sc11  1  0.45977981  0.75101604  0.34537824  1
  Sc  Sc12  1  0.09630185  0.76087973  0.85261838  1
  Sc  Sc13  1  0.22208455  0.86786118  0.59920784  1
  Sc  Sc14  1  0.45568431  0.74700158  0.84816725  1
  Sc  Sc15  1  0.57139901  0.86655910  0.60070944  1
  Al  Al16  1  0.21954241  0.21208947  0.09915025  1
  Al  Al17  1  0.77036442  0.09480967  0.83654210  1
  Al  Al18  1  0.56334184  0.20870526  0.08068507  1
  Al  Al19  1  0.77433795  0.09580493  0.32586834  1
  Al  Al20  1  0.87736800  0.21066015  0.08545513  1
  Al  Al21  1  0.56326487  0.20272378  0.58432729  1
  Al  Al22  1  0.22619724  0.53556640  0.10351526  1
  Al  Al23  1  0.76930632  0.42592704  0.84618253  1
  Al  Al24  1  0.56238189  0.52880575  0.08171004  1
  Al  Al25  1  0.11145134  0.43121196  0.87212618  1
  Al  Al26  1  0.22726112  0.53492351  0.62876188  1
  Al  Al27  1  0.77624318  0.42960704  0.31898318  1
  Al  Al28  1  0.88535008  0.54038959  0.08340236  1
  Al  Al29  1  0.45268766  0.42076789  0.84615502  1
  Al  Al30  1  0.56035050  0.53021305  0.58502364  1
  Al  Al31  1  0.78448574  0.76328438  0.84460708  1
  Al  Al32  1  0.87924494  0.87569614  0.57759793  1
  Al  Al33  1  0.56844327  0.86341382  0.08126475  1
  Al  Al34  1  0.77808125  0.75890964  0.32081851  1
  Al  Al35  1  0.87825514  0.87810834  0.08676151  1
  N  N36  1  0.22598084  0.20755461  0.34051420  1
  N  N37  1  0.09645494  0.11518100  0.09896091  1
  N  N38  1  0.86633908  0.21182331  0.86541388  1
  N  N39  1  0.76885702  0.08233784  0.62280622  1
  N  N40  1  0.57654548  0.19733241  0.36874944  1
  N  N41  1  0.45105082  0.09192302  0.09841736  1
  N  N42  1  0.21661598  0.22322389  0.85832672  1
  N  N43  1  0.10183004  0.10384327  0.60173429  1
  N  N44  1  0.86574866  0.21776222  0.35081710  1
  N  N45  1  0.77565610  0.09600412  0.11517230  1
  N  N46  1  0.56673957  0.21345293  0.86867477  1
  N  N47  1  0.45605721  0.10238097  0.60636204  1
  N  N48  1  0.22634729  0.53822863  0.32136368  1
  N  N49  1  0.10781982  0.43175220  0.09172468  1
  N  N50  1  0.89183861  0.53881708  0.86586901  1
  N  N51  1  0.75803689  0.43910954  0.63414838  1
  N  N52  1  0.57940883  0.52255261  0.36663203  1
  N  N53  1  0.44870940  0.42514348  0.09968913  1
  N  N54  1  0.23548999  0.52050472  0.85264330  1
  N  N55  1  0.11755579  0.44306911  0.59368207  1
  N  N56  1  0.86917266  0.54700542  0.34934970  1
  N  N57  1  0.77724491  0.42842405  0.10289906  1
  N  N58  1  0.56302936  0.51783592  0.87129488  1
  N  N59  1  0.44594430  0.42700145  0.61276471  1
  N  N60  1  0.22327899  0.87109011  0.34734073  1
  N  N61  1  0.09622672  0.75797165  0.09809492  1
  N  N62  1  0.86589444  0.88810307  0.87743440  1
  N  N63  1  0.79445371  0.76528345  0.63102721  1
  N  N64  1  0.57873891  0.86055772  0.35827424  1
  N  N65  1  0.46640151  0.74796844  0.10059898  1
  N  N66  1  0.22116389  0.87114083  0.85308780  1
  N  N67  1  0.09876985  0.75330477  0.60264730  1
  N  N68  1  0.86569152  0.88232400  0.36020779  1
  N  N69  1  0.78057397  0.75884684  0.10733089  1
  N  N70  1  0.57641090  0.86055230  0.86192703  1
  N  N71  1  0.45541092  0.74142281  0.60369653  1
