# generated using pymatgen
data_Sc4Al5N9
_symmetry_space_group_name_H-M   'P 1'
_cell_length_a   10.40699255
_cell_length_b   10.30996100
_cell_length_c   9.49910913
_cell_angle_alpha   89.92996233
_cell_angle_beta   90.15082495
_cell_angle_gamma   60.10370195
_symmetry_Int_Tables_number   1
_chemical_formula_structural   Sc4Al5N9
_chemical_formula_sum   'Sc16 Al20 N36'
_cell_volume   883.57880779
_cell_formula_units_Z   4
loop_
 _symmetry_equiv_pos_site_id
 _symmetry_equiv_pos_as_xyz
  1  'x, y, z'
loop_
 _atom_site_type_symbol
 _atom_site_label
 _atom_site_symmetry_multiplicity
 _atom_site_fract_x
 _atom_site_fract_y
 _atom_site_fract_z
 _atom_site_occupancy
  Sc  Sc0  1  0.09976678  0.10598089  0.33748789  1
  Sc  Sc1  1  0.86989000  0.21184436  0.58889879  1
  Sc  Sc2  1  0.45598481  0.08945666  0.32919827  1
  Sc  Sc3  1  0.09836848  0.10599337  0.84634084  1
  Sc  Sc4  1  0.22706334  0.21355180  0.59662882  1
  Sc  Sc5  1  0.45232558  0.09961391  0.84933365  1
  Sc  Sc6  1  0.10303760  0.43427057  0.34412508  1
  Sc  Sc7  1  0.88717910  0.54101432  0.59729637  1
  Sc  Sc8  1  0.45269443  0.42296990  0.34671208  1
  Sc  Sc9  1  0.09798370  0.76284112  0.34613935  1
  Sc  Sc10  1  0.22410763  0.87025312  0.09536142  1
  Sc  Sc11  1  0.46118724  0.75150179  0.33894719  1
  Sc  Sc12  1  0.09819762  0.75837204  0.85203662  1
  Sc  Sc13  1  0.22207713  0.86753189  0.59475847  1
  Sc  Sc14  1  0.45558415  0.74570482  0.84372682  1
  Sc  Sc15  1  0.56899593  0.86880397  0.59718255  1
  Al  Al16  1  0.21986681  0.21137049  0.07674185  1
  Al  Al17  1  0.76961711  0.09556943  0.83043067  1
  Al  Al18  1  0.56223798  0.21325630  0.07379886  1
  Al  Al19  1  0.77448610  0.09598210  0.32214050  1
  Al  Al20  1  0.87673139  0.21245700  0.07603914  1
  Al  Al21  1  0.56500972  0.19953732  0.57788627  1
  Al  Al22  1  0.22727793  0.53568239  0.11882760  1
  Al  Al23  1  0.76857811  0.42616875  0.83650869  1
  Al  Al24  1  0.56226114  0.52683686  0.07513892  1
  Al  Al25  1  0.11169944  0.43430194  0.87842524  1
  Al  Al26  1  0.22407551  0.53602482  0.62822521  1
  Al  Al27  1  0.77610713  0.42950348  0.31754763  1
  Al  Al28  1  0.88269619  0.54239156  0.07685320  1
  Al  Al29  1  0.45402817  0.41982083  0.82563904  1
  Al  Al30  1  0.56163729  0.53139879  0.57813974  1
  Al  Al31  1  0.78514077  0.76343445  0.83395011  1
  Al  Al32  1  0.87955075  0.87614319  0.57381295  1
  Al  Al33  1  0.56978884  0.86175744  0.06954111  1
  Al  Al34  1  0.77648881  0.76007281  0.32042624  1
  Al  Al35  1  0.87699782  0.87779881  0.08034022  1
  N  N36  1  0.22863199  0.20369743  0.36191092  1
  N  N37  1  0.09683654  0.11673589  0.09886447  1
  N  N38  1  0.86473575  0.21347797  0.87037750  1
  N  N39  1  0.76922325  0.08178914  0.63014012  1
  N  N40  1  0.57755885  0.19393717  0.37743642  1
  N  N41  1  0.44845434  0.09233887  0.09610027  1
  N  N42  1  0.21489805  0.22492862  0.86369941  1
  N  N43  1  0.10192396  0.10210586  0.61082149  1
  N  N44  1  0.86586375  0.21744125  0.36057750  1
  N  N45  1  0.77567380  0.09672669  0.12143530  1
  N  N46  1  0.56692766  0.21646204  0.87519888  1
  N  N47  1  0.45731154  0.10340105  0.61945075  1
  N  N48  1  0.22500574  0.53847008  0.32246894  1
  N  N49  1  0.10964361  0.43159838  0.09234112  1
  N  N50  1  0.89074221  0.54047553  0.86939405  1
  N  N51  1  0.75782788  0.43868255  0.63916343  1
  N  N52  1  0.58039563  0.52373658  0.37679009  1
  N  N53  1  0.44892093  0.42593321  0.11392444  1
  N  N54  1  0.23676184  0.51828843  0.83898277  1
  N  N55  1  0.11675891  0.44348715  0.58355047  1
  N  N56  1  0.86698794  0.54830114  0.35972542  1
  N  N57  1  0.77712591  0.42860559  0.11269033  1
  N  N58  1  0.56339967  0.51513893  0.87672195  1
  N  N59  1  0.44878025  0.42555776  0.61277047  1
  N  N60  1  0.22403247  0.87108184  0.34694105  1
  N  N61  1  0.09657758  0.75559374  0.09818686  1
  N  N62  1  0.86419455  0.88884114  0.88251891  1
  N  N63  1  0.79460112  0.76664446  0.63583608  1
  N  N64  1  0.57801256  0.86215679  0.37092234  1
  N  N65  1  0.46845412  0.74675191  0.10152597  1
  N  N66  1  0.22131765  0.86979654  0.85836635  1
  N  N67  1  0.09807862  0.75451565  0.60310322  1
  N  N68  1  0.86394303  0.88392108  0.36883481  1
  N  N69  1  0.77913280  0.75971130  0.11733976  1
  N  N70  1  0.57808961  0.85885008  0.86496997  1
  N  N71  1  0.45506611  0.74111380  0.61019015  1
