# generated using pymatgen
data_Gd2Al7N9
_symmetry_space_group_name_H-M   'P 1'
_cell_length_a   9.87991498
_cell_length_b   9.88140437
_cell_length_c   10.40957044
_cell_angle_alpha   90.33917293
_cell_angle_beta   90.30980812
_cell_angle_gamma   60.13277297
_symmetry_Int_Tables_number   1
_chemical_formula_structural   Gd2Al7N9
_chemical_formula_sum   'Gd8 Al28 N36'
_cell_volume   881.26283721
_cell_formula_units_Z   4
loop_
 _symmetry_equiv_pos_site_id
 _symmetry_equiv_pos_as_xyz
  1  'x, y, z'
loop_
 _atom_site_type_symbol
 _atom_site_label
 _atom_site_symmetry_multiplicity
 _atom_site_fract_x
 _atom_site_fract_y
 _atom_site_fract_z
 _atom_site_occupancy
  Al  Al0  1  0.10815156  0.09145750  0.30883007  1
  Al  Al1  1  0.21927229  0.21175414  0.03151573  1
  Al  Al2  1  0.89709611  0.19827574  0.55062346  1
  Al  Al3  1  0.54308617  0.21397881  0.04684503  1
  Al  Al4  1  0.11685687  0.09343270  0.79207795  1
  Al  Al5  1  0.21802208  0.20413393  0.56185934  1
  Al  Al6  1  0.78631212  0.09229579  0.29251614  1
  Al  Al7  1  0.89549958  0.21821183  0.04368029  1
  Al  Al8  1  0.43886815  0.09975525  0.79455551  1
  Al  Al9  1  0.55413712  0.21271997  0.54875868  1
  Al  Al10  1  0.22069563  0.53649019  0.03756641  1
  Al  Al11  1  0.79334301  0.42253107  0.79838378  1
  Al  Al12  1  0.89423922  0.52959149  0.56489796  1
  Al  Al13  1  0.43987456  0.43927778  0.29449360  1
  Al  Al14  1  0.55898757  0.54144253  0.03613189  1
  Al  Al15  1  0.11480068  0.42881827  0.79718609  1
  Al  Al16  1  0.22908741  0.53230847  0.55272835  1
  Al  Al17  1  0.89132220  0.53786134  0.02220121  1
  Al  Al18  1  0.43280041  0.42829167  0.80003900  1
  Al  Al19  1  0.11345869  0.75819949  0.29845287  1
  Al  Al20  1  0.77598674  0.75281673  0.80144587  1
  Al  Al21  1  0.44002578  0.75914971  0.30015100  1
  Al  Al22  1  0.55744052  0.87410668  0.03117924  1
  Al  Al23  1  0.12548811  0.75198018  0.79372809  1
  Al  Al24  1  0.22378296  0.87626409  0.54823761  1
  Al  Al25  1  0.89620658  0.85682446  0.03693393  1
  Al  Al26  1  0.43590391  0.77384028  0.79699780  1
  Al  Al27  1  0.54661713  0.87415874  0.56108933  1
  Gd  Gd28  1  0.77402496  0.10289873  0.81803584  1
  Gd  Gd29  1  0.44182032  0.09390703  0.30909763  1
  Gd  Gd30  1  0.11347742  0.42404876  0.29426336  1
  Gd  Gd31  1  0.77438973  0.41546656  0.29550302  1
  Gd  Gd32  1  0.55220776  0.54270332  0.56652887  1
  Gd  Gd33  1  0.21861690  0.87839059  0.06342515  1
  Gd  Gd34  1  0.89102283  0.86696290  0.55626829  1
  Gd  Gd35  1  0.76805854  0.75824143  0.28484960  1
  N  N36  1  0.20533441  0.19296401  0.38329781  1
  N  N37  1  0.09666965  0.13490216  0.12319435  1
  N  N38  1  0.91496185  0.21627923  0.86437378  1
  N  N39  1  0.76346871  0.12154689  0.60399537  1
  N  N40  1  0.57168839  0.22624030  0.35804086  1
  N  N41  1  0.44024691  0.09377653  0.08802424  1
  N  N42  1  0.22330884  0.20322201  0.84449932  1
  N  N43  1  0.11018898  0.08912854  0.60912946  1
  N  N44  1  0.90543754  0.17195479  0.36810214  1
  N  N45  1  0.78010584  0.09745473  0.09123345  1
  N  N46  1  0.51992971  0.22400665  0.86628718  1
  N  N47  1  0.44821046  0.09654607  0.60312487  1
  N  N48  1  0.23368983  0.54982554  0.36776142  1
  N  N49  1  0.11000289  0.42843532  0.07163336  1
  N  N50  1  0.89430705  0.53615817  0.84217692  1
  N  N51  1  0.81041339  0.40404787  0.61479209  1
  N  N52  1  0.52804826  0.55483247  0.35065867  1
  N  N53  1  0.44053346  0.43382392  0.10343695  1
  N  N54  1  0.22251515  0.54215947  0.85462789  1
  N  N55  1  0.11465778  0.42879164  0.60970345  1
  N  N56  1  0.88667171  0.53700953  0.38371062  1
  N  N57  1  0.77631359  0.43627178  0.07705887  1
  N  N58  1  0.55382804  0.54085506  0.84364371  1
  N  N59  1  0.43032255  0.41111269  0.61933561  1
  N  N60  1  0.22096427  0.87104794  0.34450962  1
  N  N61  1  0.09964112  0.73951340  0.11314647  1
  N  N62  1  0.90937789  0.84162165  0.84714649  1
  N  N63  1  0.75902328  0.74461245  0.61782841  1
  N  N64  1  0.53937811  0.85651592  0.38019924  1
  N  N65  1  0.47678141  0.75061479  0.11089859  1
  N  N66  1  0.21930658  0.87610205  0.84787233  1
  N  N67  1  0.14637725  0.74396473  0.61040350  1
  N  N68  1  0.89659924  0.88032230  0.33997964  1
  N  N69  1  0.77720051  0.75865899  0.06566279  1
  N  N70  1  0.55079889  0.87826444  0.84904394  1
  N  N71  1  0.42258527  0.79571581  0.61877832  1
