# generated using pymatgen
data_Gd2Al7N9
_symmetry_space_group_name_H-M   'P 1'
_cell_length_a   9.91415809
_cell_length_b   9.88896399
_cell_length_c   10.49426209
_cell_angle_alpha   89.51330556
_cell_angle_beta   90.56703489
_cell_angle_gamma   59.88344924
_symmetry_Int_Tables_number   1
_chemical_formula_structural   Gd2Al7N9
_chemical_formula_sum   'Gd8 Al28 N36'
_cell_volume   889.82389197
_cell_formula_units_Z   4
loop_
 _symmetry_equiv_pos_site_id
 _symmetry_equiv_pos_as_xyz
  1  'x, y, z'
loop_
 _atom_site_type_symbol
 _atom_site_label
 _atom_site_symmetry_multiplicity
 _atom_site_fract_x
 _atom_site_fract_y
 _atom_site_fract_z
 _atom_site_occupancy
  Al  Al0  1  0.11408647  0.08620030  0.40508734  1
  Al  Al1  1  0.22029770  0.20815053  0.14111448  1
  Al  Al2  1  0.89355778  0.21908988  0.65833606  1
  Al  Al3  1  0.54940437  0.21547123  0.14165130  1
  Al  Al4  1  0.11783646  0.09977318  0.89620347  1
  Al  Al5  1  0.21875247  0.20653124  0.66442848  1
  Al  Al6  1  0.79383828  0.08570224  0.31013892  1
  Al  Al7  1  0.90764089  0.20267745  0.13796657  1
  Al  Al8  1  0.43542212  0.09911796  0.90382944  1
  Al  Al9  1  0.53158372  0.21452938  0.66165232  1
  Al  Al10  1  0.22285561  0.53791419  0.14076783  1
  Al  Al11  1  0.79356426  0.42666625  0.89826908  1
  Al  Al12  1  0.88535007  0.53997371  0.66735502  1
  Al  Al13  1  0.43685215  0.43437431  0.39703895  1
  Al  Al14  1  0.56306658  0.53228406  0.06794479  1
  Al  Al15  1  0.11353664  0.42776510  0.89522439  1
  Al  Al16  1  0.21746943  0.53348620  0.65708550  1
  Al  Al17  1  0.89683698  0.53367832  0.13059468  1
  Al  Al18  1  0.42635636  0.43071115  0.90034789  1
  Al  Al19  1  0.13069049  0.75527018  0.40340672  1
  Al  Al20  1  0.77766249  0.76113404  0.90157002  1
  Al  Al21  1  0.43100810  0.77173467  0.41910015  1
  Al  Al22  1  0.55839246  0.86481383  0.13742468  1
  Al  Al23  1  0.11107144  0.75627177  0.89642519  1
  Al  Al24  1  0.22156386  0.87998729  0.64996508  1
  Al  Al25  1  0.89883725  0.85488778  0.13737498  1
  Al  Al26  1  0.44345021  0.76894163  0.89174077  1
  Al  Al27  1  0.54766602  0.87955716  0.66635909  1
  Gd  Gd28  1  0.77111487  0.10960601  0.88704741  1
  Gd  Gd29  1  0.45267621  0.09344216  0.39594247  1
  Gd  Gd30  1  0.12011562  0.42576292  0.40501665  1
  Gd  Gd31  1  0.77255462  0.41097246  0.38091985  1
  Gd  Gd32  1  0.54528189  0.53115280  0.63530449  1
  Gd  Gd33  1  0.23168092  0.86615917  0.15521577  1
  Gd  Gd34  1  0.88544582  0.88476315  0.63322109  1
  Gd  Gd35  1  0.77166006  0.75221245  0.38940494  1
  N  N36  1  0.21244293  0.18958084  0.32387587  1
  N  N37  1  0.10967393  0.11275679  0.07467910  1
  N  N38  1  0.91198344  0.22415887  0.83881573  1
  N  N39  1  0.74784939  0.14668799  0.64608046  1
  N  N40  1  0.57401366  0.22803243  0.32165476  1
  N  N41  1  0.44610594  0.09527952  0.09321095  1
  N  N42  1  0.22350666  0.20570010  0.84651869  1
  N  N43  1  0.10579636  0.10040581  0.59389312  1
  N  N44  1  0.92422556  0.16557815  0.31574037  1
  N  N45  1  0.78275629  0.08814894  0.11631064  1
  N  N46  1  0.51289197  0.22687613  0.84458931  1
  N  N47  1  0.43828095  0.09384360  0.61419910  1
  N  N48  1  0.23464924  0.55448421  0.32013630  1
  N  N49  1  0.11863363  0.42522962  0.08335478  1
  N  N50  1  0.88777588  0.54462697  0.85394926  1
  N  N51  1  0.80312001  0.42360695  0.59662493  1
  N  N52  1  0.52204103  0.55984584  0.40536227  1
  N  N53  1  0.44127163  0.43004711  0.08200577  1
  N  N54  1  0.21904421  0.54375803  0.84039076  1
  N  N55  1  0.10058012  0.43207782  0.62537970  1
  N  N56  1  0.89691300  0.52628761  0.30652914  1
  N  N57  1  0.78517781  0.41917685  0.08547027  1
  N  N58  1  0.55897510  0.53127106  0.87265774  1
  N  N59  1  0.40791592  0.40443575  0.57501539  1
  N  N60  1  0.22266855  0.87469033  0.36960819  1
  N  N61  1  0.10413212  0.74634111  0.07708432  1
  N  N62  1  0.89736675  0.85271071  0.84876377  1
  N  N63  1  0.75703976  0.75258551  0.60874363  1
  N  N64  1  0.53080681  0.85741083  0.31645196  1
  N  N65  1  0.47068987  0.74876861  0.07057959  1
  N  N66  1  0.21931443  0.87515035  0.84205796  1
  N  N67  1  0.14558344  0.74115455  0.58874641  1
  N  N68  1  0.91224078  0.86795760  0.33562442  1
  N  N69  1  0.77799546  0.76012827  0.09010363  1
  N  N70  1  0.55489378  0.87809363  0.85030934  1
  N  N71  1  0.42933753  0.79633947  0.60323737  1
