# generated using pymatgen
data_Gd2Al7N9
_symmetry_space_group_name_H-M   'P 1'
_cell_length_a   9.90108228
_cell_length_b   9.90470940
_cell_length_c   10.43911347
_cell_angle_alpha   89.89147341
_cell_angle_beta   90.64418947
_cell_angle_gamma   59.89856113
_symmetry_Int_Tables_number   1
_chemical_formula_structural   Gd2Al7N9
_chemical_formula_sum   'Gd8 Al28 N36'
_cell_volume   885.58430903
_cell_formula_units_Z   4
loop_
 _symmetry_equiv_pos_site_id
 _symmetry_equiv_pos_as_xyz
  1  'x, y, z'
loop_
 _atom_site_type_symbol
 _atom_site_label
 _atom_site_symmetry_multiplicity
 _atom_site_fract_x
 _atom_site_fract_y
 _atom_site_fract_z
 _atom_site_occupancy
  Al  Al0  1  0.11221974  0.08808828  0.40688774  1
  Al  Al1  1  0.21701175  0.21057313  0.14004942  1
  Al  Al2  1  0.89377996  0.21672146  0.64992140  1
  Al  Al3  1  0.55836927  0.21263999  0.14750380  1
  Al  Al4  1  0.11458283  0.10076531  0.89647855  1
  Al  Al5  1  0.22033538  0.20498072  0.66593218  1
  Al  Al6  1  0.78796624  0.09511966  0.36919579  1
  Al  Al7  1  0.90064811  0.19888077  0.14555509  1
  Al  Al8  1  0.43836347  0.09900282  0.90424851  1
  Al  Al9  1  0.53628857  0.21090237  0.65359795  1
  Al  Al10  1  0.22319213  0.53849865  0.14214119  1
  Al  Al11  1  0.79363783  0.42313610  0.89993258  1
  Al  Al12  1  0.88522828  0.53739249  0.66910094  1
  Al  Al13  1  0.43459783  0.43556823  0.39933277  1
  Al  Al14  1  0.56292970  0.53250510  0.06942804  1
  Al  Al15  1  0.11403590  0.42729425  0.89599182  1
  Al  Al16  1  0.21955839  0.53182605  0.66046223  1
  Al  Al17  1  0.89751438  0.53569089  0.13086192  1
  Al  Al18  1  0.43104749  0.42658579  0.90062846  1
  Al  Al19  1  0.13084055  0.75544173  0.40420373  1
  Al  Al20  1  0.77917712  0.75995346  0.90618847  1
  Al  Al21  1  0.42825461  0.77331751  0.42019757  1
  Al  Al22  1  0.55887232  0.86598802  0.13732715  1
  Al  Al23  1  0.11255142  0.75453879  0.90158898  1
  Al  Al24  1  0.22108140  0.87994225  0.65211680  1
  Al  Al25  1  0.89577255  0.86609106  0.14961080  1
  Al  Al26  1  0.44455911  0.76856677  0.89178171  1
  Al  Al27  1  0.54867006  0.87904029  0.66676501  1
  Gd  Gd28  1  0.77595584  0.10228778  0.89292358  1
  Gd  Gd29  1  0.44803047  0.09352612  0.39269742  1
  Gd  Gd30  1  0.11946900  0.42632003  0.40809463  1
  Gd  Gd31  1  0.76816013  0.42119250  0.37615746  1
  Gd  Gd32  1  0.54479395  0.53356580  0.63538759  1
  Gd  Gd33  1  0.23308843  0.86946268  0.15486548  1
  Gd  Gd34  1  0.89102110  0.87382445  0.63626410  1
  Gd  Gd35  1  0.76899382  0.75654718  0.38927294  1
  N  N36  1  0.20758338  0.19174807  0.32326303  1
  N  N37  1  0.10248064  0.11645204  0.07612598  1
  N  N38  1  0.90779259  0.22145899  0.83268630  1
  N  N39  1  0.75403158  0.13727433  0.60475655  1
  N  N40  1  0.57194944  0.22889789  0.32807915  1
  N  N41  1  0.44696649  0.09663441  0.09507967  1
  N  N42  1  0.22465792  0.20422741  0.84900206  1
  N  N43  1  0.10879019  0.09912404  0.59531786  1
  N  N44  1  0.91724849  0.17035853  0.32580524  1
  N  N45  1  0.78229631  0.09095279  0.11039091  1
  N  N46  1  0.52135604  0.22252068  0.83839011  1
  N  N47  1  0.43923729  0.09207454  0.61233564  1
  N  N48  1  0.23304931  0.55428038  0.32236597  1
  N  N49  1  0.11860753  0.42633694  0.08386195  1
  N  N50  1  0.88715332  0.54263759  0.85734648  1
  N  N51  1  0.80320763  0.42273142  0.59462583  1
  N  N52  1  0.51790141  0.56240337  0.40634485  1
  N  N53  1  0.44388234  0.42742857  0.08381028  1
  N  N54  1  0.22173968  0.54178823  0.84430280  1
  N  N55  1  0.10173562  0.43075358  0.63003593  1
  N  N56  1  0.89867044  0.53149466  0.30754644  1
  N  N57  1  0.78497844  0.41830343  0.08962079  1
  N  N58  1  0.55980696  0.53032974  0.87304960  1
  N  N59  1  0.40862381  0.40480870  0.57758502  1
  N  N60  1  0.22011354  0.87673942  0.37012766  1
  N  N61  1  0.10260487  0.74944772  0.08334238  1
  N  N62  1  0.90033269  0.84796429  0.84991427  1
  N  N63  1  0.75774309  0.74802939  0.60878723  1
  N  N64  1  0.52791690  0.85666852  0.31634946  1
  N  N65  1  0.47261411  0.74844790  0.07046755  1
  N  N66  1  0.21880177  0.87490653  0.84465007  1
  N  N67  1  0.14870573  0.73811773  0.59011985  1
  N  N68  1  0.90892062  0.87510719  0.34386178  1
  N  N69  1  0.77927763  0.76384142  0.09503041  1
  N  N70  1  0.55681922  0.87788932  0.85156229  1
  N  N71  1  0.42857551  0.79695936  0.60545359  1
