# generated using pymatgen
data_Gd2Al7N9
_symmetry_space_group_name_H-M   'P 1'
_cell_length_a   9.86454085
_cell_length_b   9.87201435
_cell_length_c   10.62312934
_cell_angle_alpha   91.32600814
_cell_angle_beta   90.76684174
_cell_angle_gamma   60.25381558
_symmetry_Int_Tables_number   1
_chemical_formula_structural   Gd2Al7N9
_chemical_formula_sum   'Gd8 Al28 N36'
_cell_volume   897.95274261
_cell_formula_units_Z   4
loop_
 _symmetry_equiv_pos_site_id
 _symmetry_equiv_pos_as_xyz
  1  'x, y, z'
loop_
 _atom_site_type_symbol
 _atom_site_label
 _atom_site_symmetry_multiplicity
 _atom_site_fract_x
 _atom_site_fract_y
 _atom_site_fract_z
 _atom_site_occupancy
  Al  Al0  1  0.11321038  0.08692904  0.31831615  1
  Al  Al1  1  0.22849209  0.21539323  0.04784423  1
  Al  Al2  1  0.89355248  0.19500951  0.56299161  1
  Al  Al3  1  0.55926538  0.22455670  0.12099692  1
  Al  Al4  1  0.10904811  0.10714161  0.81255348  1
  Al  Al5  1  0.21349965  0.19728099  0.57340514  1
  Al  Al6  1  0.80310821  0.08452179  0.29161291  1
  Al  Al7  1  0.90149562  0.22673752  0.05647506  1
  Al  Al8  1  0.43357491  0.09404860  0.80395239  1
  Al  Al9  1  0.54066363  0.20774379  0.63047820  1
  Al  Al10  1  0.21906100  0.54050187  0.05265543  1
  Al  Al11  1  0.79261804  0.42600798  0.80678333  1
  Al  Al12  1  0.88938630  0.52695020  0.57349310  1
  Al  Al13  1  0.43016393  0.43833236  0.36946480  1
  Al  Al14  1  0.56903066  0.54880934  0.04594628  1
  Al  Al15  1  0.11223603  0.42560181  0.81835991  1
  Al  Al16  1  0.21853067  0.52015692  0.58780662  1
  Al  Al17  1  0.88975487  0.54520835  0.03263543  1
  Al  Al18  1  0.43966917  0.42983657  0.87689077  1
  Al  Al19  1  0.11281119  0.75693485  0.28428463  1
  Al  Al20  1  0.77686387  0.75509280  0.80863299  1
  Al  Al21  1  0.43397682  0.76267930  0.31136426  1
  Al  Al22  1  0.56233360  0.88342517  0.04802575  1
  Al  Al23  1  0.11764876  0.74617823  0.81558017  1
  Al  Al24  1  0.22156047  0.87281607  0.64280808  1
  Al  Al25  1  0.89633968  0.86097813  0.04417458  1
  Al  Al26  1  0.44996506  0.76999753  0.81700983  1
  Al  Al27  1  0.54790211  0.86520297  0.56976340  1
  Gd  Gd28  1  0.77444612  0.10344044  0.83932348  1
  Gd  Gd29  1  0.45197122  0.10416776  0.34654545  1
  Gd  Gd30  1  0.10277679  0.41096387  0.29449140  1
  Gd  Gd31  1  0.75620551  0.41158555  0.31217845  1
  Gd  Gd32  1  0.54245818  0.53506519  0.59258142  1
  Gd  Gd33  1  0.22441503  0.88712616  0.07654200  1
  Gd  Gd34  1  0.89511181  0.86577386  0.55623468  1
  Gd  Gd35  1  0.76532040  0.74929953  0.29306301  1
  N  N36  1  0.20941273  0.18741073  0.39878212  1
  N  N37  1  0.09999380  0.14795342  0.13570936  1
  N  N38  1  0.90983691  0.22685565  0.87940459  1
  N  N39  1  0.76154309  0.11678653  0.61899632  1
  N  N40  1  0.58622976  0.24137494  0.29652383  1
  N  N41  1  0.44721183  0.10388907  0.10995693  1
  N  N42  1  0.22624845  0.20155536  0.86553190  1
  N  N43  1  0.10368560  0.09112496  0.63243681  1
  N  N44  1  0.91130139  0.16656865  0.38357299  1
  N  N45  1  0.79788167  0.09430732  0.09306944  1
  N  N46  1  0.51551993  0.23118262  0.81017147  1
  N  N47  1  0.43942521  0.08410613  0.61715812  1
  N  N48  1  0.21970163  0.54785096  0.33223699  1
  N  N49  1  0.10868879  0.43406328  0.07512495  1
  N  N50  1  0.88958659  0.54105776  0.85542431  1
  N  N51  1  0.80415291  0.40340241  0.62669997  1
  N  N52  1  0.51658909  0.56717061  0.38112457  1
  N  N53  1  0.45250136  0.43410842  0.05693067  1
  N  N54  1  0.22161529  0.53780656  0.86298704  1
  N  N55  1  0.10845171  0.41879138  0.63238775  1
  N  N56  1  0.88134298  0.53029129  0.39677200  1
  N  N57  1  0.78052086  0.44278551  0.09799920  1
  N  N58  1  0.56080300  0.54394537  0.85451316  1
  N  N59  1  0.42283075  0.39041354  0.54533398  1
  N  N60  1  0.21771915  0.87127431  0.30437224  1
  N  N61  1  0.10117168  0.74943776  0.10174050  1
  N  N62  1  0.90427771  0.84405415  0.85878308  1
  N  N63  1  0.76210047  0.74580163  0.62774031  1
  N  N64  1  0.53746395  0.85976806  0.39162719  1
  N  N65  1  0.48588275  0.75324014  0.12034436  1
  N  N66  1  0.21803809  0.87747983  0.84305573  1
  N  N67  1  0.14680686  0.73054589  0.63368084  1
  N  N68  1  0.89575009  0.87582325  0.33985616  1
  N  N69  1  0.78015796  0.76375167  0.07915466  1
  N  N70  1  0.55400467  0.88271436  0.86734264  1
  N  N71  1  0.43208690  0.78742307  0.64203092  1
