# generated using pymatgen
data_Gd2Al7N9
_symmetry_space_group_name_H-M   'P 1'
_cell_length_a   9.88648890
_cell_length_b   9.90272601
_cell_length_c   10.76460092
_cell_angle_alpha   90.77335569
_cell_angle_beta   90.88130264
_cell_angle_gamma   59.42715646
_symmetry_Int_Tables_number   1
_chemical_formula_structural   Gd2Al7N9
_chemical_formula_sum   'Gd8 Al28 N36'
_cell_volume   907.25348894
_cell_formula_units_Z   4
loop_
 _symmetry_equiv_pos_site_id
 _symmetry_equiv_pos_as_xyz
  1  'x, y, z'
loop_
 _atom_site_type_symbol
 _atom_site_label
 _atom_site_symmetry_multiplicity
 _atom_site_fract_x
 _atom_site_fract_y
 _atom_site_fract_z
 _atom_site_occupancy
  Al  Al0  1  0.11847544  0.08224743  0.42188377  1
  Al  Al1  1  0.22785272  0.20750075  0.15481378  1
  Al  Al2  1  0.88041644  0.20546741  0.58741910  1
  Al  Al3  1  0.55915672  0.21504087  0.14647192  1
  Al  Al4  1  0.12272565  0.09711098  0.90352745  1
  Al  Al5  1  0.20472727  0.19937035  0.65380263  1
  Al  Al6  1  0.80571604  0.08676098  0.31868903  1
  Al  Al7  1  0.90008911  0.21633768  0.07278891  1
  Al  Al8  1  0.43148595  0.09413015  0.82577948  1
  Al  Al9  1  0.52850389  0.21578020  0.65479782  1
  Al  Al10  1  0.22567708  0.53978573  0.14493834  1
  Al  Al11  1  0.79679836  0.42186503  0.83194063  1
  Al  Al12  1  0.87464775  0.53684197  0.59612139  1
  Al  Al13  1  0.44299294  0.43916772  0.39101799  1
  Al  Al14  1  0.57355412  0.53178471  0.05597523  1
  Al  Al15  1  0.10366182  0.43058182  0.82552555  1
  Al  Al16  1  0.21854852  0.53148665  0.64707454  1
  Al  Al17  1  0.90272091  0.53334643  0.06741737  1
  Al  Al18  1  0.42284128  0.43014150  0.90060161  1
  Al  Al19  1  0.13274679  0.76126914  0.40661136  1
  Al  Al20  1  0.77659747  0.75213808  0.83802275  1
  Al  Al21  1  0.42842935  0.77141663  0.43971830  1
  Al  Al22  1  0.56128930  0.88474069  0.06122268  1
  Al  Al23  1  0.11904615  0.74987328  0.89392020  1
  Al  Al24  1  0.21625940  0.87562973  0.66480771  1
  Al  Al25  1  0.89505234  0.85946793  0.06363996  1
  Al  Al26  1  0.44242056  0.76585078  0.88762616  1
  Al  Al27  1  0.55300358  0.86631001  0.60695611  1
  Gd  Gd28  1  0.76373387  0.10998018  0.86356323  1
  Gd  Gd29  1  0.45303623  0.11414904  0.39899688  1
  Gd  Gd30  1  0.12179825  0.43790601  0.38735652  1
  Gd  Gd31  1  0.76413982  0.42153050  0.33338898  1
  Gd  Gd32  1  0.53813893  0.52370062  0.63438864  1
  Gd  Gd33  1  0.23603735  0.86291693  0.15659227  1
  Gd  Gd34  1  0.87894031  0.87561564  0.59755284  1
  Gd  Gd35  1  0.76740702  0.76619011  0.31659428  1
  N  N36  1  0.20871230  0.18846862  0.34927442  1
  N  N37  1  0.12324645  0.11067020  0.08284332  1
  N  N38  1  0.90346822  0.22165869  0.89640005  1
  N  N39  1  0.74734293  0.13401084  0.64533369  1
  N  N40  1  0.58518981  0.23976464  0.31756115  1
  N  N41  1  0.45669077  0.09262485  0.13454254  1
  N  N42  1  0.21206343  0.20549302  0.83268756  1
  N  N43  1  0.10717376  0.08632932  0.60426541  1
  N  N44  1  0.90024885  0.17909542  0.40822364  1
  N  N45  1  0.80076153  0.08629927  0.11850366  1
  N  N46  1  0.50355010  0.23448100  0.83065752  1
  N  N47  1  0.43705481  0.08700768  0.63658965  1
  N  N48  1  0.24330666  0.56884967  0.31777752  1
  N  N49  1  0.11194433  0.43093297  0.13917097  1
  N  N50  1  0.89550935  0.53521551  0.88788102  1
  N  N51  1  0.80265844  0.40844257  0.65460846  1
  N  N52  1  0.53278736  0.55803964  0.42046184  1
  N  N53  1  0.44715024  0.42778391  0.07626635  1
  N  N54  1  0.22069140  0.54272170  0.82679814  1
  N  N55  1  0.09745264  0.42909555  0.63673239  1
  N  N56  1  0.87330067  0.54783756  0.42199589  1
  N  N57  1  0.78289272  0.43225804  0.11762403  1
  N  N58  1  0.56094404  0.52949282  0.86991753  1
  N  N59  1  0.40261271  0.39124837  0.55686362  1
  N  N60  1  0.22806993  0.87534938  0.36945743  1
  N  N61  1  0.11541261  0.73919505  0.06984540  1
  N  N62  1  0.89685508  0.84909472  0.87482080  1
  N  N63  1  0.76149887  0.74292993  0.66258334  1
  N  N64  1  0.55014056  0.86541968  0.42766542  1
  N  N65  1  0.47311450  0.75115855  0.06838183  1
  N  N66  1  0.21614516  0.87433340  0.84692018  1
  N  N67  1  0.14750922  0.73735547  0.59008384  1
  N  N68  1  0.90453144  0.87852510  0.38111417  1
  N  N69  1  0.78143961  0.76016456  0.10214307  1
  N  N70  1  0.55205494  0.88455959  0.88033361  1
  N  N71  1  0.42477875  0.78383815  0.62465760  1
