# generated using pymatgen
data_Gd2Al7N9
_symmetry_space_group_name_H-M   'P 1'
_cell_length_a   9.88898276
_cell_length_b   9.88487730
_cell_length_c   10.58333685
_cell_angle_alpha   91.05241607
_cell_angle_beta   91.12255741
_cell_angle_gamma   59.97596444
_symmetry_Int_Tables_number   1
_chemical_formula_structural   Gd2Al7N9
_chemical_formula_sum   'Gd8 Al28 N36'
_cell_volume   895.50146753
_cell_formula_units_Z   4
loop_
 _symmetry_equiv_pos_site_id
 _symmetry_equiv_pos_as_xyz
  1  'x, y, z'
loop_
 _atom_site_type_symbol
 _atom_site_label
 _atom_site_symmetry_multiplicity
 _atom_site_fract_x
 _atom_site_fract_y
 _atom_site_fract_z
 _atom_site_occupancy
  Al  Al0  1  0.11191445  0.09145851  0.31858297  1
  Al  Al1  1  0.23055685  0.21698742  0.04963739  1
  Al  Al2  1  0.89190814  0.19767904  0.56297606  1
  Al  Al3  1  0.56041726  0.22130650  0.11994397  1
  Al  Al4  1  0.11004842  0.10287053  0.81095400  1
  Al  Al5  1  0.21137307  0.19658680  0.57293029  1
  Al  Al6  1  0.80684775  0.08317512  0.29595463  1
  Al  Al7  1  0.90476274  0.22605214  0.05668078  1
  Al  Al8  1  0.43201703  0.09264673  0.80435892  1
  Al  Al9  1  0.53347530  0.20977760  0.63022108  1
  Al  Al10  1  0.22880080  0.54381958  0.11442132  1
  Al  Al11  1  0.79568349  0.42478993  0.80712431  1
  Al  Al12  1  0.88649032  0.52674066  0.57060699  1
  Al  Al13  1  0.43161837  0.43611730  0.36898620  1
  Al  Al14  1  0.57018043  0.54594575  0.03858290  1
  Al  Al15  1  0.11074690  0.42401780  0.80974590  1
  Al  Al16  1  0.22033904  0.52374471  0.61883926  1
  Al  Al17  1  0.89599714  0.54338579  0.03558798  1
  Al  Al18  1  0.42705250  0.43287675  0.87522598  1
  Al  Al19  1  0.13051467  0.75763116  0.37215750  1
  Al  Al20  1  0.77405489  0.75362131  0.80761789  1
  Al  Al21  1  0.43274096  0.76429465  0.32880235  1
  Al  Al22  1  0.56338519  0.88117559  0.04578494  1
  Al  Al23  1  0.11633053  0.74616687  0.86766274  1
  Al  Al24  1  0.21890060  0.86707899  0.63837591  1
  Al  Al25  1  0.89339770  0.86298111  0.04118026  1
  Al  Al26  1  0.44735447  0.76769121  0.81911177  1
  Al  Al27  1  0.54594227  0.86142209  0.57368052  1
  Gd  Gd28  1  0.76707526  0.11270037  0.84207425  1
  Gd  Gd29  1  0.45454543  0.10493603  0.35181802  1
  Gd  Gd30  1  0.10491205  0.41257375  0.30244967  1
  Gd  Gd31  1  0.75159540  0.41694988  0.31009182  1
  Gd  Gd32  1  0.53982370  0.52632273  0.60029377  1
  Gd  Gd33  1  0.22418119  0.88444230  0.08754068  1
  Gd  Gd34  1  0.88498125  0.87272789  0.57745357  1
  Gd  Gd35  1  0.76971142  0.75729301  0.29818875  1
  N  N36  1  0.21258847  0.18525458  0.39803777  1
  N  N37  1  0.10197353  0.14886636  0.13732800  1
  N  N38  1  0.91276215  0.22473249  0.87940213  1
  N  N39  1  0.75211844  0.13048894  0.62057393  1
  N  N40  1  0.58855055  0.24117588  0.29508187  1
  N  N41  1  0.45109509  0.10049965  0.11017587  1
  N  N42  1  0.22461404  0.20152693  0.86566260  1
  N  N43  1  0.10330699  0.08905901  0.63060933  1
  N  N44  1  0.91082272  0.17217907  0.38243445  1
  N  N45  1  0.80097264  0.09024521  0.09365967  1
  N  N46  1  0.50892178  0.23250389  0.81073854  1
  N  N47  1  0.43843314  0.08119798  0.61761833  1
  N  N48  1  0.23122134  0.55309940  0.29568722  1
  N  N49  1  0.11611977  0.43549989  0.08170973  1
  N  N50  1  0.89280561  0.54000745  0.85744443  1
  N  N51  1  0.80290418  0.40494499  0.62628138  1
  N  N52  1  0.51549412  0.56579540  0.38782928  1
  N  N53  1  0.44766054  0.43466638  0.05439668  1
  N  N54  1  0.22476740  0.54135282  0.80311437  1
  N  N55  1  0.10329408  0.41708908  0.62488867  1
  N  N56  1  0.87925744  0.53282932  0.39268921  1
  N  N57  1  0.78141916  0.44151553  0.09530142  1
  N  N58  1  0.56236880  0.53718925  0.85107655  1
  N  N59  1  0.41011880  0.38880604  0.53889701  1
  N  N60  1  0.21798035  0.87326852  0.31089322  1
  N  N61  1  0.10996007  0.74178463  0.04625011  1
  N  N62  1  0.89505028  0.85145620  0.84567573  1
  N  N63  1  0.75962074  0.74125408  0.62764077  1
  N  N64  1  0.53974783  0.85930367  0.39421776  1
  N  N65  1  0.48401004  0.75179806  0.10399231  1
  N  N66  1  0.21515289  0.87262682  0.83677367  1
  N  N67  1  0.15394967  0.73293309  0.56016601  1
  N  N68  1  0.90112384  0.87767356  0.35726287  1
  N  N69  1  0.78351532  0.76325293  0.08201258  1
  N  N70  1  0.55440355  0.88039096  0.86491378  1
  N  N71  1  0.43117759  0.78169092  0.64243399  1
