# generated using pymatgen
data_Gd2Al7N9
_symmetry_space_group_name_H-M   'P 1'
_cell_length_a   9.86034798
_cell_length_b   9.86687829
_cell_length_c   10.62473650
_cell_angle_alpha   91.28364165
_cell_angle_beta   90.74293900
_cell_angle_gamma   60.26046643
_symmetry_Int_Tables_number   1
_chemical_formula_structural   Gd2Al7N9
_chemical_formula_sum   'Gd8 Al28 N36'
_cell_volume   897.31455340
_cell_formula_units_Z   4
loop_
 _symmetry_equiv_pos_site_id
 _symmetry_equiv_pos_as_xyz
  1  'x, y, z'
loop_
 _atom_site_type_symbol
 _atom_site_label
 _atom_site_symmetry_multiplicity
 _atom_site_fract_x
 _atom_site_fract_y
 _atom_site_fract_z
 _atom_site_occupancy
  Al  Al0  1  0.11307894  0.08677660  0.31802902  1
  Al  Al1  1  0.22828840  0.21574950  0.04790419  1
  Al  Al2  1  0.89375184  0.19497122  0.56323210  1
  Al  Al3  1  0.55892754  0.22450262  0.12026326  1
  Al  Al4  1  0.10930278  0.10714232  0.81251647  1
  Al  Al5  1  0.21345727  0.19811102  0.57323763  1
  Al  Al6  1  0.80283052  0.08472271  0.29129684  1
  Al  Al7  1  0.90173182  0.22636588  0.05628543  1
  Al  Al8  1  0.43344305  0.09418509  0.80409308  1
  Al  Al9  1  0.54093011  0.20772539  0.63124019  1
  Al  Al10  1  0.21727550  0.54102650  0.04744125  1
  Al  Al11  1  0.79332169  0.42574383  0.80689727  1
  Al  Al12  1  0.88960990  0.52690279  0.57331416  1
  Al  Al13  1  0.43241469  0.43679925  0.37117262  1
  Al  Al14  1  0.56889531  0.54887196  0.04588492  1
  Al  Al15  1  0.11381465  0.42666893  0.81323314  1
  Al  Al16  1  0.21509447  0.52444548  0.56386214  1
  Al  Al17  1  0.89083346  0.54450973  0.03257171  1
  Al  Al18  1  0.43977747  0.42990408  0.87644588  1
  Al  Al19  1  0.11182158  0.75708206  0.28822476  1
  Al  Al20  1  0.77740110  0.75471083  0.80885548  1
  Al  Al21  1  0.43393794  0.76299321  0.31139164  1
  Al  Al22  1  0.56219754  0.88348228  0.04788271  1
  Al  Al23  1  0.11848170  0.74439704  0.81249905  1
  Al  Al24  1  0.22130333  0.87282529  0.64210804  1
  Al  Al25  1  0.89743110  0.85967893  0.04496623  1
  Al  Al26  1  0.44961261  0.77022846  0.81690055  1
  Al  Al27  1  0.54786158  0.86526815  0.57009573  1
  Gd  Gd28  1  0.77514683  0.10260901  0.83964845  1
  Gd  Gd29  1  0.45229369  0.10404726  0.34702660  1
  Gd  Gd30  1  0.10264718  0.41180150  0.29623954  1
  Gd  Gd31  1  0.75599690  0.41136873  0.31149116  1
  Gd  Gd32  1  0.54247847  0.53479230  0.59323182  1
  Gd  Gd33  1  0.22390069  0.88569794  0.07686027  1
  Gd  Gd34  1  0.89454837  0.86631597  0.55663427  1
  Gd  Gd35  1  0.76484627  0.74936471  0.29280794  1
  N  N36  1  0.20928436  0.18741740  0.39825729  1
  N  N37  1  0.10031905  0.14694924  0.13531486  1
  N  N38  1  0.90997219  0.22655199  0.87943999  1
  N  N39  1  0.76219284  0.11646285  0.61983701  1
  N  N40  1  0.58554756  0.24196245  0.29549409  1
  N  N41  1  0.44727842  0.10376524  0.10988453  1
  N  N42  1  0.22572038  0.20297691  0.86510636  1
  N  N43  1  0.10396140  0.09156108  0.63239535  1
  N  N44  1  0.91108869  0.16654564  0.38354793  1
  N  N45  1  0.79849282  0.09367736  0.09331460  1
  N  N46  1  0.51598163  0.23081498  0.81092836  1
  N  N47  1  0.43947814  0.08417005  0.61728389  1
  N  N48  1  0.21298121  0.55282129  0.35711458  1
  N  N49  1  0.10943232  0.43410228  0.07856977  1
  N  N50  1  0.89140977  0.54019083  0.85512721  1
  N  N51  1  0.80443609  0.40338366  0.62690985  1
  N  N52  1  0.51626346  0.56731269  0.38036026  1
  N  N53  1  0.45147857  0.43480654  0.05738866  1
  N  N54  1  0.22121891  0.53830544  0.86493576  1
  N  N55  1  0.10970661  0.42099007  0.62836725  1
  N  N56  1  0.88064962  0.52986774  0.39621353  1
  N  N57  1  0.78065497  0.44261076  0.09757462  1
  N  N58  1  0.56097276  0.54384657  0.85454520  1
  N  N59  1  0.42633186  0.38844674  0.54532252  1
  N  N60  1  0.21759599  0.87086092  0.30487698  1
  N  N61  1  0.10184552  0.74603692  0.10633354  1
  N  N62  1  0.90570775  0.84294159  0.85945509  1
  N  N63  1  0.76201908  0.74569761  0.62791659  1
  N  N64  1  0.53738042  0.85978744  0.39181314  1
  N  N65  1  0.48549201  0.75348724  0.12044773  1
  N  N66  1  0.21791080  0.87715021  0.84316151  1
  N  N67  1  0.14711640  0.73015924  0.63205560  1
  N  N68  1  0.89419392  0.87668002  0.34036041  1
  N  N69  1  0.78017040  0.76332005  0.07900830  1
  N  N70  1  0.55408695  0.88262144  0.86735499  1
  N  N71  1  0.43194420  0.78754120  0.64203957  1
