# generated using pymatgen
data_Gd2Al7N9
_symmetry_space_group_name_H-M   'P 1'
_cell_length_a   9.84834085
_cell_length_b   9.87835095
_cell_length_c   10.60042556
_cell_angle_alpha   91.27805240
_cell_angle_beta   91.03108280
_cell_angle_gamma   60.15708164
_symmetry_Int_Tables_number   1
_chemical_formula_structural   Gd2Al7N9
_chemical_formula_sum   'Gd8 Al28 N36'
_cell_volume   894.26229989
_cell_formula_units_Z   4
loop_
 _symmetry_equiv_pos_site_id
 _symmetry_equiv_pos_as_xyz
  1  'x, y, z'
loop_
 _atom_site_type_symbol
 _atom_site_label
 _atom_site_symmetry_multiplicity
 _atom_site_fract_x
 _atom_site_fract_y
 _atom_site_fract_z
 _atom_site_occupancy
  Al  Al0  1  0.11307708  0.08899342  0.31818622  1
  Al  Al1  1  0.23164109  0.21788535  0.04803481  1
  Al  Al2  1  0.89107627  0.19595049  0.56290818  1
  Al  Al3  1  0.56116251  0.22184065  0.12021651  1
  Al  Al4  1  0.10878918  0.10584141  0.81123989  1
  Al  Al5  1  0.21055946  0.19769389  0.57420519  1
  Al  Al6  1  0.80649305  0.08245822  0.29196795  1
  Al  Al7  1  0.90281380  0.22862901  0.05689949  1
  Al  Al8  1  0.43399815  0.09213424  0.80413875  1
  Al  Al9  1  0.53534202  0.21017558  0.62952072  1
  Al  Al10  1  0.23015910  0.54274843  0.10983166  1
  Al  Al11  1  0.79087599  0.42711564  0.80625939  1
  Al  Al12  1  0.88734748  0.52457608  0.57308436  1
  Al  Al13  1  0.42885159  0.43706681  0.36762164  1
  Al  Al14  1  0.57009198  0.54843538  0.04410337  1
  Al  Al15  1  0.11077658  0.42361316  0.81536654  1
  Al  Al16  1  0.22004398  0.52301806  0.62442384  1
  Al  Al17  1  0.89461268  0.54483228  0.03341455  1
  Al  Al18  1  0.43178971  0.43209283  0.87640331  1
  Al  Al19  1  0.12642712  0.75822674  0.34956319  1
  Al  Al20  1  0.77430966  0.75375896  0.80783368  1
  Al  Al21  1  0.43700088  0.76229362  0.31017634  1
  Al  Al22  1  0.56418634  0.88258173  0.04905729  1
  Al  Al23  1  0.11747194  0.74546533  0.86852158  1
  Al  Al24  1  0.21566216  0.86908892  0.64047879  1
  Al  Al25  1  0.89452517  0.86370420  0.04281898  1
  Al  Al26  1  0.44767538  0.76938669  0.81640304  1
  Al  Al27  1  0.54548516  0.86228403  0.57070940  1
  Gd  Gd28  1  0.77266592  0.10710212  0.83724463  1
  Gd  Gd29  1  0.45526973  0.10505759  0.35456400  1
  Gd  Gd30  1  0.10305119  0.40715312  0.29604916  1
  Gd  Gd31  1  0.75259238  0.41266110  0.31300145  1
  Gd  Gd32  1  0.53369527  0.53516208  0.59324753  1
  Gd  Gd33  1  0.22598506  0.89109132  0.08005888  1
  Gd  Gd34  1  0.88720207  0.86735544  0.56591479  1
  Gd  Gd35  1  0.76808718  0.75008225  0.29486772  1
  N  N36  1  0.21146749  0.18550004  0.39911106  1
  N  N37  1  0.10052849  0.15376503  0.13832843  1
  N  N38  1  0.91046409  0.22783013  0.87998411  1
  N  N39  1  0.75554043  0.12254864  0.61767537  1
  N  N40  1  0.58853551  0.24158509  0.29538141  1
  N  N41  1  0.45021656  0.10195118  0.11113885  1
  N  N42  1  0.22663265  0.20009632  0.86615859  1
  N  N43  1  0.10157949  0.09042717  0.63201561  1
  N  N44  1  0.91210397  0.16722325  0.38300650  1
  N  N45  1  0.80118606  0.09205239  0.09398617  1
  N  N46  1  0.51334598  0.23134098  0.81067568  1
  N  N47  1  0.43922318  0.08178133  0.61719637  1
  N  N48  1  0.23032977  0.54844848  0.29069214  1
  N  N49  1  0.11576456  0.43689488  0.07409114  1
  N  N50  1  0.88986333  0.54060084  0.85656737  1
  N  N51  1  0.79798048  0.40485610  0.62545587  1
  N  N52  1  0.51212923  0.56858041  0.38213730  1
  N  N53  1  0.45068784  0.43391433  0.05534846  1
  N  N54  1  0.22729993  0.53828210  0.80922327  1
  N  N55  1  0.10320997  0.41561549  0.63030392  1
  N  N56  1  0.88216310  0.52898381  0.39516575  1
  N  N57  1  0.78198226  0.44367477  0.09918471  1
  N  N58  1  0.55993940  0.54366115  0.85550716  1
  N  N59  1  0.40975580  0.39032839  0.53950693  1
  N  N60  1  0.21848825  0.87256935  0.30158273  1
  N  N61  1  0.11279416  0.74498452  0.04944252  1
  N  N62  1  0.89672537  0.84824517  0.85106952  1
  N  N63  1  0.75883376  0.74097720  0.62805106  1
  N  N64  1  0.53858273  0.85915985  0.39184160  1
  N  N65  1  0.48834702  0.75180956  0.12171906  1
  N  N66  1  0.21522525  0.87516732  0.83932928  1
  N  N67  1  0.15171446  0.73223161  0.57051250  1
  N  N68  1  0.90079033  0.87379367  0.34477916  1
  N  N69  1  0.78375448  0.76333068  0.08101455  1
  N  N70  1  0.55282048  0.88090012  0.86850906  1
  N  N71  1  0.42820063  0.78696321  0.64223939  1
