# generated using pymatgen
data_Gd2Al7N9
_symmetry_space_group_name_H-M   'P 1'
_cell_length_a   9.85756304
_cell_length_b   9.86301245
_cell_length_c   10.58759451
_cell_angle_alpha   91.08793728
_cell_angle_beta   90.65501057
_cell_angle_gamma   60.24422714
_symmetry_Int_Tables_number   1
_chemical_formula_structural   Gd2Al7N9
_chemical_formula_sum   'Gd8 Al28 N36'
_cell_volume   893.49301436
_cell_formula_units_Z   4
loop_
 _symmetry_equiv_pos_site_id
 _symmetry_equiv_pos_as_xyz
  1  'x, y, z'
loop_
 _atom_site_type_symbol
 _atom_site_label
 _atom_site_symmetry_multiplicity
 _atom_site_fract_x
 _atom_site_fract_y
 _atom_site_fract_z
 _atom_site_occupancy
  Al  Al0  1  0.11113605  0.08978857  0.31910432  1
  Al  Al1  1  0.22806833  0.21377037  0.04657001  1
  Al  Al2  1  0.89338764  0.19592635  0.56296961  1
  Al  Al3  1  0.55721871  0.22467542  0.11822542  1
  Al  Al4  1  0.11517258  0.09657965  0.80909246  1
  Al  Al5  1  0.21376370  0.20138366  0.57235781  1
  Al  Al6  1  0.80056385  0.08636113  0.29111316  1
  Al  Al7  1  0.90384793  0.22288217  0.05450522  1
  Al  Al8  1  0.43312084  0.09389008  0.80457217  1
  Al  Al9  1  0.54108469  0.20878585  0.63316725  1
  Al  Al10  1  0.21598725  0.54148599  0.04517642  1
  Al  Al11  1  0.79762896  0.42260820  0.80718468  1
  Al  Al12  1  0.88970234  0.52759757  0.57185339  1
  Al  Al13  1  0.43441285  0.43604700  0.37453470  1
  Al  Al14  1  0.56841592  0.54886862  0.04375397  1
  Al  Al15  1  0.11578599  0.42768715  0.80728687  1
  Al  Al16  1  0.21457194  0.52973226  0.55480891  1
  Al  Al17  1  0.89361712  0.54103442  0.03170656  1
  Al  Al18  1  0.43914088  0.43082535  0.87475026  1
  Al  Al19  1  0.10859153  0.75882993  0.29840627  1
  Al  Al20  1  0.77805344  0.75281930  0.81076040  1
  Al  Al21  1  0.43548757  0.76211956  0.31492411  1
  Al  Al22  1  0.56097155  0.88206308  0.04671475  1
  Al  Al23  1  0.12350097  0.74921418  0.80643683  1
  Al  Al24  1  0.22208345  0.87353865  0.59296559  1
  Al  Al25  1  0.90012495  0.85597609  0.04535795  1
  Al  Al26  1  0.43934200  0.77537623  0.81334819  1
  Al  Al27  1  0.54758196  0.86608316  0.57105582  1
  Gd  Gd28  1  0.77560916  0.10127630  0.84214025  1
  Gd  Gd29  1  0.45258132  0.10375783  0.34622156  1
  Gd  Gd30  1  0.10379425  0.41593300  0.29862245  1
  Gd  Gd31  1  0.75493432  0.41268660  0.30851555  1
  Gd  Gd32  1  0.54609928  0.53310637  0.59707467  1
  Gd  Gd33  1  0.22365322  0.88069591  0.07934739  1
  Gd  Gd34  1  0.88847471  0.86904553  0.56065862  1
  Gd  Gd35  1  0.76348062  0.75093637  0.29156790  1
  N  N36  1  0.20915317  0.18958681  0.39666963  1
  N  N37  1  0.10192546  0.14148130  0.13560709  1
  N  N38  1  0.91411581  0.22159067  0.87713219  1
  N  N39  1  0.76166808  0.11897995  0.62188617  1
  N  N40  1  0.58291362  0.24355108  0.29412516  1
  N  N41  1  0.44772411  0.10206678  0.10851510  1
  N  N42  1  0.22432582  0.20318241  0.86201238  1
  N  N43  1  0.10623288  0.08972636  0.62703072  1
  N  N44  1  0.90836574  0.16915630  0.38240452  1
  N  N45  1  0.79885549  0.09170954  0.09344980  1
  N  N46  1  0.51589057  0.22998432  0.81324826  1
  N  N47  1  0.44006821  0.08530893  0.61662266  1
  N  N48  1  0.21045744  0.55695176  0.37110841  1
  N  N49  1  0.11161240  0.43172714  0.08090878  1
  N  N50  1  0.89538145  0.53748924  0.85410745  1
  N  N51  1  0.80789027  0.40246176  0.62693122  1
  N  N52  1  0.51738463  0.56624129  0.38198167  1
  N  N53  1  0.44992538  0.43598458  0.05643466  1
  N  N54  1  0.22015600  0.54187275  0.86257368  1
  N  N55  1  0.11048768  0.42481661  0.62290008  1
  N  N56  1  0.87894471  0.53076601  0.39386220  1
  N  N57  1  0.78127099  0.43990946  0.09335770  1
  N  N58  1  0.56036321  0.54471637  0.85188664  1
  N  N59  1  0.42832143  0.39004970  0.54854218  1
  N  N60  1  0.21665260  0.87117642  0.32810524  1
  N  N61  1  0.10162404  0.74206394  0.11661992  1
  N  N62  1  0.90955293  0.84051103  0.85838901  1
  N  N63  1  0.76015363  0.74435364  0.62922014  1
  N  N64  1  0.53780939  0.86019943  0.39250326  1
  N  N65  1  0.48493795  0.75211577  0.12481367  1
  N  N66  1  0.21921530  0.87603961  0.85745438  1
  N  N67  1  0.14596382  0.73631695  0.62505860  1
  N  N68  1  0.88960909  0.87982385  0.34426242  1
  N  N69  1  0.78029219  0.76102394  0.07639090  1
  N  N70  1  0.55224513  0.88086222  0.86577073  1
  N  N71  1  0.42654776  0.79021013  0.63728719  1
