# generated using pymatgen
data_Gd2Al7N9
_symmetry_space_group_name_H-M   'P 1'
_cell_length_a   9.86548994
_cell_length_b   9.87672029
_cell_length_c   10.69635784
_cell_angle_alpha   91.35138201
_cell_angle_beta   91.57948030
_cell_angle_gamma   59.90493501
_symmetry_Int_Tables_number   1
_chemical_formula_structural   Gd2Al7N9
_chemical_formula_sum   'Gd8 Al28 N36'
_cell_volume   901.33955945
_cell_formula_units_Z   4
loop_
 _symmetry_equiv_pos_site_id
 _symmetry_equiv_pos_as_xyz
  1  'x, y, z'
loop_
 _atom_site_type_symbol
 _atom_site_label
 _atom_site_symmetry_multiplicity
 _atom_site_fract_x
 _atom_site_fract_y
 _atom_site_fract_z
 _atom_site_occupancy
  Al  Al0  1  0.10913096  0.09147730  0.32621748  1
  Al  Al1  1  0.23059693  0.21497721  0.04304968  1
  Al  Al2  1  0.88937268  0.20015744  0.56173673  1
  Al  Al3  1  0.56250858  0.22111578  0.11593022  1
  Al  Al4  1  0.11166232  0.10123746  0.80718458  1
  Al  Al5  1  0.21131448  0.19798215  0.57097972  1
  Al  Al6  1  0.80491490  0.08285057  0.29373074  1
  Al  Al7  1  0.90789278  0.22391200  0.05568128  1
  Al  Al8  1  0.43128061  0.09489775  0.79876547  1
  Al  Al9  1  0.53131910  0.21145946  0.62721498  1
  Al  Al10  1  0.22897604  0.54279198  0.11089434  1
  Al  Al11  1  0.79807615  0.42283379  0.80267461  1
  Al  Al12  1  0.88680452  0.52643975  0.56702009  1
  Al  Al13  1  0.43005084  0.43345332  0.36986766  1
  Al  Al14  1  0.57577522  0.53762859  0.02839678  1
  Al  Al15  1  0.11006115  0.42481079  0.80740451  1
  Al  Al16  1  0.21750363  0.52455240  0.61828967  1
  Al  Al17  1  0.89510680  0.54528895  0.03003502  1
  Al  Al18  1  0.42642130  0.43156314  0.87124296  1
  Al  Al19  1  0.12937517  0.75266775  0.37238191  1
  Al  Al20  1  0.77706920  0.75441539  0.80143325  1
  Al  Al21  1  0.41840502  0.77349225  0.40642307  1
  Al  Al22  1  0.56796500  0.88552788  0.03020975  1
  Al  Al23  1  0.11993850  0.74862386  0.86604903  1
  Al  Al24  1  0.21813358  0.86812594  0.63514478  1
  Al  Al25  1  0.89546538  0.86461527  0.03763952  1
  Al  Al26  1  0.44672905  0.76671371  0.85781590  1
  Al  Al27  1  0.55087201  0.86963399  0.57336341  1
  Gd  Gd28  1  0.76809891  0.11325352  0.83703260  1
  Gd  Gd29  1  0.44986644  0.10144867  0.33392702  1
  Gd  Gd30  1  0.10143916  0.40859893  0.29435971  1
  Gd  Gd31  1  0.74583176  0.41918825  0.30878436  1
  Gd  Gd32  1  0.53745005  0.52601652  0.60539985  1
  Gd  Gd33  1  0.23617425  0.87281372  0.11227691  1
  Gd  Gd34  1  0.88254699  0.87578428  0.56966202  1
  Gd  Gd35  1  0.77112603  0.75408215  0.29322962  1
  N  N36  1  0.21139703  0.18700554  0.39800289  1
  N  N37  1  0.10689928  0.14347046  0.13827116  1
  N  N38  1  0.91552585  0.22416971  0.87942239  1
  N  N39  1  0.75074108  0.13238342  0.61916983  1
  N  N40  1  0.58513620  0.23869782  0.29160927  1
  N  N41  1  0.45293595  0.09894719  0.10049349  1
  N  N42  1  0.22494459  0.20133692  0.86208134  1
  N  N43  1  0.10060437  0.09194185  0.62845877  1
  N  N44  1  0.90608963  0.17363700  0.38240127  1
  N  N45  1  0.80126894  0.09203593  0.09266771  1
  N  N46  1  0.50947520  0.23264156  0.80731946  1
  N  N47  1  0.43579231  0.08513077  0.61683666  1
  N  N48  1  0.22959398  0.55000694  0.29148644  1
  N  N49  1  0.11631349  0.43474583  0.07522742  1
  N  N50  1  0.89129007  0.54150466  0.85424313  1
  N  N51  1  0.80192712  0.40691255  0.62420469  1
  N  N52  1  0.51537168  0.56065069  0.38863352  1
  N  N53  1  0.44938437  0.43407104  0.04995622  1
  N  N54  1  0.22338228  0.54287962  0.80158070  1
  N  N55  1  0.10222165  0.41702073  0.62499924  1
  N  N56  1  0.88019297  0.53048923  0.39043389  1
  N  N57  1  0.78223584  0.44308393  0.09437353  1
  N  N58  1  0.56478857  0.52968952  0.84202614  1
  N  N59  1  0.40747198  0.39118374  0.53862169  1
  N  N60  1  0.22209751  0.87144255  0.32583824  1
  N  N61  1  0.11445785  0.74447856  0.04427676  1
  N  N62  1  0.89740865  0.85209638  0.84647825  1
  N  N63  1  0.76320771  0.74134759  0.62461640  1
  N  N64  1  0.54684359  0.86199867  0.39151332  1
  N  N65  1  0.47778204  0.75544809  0.03941535  1
  N  N66  1  0.22157243  0.86838969  0.82242256  1
  N  N67  1  0.14959704  0.73219914  0.55834584  1
  N  N68  1  0.90152291  0.87615550  0.35223927  1
  N  N69  1  0.78341881  0.76536546  0.07794135  1
  N  N70  1  0.55801562  0.88302468  0.84980910  1
  N  N71  1  0.42131190  0.78749194  0.59027907  1
