# generated using pymatgen
data_Gd2Al7N9
_symmetry_space_group_name_H-M   'P 1'
_cell_length_a   9.87184299
_cell_length_b   9.86822885
_cell_length_c   10.83732366
_cell_angle_alpha   91.20210767
_cell_angle_beta   91.24834391
_cell_angle_gamma   59.74536215
_symmetry_Int_Tables_number   1
_chemical_formula_structural   Gd2Al7N9
_chemical_formula_sum   'Gd8 Al28 N36'
_cell_volume   911.67033021
_cell_formula_units_Z   4
loop_
 _symmetry_equiv_pos_site_id
 _symmetry_equiv_pos_as_xyz
  1  'x, y, z'
loop_
 _atom_site_type_symbol
 _atom_site_label
 _atom_site_symmetry_multiplicity
 _atom_site_fract_x
 _atom_site_fract_y
 _atom_site_fract_z
 _atom_site_occupancy
  Al  Al0  1  0.11299232  0.07453844  0.41708346  1
  Al  Al1  1  0.23638900  0.21685428  0.04833944  1
  Al  Al2  1  0.87796008  0.20705549  0.57455077  1
  Al  Al3  1  0.56368766  0.21906850  0.12676418  1
  Al  Al4  1  0.11928521  0.09476256  0.88355410  1
  Al  Al5  1  0.21370038  0.20314989  0.58312681  1
  Al  Al6  1  0.80526915  0.08536690  0.30355509  1
  Al  Al7  1  0.89938513  0.21947268  0.05589175  1
  Al  Al8  1  0.43009585  0.09614767  0.80782020  1
  Al  Al9  1  0.52778618  0.21327392  0.63634561  1
  Al  Al10  1  0.23022948  0.54238448  0.12414142  1
  Al  Al11  1  0.79570503  0.42436893  0.81201089  1
  Al  Al12  1  0.88268488  0.53123670  0.57837655  1
  Al  Al13  1  0.43596325  0.43291207  0.38152519  1
  Al  Al14  1  0.57519924  0.53512911  0.03830981  1
  Al  Al15  1  0.10802477  0.42602412  0.81175696  1
  Al  Al16  1  0.21664760  0.52849160  0.63024189  1
  Al  Al17  1  0.89771953  0.53924213  0.04417635  1
  Al  Al18  1  0.42510756  0.43159476  0.88175206  1
  Al  Al19  1  0.13369458  0.75335584  0.38947357  1
  Al  Al20  1  0.77765022  0.75288527  0.81530773  1
  Al  Al21  1  0.42532273  0.77073849  0.42398890  1
  Al  Al22  1  0.56716445  0.88288043  0.04120095  1
  Al  Al23  1  0.12041934  0.74942262  0.87850371  1
  Al  Al24  1  0.21599300  0.87567277  0.64980759  1
  Al  Al25  1  0.89589951  0.86216484  0.04710547  1
  Al  Al26  1  0.44403083  0.76756100  0.87182513  1
  Al  Al27  1  0.55130386  0.87076552  0.58704111  1
  Gd  Gd28  1  0.76506968  0.10917980  0.84211944  1
  Gd  Gd29  1  0.44759226  0.09952029  0.33833782  1
  Gd  Gd30  1  0.10852781  0.41988571  0.32028688  1
  Gd  Gd31  1  0.75177926  0.42269188  0.31910652  1
  Gd  Gd32  1  0.53434130  0.52753713  0.61900589  1
  Gd  Gd33  1  0.23664119  0.86971264  0.13972857  1
  Gd  Gd34  1  0.88123885  0.87570216  0.57737652  1
  Gd  Gd35  1  0.77218380  0.75953307  0.30309641  1
  N  N36  1  0.21212261  0.19085791  0.40765727  1
  N  N37  1  0.11994299  0.11293372  0.06730208  1
  N  N38  1  0.90185802  0.22570429  0.87953166  1
  N  N39  1  0.74710335  0.13186262  0.62808661  1
  N  N40  1  0.58318661  0.23739170  0.30071808  1
  N  N41  1  0.45424593  0.09706132  0.11030900  1
  N  N42  1  0.22480835  0.21056652  0.86758535  1
  N  N43  1  0.10142135  0.08622827  0.59847087  1
  N  N44  1  0.89766218  0.18070417  0.39348472  1
  N  N45  1  0.79988634  0.09005389  0.10275519  1
  N  N46  1  0.50712113  0.23507441  0.81397120  1
  N  N47  1  0.43427278  0.08608850  0.62931040  1
  N  N48  1  0.23748623  0.55734281  0.30238804  1
  N  N49  1  0.11622800  0.43013623  0.10247890  1
  N  N50  1  0.89349274  0.53822133  0.86852156  1
  N  N51  1  0.79877970  0.41164493  0.63624624  1
  N  N52  1  0.52293871  0.55798137  0.40395456  1
  N  N53  1  0.44882260  0.43061233  0.05874978  1
  N  N54  1  0.22240903  0.54414500  0.81151383  1
  N  N55  1  0.09942511  0.42233858  0.63296652  1
  N  N56  1  0.87879108  0.53917485  0.40360618  1
  N  N57  1  0.78354690  0.43587773  0.10359684  1
  N  N58  1  0.56185899  0.53225603  0.85376366  1
  N  N59  1  0.40470997  0.39294905  0.54752963  1
  N  N60  1  0.22543446  0.87425868  0.35153303  1
  N  N61  1  0.11687218  0.74333418  0.05507431  1
  N  N62  1  0.89840144  0.84839527  0.86108427  1
  N  N63  1  0.76262101  0.74327734  0.64054036  1
  N  N64  1  0.55059547  0.86283802  0.40696857  1
  N  N65  1  0.47426546  0.75430261  0.05168735  1
  N  N66  1  0.21859715  0.87344768  0.83077723  1
  N  N67  1  0.14859567  0.73492351  0.57256990  1
  N  N68  1  0.90582887  0.87723794  0.36321372  1
  N  N69  1  0.78362377  0.76198192  0.08951449  1
  N  N70  1  0.55613507  0.88394491  0.86313250  1
  N  N71  1  0.42249640  0.78757756  0.60444998  1
