# generated using pymatgen
data_Gd2Al7N9
_symmetry_space_group_name_H-M   'P 1'
_cell_length_a   9.89007914
_cell_length_b   9.90725875
_cell_length_c   10.41984761
_cell_angle_alpha   90.03930973
_cell_angle_beta   90.40748729
_cell_angle_gamma   59.97074511
_symmetry_Int_Tables_number   1
_chemical_formula_structural   Gd2Al7N9
_chemical_formula_sum   'Gd8 Al28 N36'
_cell_volume   883.90134577
_cell_formula_units_Z   4
loop_
 _symmetry_equiv_pos_site_id
 _symmetry_equiv_pos_as_xyz
  1  'x, y, z'
loop_
 _atom_site_type_symbol
 _atom_site_label
 _atom_site_symmetry_multiplicity
 _atom_site_fract_x
 _atom_site_fract_y
 _atom_site_fract_z
 _atom_site_occupancy
  Al  Al0  1  0.11045699  0.08839145  0.40681572  1
  Al  Al1  1  0.21462010  0.21219366  0.13950234  1
  Al  Al2  1  0.89560018  0.21616964  0.64759620  1
  Al  Al3  1  0.56009547  0.21195892  0.15056648  1
  Al  Al4  1  0.11361127  0.10095429  0.89622554  1
  Al  Al5  1  0.22224607  0.20396230  0.66630703  1
  Al  Al6  1  0.78394553  0.10031592  0.39294953  1
  Al  Al7  1  0.89808954  0.19745532  0.14876117  1
  Al  Al8  1  0.43934311  0.09887114  0.90428257  1
  Al  Al9  1  0.53805279  0.21037165  0.65073822  1
  Al  Al10  1  0.22270311  0.53878513  0.14306053  1
  Al  Al11  1  0.79291049  0.42185878  0.90146175  1
  Al  Al12  1  0.88671719  0.53560135  0.67066204  1
  Al  Al13  1  0.43453723  0.43606232  0.39907691  1
  Al  Al14  1  0.56189043  0.53289895  0.07301153  1
  Al  Al15  1  0.11478200  0.42682597  0.89619125  1
  Al  Al16  1  0.22192683  0.53095301  0.66190132  1
  Al  Al17  1  0.89698684  0.53714284  0.13081537  1
  Al  Al18  1  0.43356555  0.42523220  0.90102528  1
  Al  Al19  1  0.12887014  0.75633794  0.40447221  1
  Al  Al20  1  0.77962658  0.75916110  0.90747394  1
  Al  Al21  1  0.42722872  0.77361772  0.41835872  1
  Al  Al22  1  0.55803643  0.86708375  0.13727526  1
  Al  Al23  1  0.11333457  0.75352298  0.90348440  1
  Al  Al24  1  0.22206448  0.87940953  0.65245917  1
  Al  Al25  1  0.89387643  0.86926258  0.15456940  1
  Al  Al26  1  0.44523807  0.76751531  0.89296588  1
  Al  Al27  1  0.54970958  0.87847194  0.66686400  1
  Gd  Gd28  1  0.77752156  0.09936085  0.89510006  1
  Gd  Gd29  1  0.44444071  0.09503322  0.39092407  1
  Gd  Gd30  1  0.11757622  0.42772879  0.40922243  1
  Gd  Gd31  1  0.76907574  0.42237892  0.37384729  1
  Gd  Gd32  1  0.54583860  0.53569698  0.63479078  1
  Gd  Gd33  1  0.23116709  0.87210869  0.15451787  1
  Gd  Gd34  1  0.89353354  0.87036489  0.63750252  1
  Gd  Gd35  1  0.76612539  0.75890667  0.39046399  1
  N  N36  1  0.20350988  0.19386246  0.32271947  1
  N  N37  1  0.09907374  0.11853509  0.07601393  1
  N  N38  1  0.90653986  0.22029533  0.83080502  1
  N  N39  1  0.75766188  0.13405212  0.58973644  1
  N  N40  1  0.57130640  0.22845084  0.33100180  1
  N  N41  1  0.44629662  0.09748265  0.09543471  1
  N  N42  1  0.22555454  0.20337091  0.84952707  1
  N  N43  1  0.11088903  0.09808591  0.59569168  1
  N  N44  1  0.91400436  0.16967797  0.32936698  1
  N  N45  1  0.78170738  0.09089344  0.10884383  1
  N  N46  1  0.52464206  0.22092134  0.83603234  1
  N  N47  1  0.44157897  0.09090521  0.61152234  1
  N  N48  1  0.23242060  0.55425239  0.32363635  1
  N  N49  1  0.11810630  0.42702656  0.08386069  1
  N  N50  1  0.88732780  0.54113562  0.85925923  1
  N  N51  1  0.80484814  0.42177691  0.59372529  1
  N  N52  1  0.51845665  0.56279587  0.40347339  1
  N  N53  1  0.44446369  0.42617164  0.08496884  1
  N  N54  1  0.22377787  0.54070213  0.84595586  1
  N  N55  1  0.10401496  0.42950594  0.63227436  1
  N  N56  1  0.89866593  0.53473475  0.30762681  1
  N  N57  1  0.78389040  0.41805243  0.09228634  1
  N  N58  1  0.56039894  0.53015042  0.87338997  1
  N  N59  1  0.41159104  0.40553562  0.57878097  1
  N  N60  1  0.21895416  0.87689792  0.36998109  1
  N  N61  1  0.10144827  0.75029507  0.08585057  1
  N  N62  1  0.90205620  0.84559901  0.85047161  1
  N  N63  1  0.75995729  0.74537689  0.61050069  1
  N  N64  1  0.52586422  0.85833147  0.31578534  1
  N  N65  1  0.47201415  0.74855872  0.07150187  1
  N  N66  1  0.21940982  0.87433811  0.84549095  1
  N  N67  1  0.15011214  0.73684953  0.59107431  1
  N  N68  1  0.90569595  0.87859475  0.34974634  1
  N  N69  1  0.77864559  0.76530475  0.09626840  1
  N  N70  1  0.55732902  0.87731205  0.85201152  1
  N  N71  1  0.42914032  0.79752711  0.60397944  1
