# generated using pymatgen
data_Gd2Al7N9
_symmetry_space_group_name_H-M   'P 1'
_cell_length_a   9.88310247
_cell_length_b   9.89299295
_cell_length_c   10.39438773
_cell_angle_alpha   90.05019982
_cell_angle_beta   90.16708805
_cell_angle_gamma   59.99348900
_symmetry_Int_Tables_number   1
_chemical_formula_structural   Gd2Al7N9
_chemical_formula_sum   'Gd8 Al28 N36'
_cell_volume   880.07584200
_cell_formula_units_Z   4
loop_
 _symmetry_equiv_pos_site_id
 _symmetry_equiv_pos_as_xyz
  1  'x, y, z'
loop_
 _atom_site_type_symbol
 _atom_site_label
 _atom_site_symmetry_multiplicity
 _atom_site_fract_x
 _atom_site_fract_y
 _atom_site_fract_z
 _atom_site_occupancy
  Al  Al0  1  0.11159425  0.08684969  0.40679418  1
  Al  Al1  1  0.21403845  0.21277436  0.13907360  1
  Al  Al2  1  0.89614155  0.21555400  0.65025309  1
  Al  Al3  1  0.55942137  0.21051818  0.14957954  1
  Al  Al4  1  0.11255685  0.10189898  0.89573257  1
  Al  Al5  1  0.22240166  0.20407038  0.66701998  1
  Al  Al6  1  0.78367832  0.09973554  0.39224160  1
  Al  Al7  1  0.89640479  0.19883530  0.14833346  1
  Al  Al8  1  0.43877678  0.09951983  0.90265906  1
  Al  Al9  1  0.53811253  0.21241933  0.65029575  1
  Al  Al10  1  0.22095525  0.53919080  0.14249840  1
  Al  Al11  1  0.78225729  0.42738025  0.90632923  1
  Al  Al12  1  0.88743197  0.53577452  0.67360859  1
  Al  Al13  1  0.43599390  0.43583250  0.39125624  1
  Al  Al14  1  0.55631064  0.53736551  0.12814582  1
  Al  Al15  1  0.11494555  0.42705034  0.89617888  1
  Al  Al16  1  0.22402476  0.53129689  0.66181954  1
  Al  Al17  1  0.89593845  0.53713805  0.13047337  1
  Al  Al18  1  0.43752944  0.43053460  0.90449748  1
  Al  Al19  1  0.12734181  0.75676877  0.40340289  1
  Al  Al20  1  0.77909997  0.75895263  0.90727443  1
  Al  Al21  1  0.42961696  0.76995653  0.40826309  1
  Al  Al22  1  0.55715645  0.86828295  0.13602954  1
  Al  Al23  1  0.11365296  0.75341436  0.90235476  1
  Al  Al24  1  0.22489370  0.87697480  0.65076775  1
  Al  Al25  1  0.89302278  0.86935303  0.15372052  1
  Al  Al26  1  0.44920672  0.75902015  0.89705370  1
  Al  Al27  1  0.54963478  0.87618443  0.66595814  1
  Gd  Gd28  1  0.77643627  0.09952352  0.89475067  1
  Gd  Gd29  1  0.44305212  0.09556002  0.39203053  1
  Gd  Gd30  1  0.11793973  0.42799428  0.41005328  1
  Gd  Gd31  1  0.77839225  0.41722346  0.37982614  1
  Gd  Gd32  1  0.54874277  0.53393700  0.63973546  1
  Gd  Gd33  1  0.22707122  0.87490060  0.15226098  1
  Gd  Gd34  1  0.89347092  0.87066584  0.63701574  1
  Gd  Gd35  1  0.76579993  0.75931933  0.39018707  1
  N  N36  1  0.20258075  0.19418050  0.32278765  1
  N  N37  1  0.09743386  0.12070665  0.07553579  1
  N  N38  1  0.90406401  0.22269749  0.83323932  1
  N  N39  1  0.75783453  0.13511818  0.58959892  1
  N  N40  1  0.57174019  0.22525561  0.33035423  1
  N  N41  1  0.44550723  0.09785755  0.09402692  1
  N  N42  1  0.22505177  0.20380326  0.84957437  1
  N  N43  1  0.11190938  0.09723463  0.59627147  1
  N  N44  1  0.91544797  0.16769254  0.32883080  1
  N  N45  1  0.78147470  0.09065679  0.10866833  1
  N  N46  1  0.52336664  0.22444898  0.83610177  1
  N  N47  1  0.44213500  0.09082610  0.61314217  1
  N  N48  1  0.23017560  0.55467300  0.32351615  1
  N  N49  1  0.11744213  0.42726392  0.08391445  1
  N  N50  1  0.88602015  0.54050681  0.86184863  1
  N  N51  1  0.80552096  0.42187528  0.59621136  1
  N  N52  1  0.52171308  0.56172719  0.35430041  1
  N  N53  1  0.44456485  0.42741990  0.08876193  1
  N  N54  1  0.22608786  0.54022016  0.84644733  1
  N  N55  1  0.10543673  0.42964226  0.63361385  1
  N  N56  1  0.89960507  0.53422857  0.30802061  1
  N  N57  1  0.77926367  0.42018259  0.09712697  1
  N  N58  1  0.55885879  0.53243465  0.86019856  1
  N  N59  1  0.41477174  0.40887415  0.57344743  1
  N  N60  1  0.21905101  0.87583784  0.36852570  1
  N  N61  1  0.10029909  0.75040798  0.08515058  1
  N  N62  1  0.90217956  0.84510288  0.84981739  1
  N  N63  1  0.76092354  0.74432345  0.61084099  1
  N  N64  1  0.52689706  0.86105928  0.31457668  1
  N  N65  1  0.47208986  0.74572906  0.07537176  1
  N  N66  1  0.22138739  0.87331428  0.84506928  1
  N  N67  1  0.15021428  0.73692770  0.59030281  1
  N  N68  1  0.90557669  0.87845930  0.34963248  1
  N  N69  1  0.77802160  0.76562394  0.09630262  1
  N  N70  1  0.55617292  0.87555000  0.85201456  1
  N  N71  1  0.43288295  0.79159581  0.59452794  1
