# generated using pymatgen
data_Gd2Al7N9
_symmetry_space_group_name_H-M   'P 1'
_cell_length_a   9.87332134
_cell_length_b   9.93604037
_cell_length_c   10.69361015
_cell_angle_alpha   89.99049032
_cell_angle_beta   90.44021348
_cell_angle_gamma   59.00501942
_symmetry_Int_Tables_number   1
_chemical_formula_structural   Gd2Al7N9
_chemical_formula_sum   'Gd8 Al28 N36'
_cell_volume   899.23163974
_cell_formula_units_Z   4
loop_
 _symmetry_equiv_pos_site_id
 _symmetry_equiv_pos_as_xyz
  1  'x, y, z'
loop_
 _atom_site_type_symbol
 _atom_site_label
 _atom_site_symmetry_multiplicity
 _atom_site_fract_x
 _atom_site_fract_y
 _atom_site_fract_z
 _atom_site_occupancy
  Al  Al0  1  0.11378833  0.08699357  0.40614403  1
  Al  Al1  1  0.21632990  0.20938755  0.15284997  1
  Al  Al2  1  0.89014303  0.21944652  0.65900317  1
  Al  Al3  1  0.54698886  0.21286396  0.14229525  1
  Al  Al4  1  0.11509665  0.10029368  0.90029178  1
  Al  Al5  1  0.22223712  0.19004182  0.66541720  1
  Al  Al6  1  0.79520959  0.09045052  0.31176451  1
  Al  Al7  1  0.90291406  0.20775626  0.13702842  1
  Al  Al8  1  0.43048808  0.09809473  0.90933061  1
  Al  Al9  1  0.52166369  0.21621383  0.66170462  1
  Al  Al10  1  0.21531689  0.54105057  0.14890357  1
  Al  Al11  1  0.78705592  0.42777556  0.89377968  1
  Al  Al12  1  0.88342831  0.54278490  0.60216099  1
  Al  Al13  1  0.44152783  0.43323745  0.39250686  1
  Al  Al14  1  0.55786384  0.53260620  0.06823553  1
  Al  Al15  1  0.10753250  0.42506449  0.83522605  1
  Al  Al16  1  0.21796094  0.53837654  0.65842578  1
  Al  Al17  1  0.90331525  0.53530287  0.06618004  1
  Al  Al18  1  0.41842356  0.43138013  0.90447612  1
  Al  Al19  1  0.13439691  0.76250292  0.41691704  1
  Al  Al20  1  0.77447941  0.75474004  0.84259206  1
  Al  Al21  1  0.44240011  0.76699797  0.41779463  1
  Al  Al22  1  0.55675627  0.86030543  0.13638839  1
  Al  Al23  1  0.11580203  0.75568063  0.89321904  1
  Al  Al24  1  0.22250121  0.87932530  0.65289118  1
  Al  Al25  1  0.88318168  0.86315718  0.05583326  1
  Al  Al26  1  0.43821128  0.76996216  0.89727970  1
  Al  Al27  1  0.54104691  0.87862318  0.67108278  1
  Gd  Gd28  1  0.75876725  0.12468904  0.87677873  1
  Gd  Gd29  1  0.47412304  0.06895360  0.39598926  1
  Gd  Gd30  1  0.16396878  0.40459439  0.42270468  1
  Gd  Gd31  1  0.77892159  0.43265369  0.37425280  1
  Gd  Gd32  1  0.54050744  0.52855155  0.63208993  1
  Gd  Gd33  1  0.21847628  0.86878470  0.15969774  1
  Gd  Gd34  1  0.87511025  0.89197894  0.61143140  1
  Gd  Gd35  1  0.83101192  0.74296929  0.31093237  1
  N  N36  1  0.22464104  0.17548585  0.33118338  1
  N  N37  1  0.10853076  0.11438359  0.07568742  1
  N  N38  1  0.91074602  0.22571940  0.83660387  1
  N  N39  1  0.74019677  0.15033538  0.65456971  1
  N  N40  1  0.56808452  0.22621281  0.31827555  1
  N  N41  1  0.44449411  0.09280342  0.09508221  1
  N  N42  1  0.22251521  0.19827387  0.84399298  1
  N  N43  1  0.10361937  0.09755761  0.59389566  1
  N  N44  1  0.92037506  0.17755855  0.31275907  1
  N  N45  1  0.78345683  0.08559387  0.11316681  1
  N  N46  1  0.49873548  0.23027968  0.84222230  1
  N  N47  1  0.43953121  0.08885774  0.61093681  1
  N  N48  1  0.22889130  0.56907658  0.32466725  1
  N  N49  1  0.11051470  0.42896772  0.12719203  1
  N  N50  1  0.89385783  0.53827099  0.88813177  1
  N  N51  1  0.79415346  0.41927023  0.59722441  1
  N  N52  1  0.52704000  0.55424655  0.40908687  1
  N  N53  1  0.43736497  0.42889999  0.08262540  1
  N  N54  1  0.21571465  0.54652702  0.83588621  1
  N  N55  1  0.10497053  0.42427462  0.65091634  1
  N  N56  1  0.91440514  0.54511445  0.42967513  1
  N  N57  1  0.78124307  0.42400370  0.08739554  1
  N  N58  1  0.55432549  0.53042656  0.87522815  1
  N  N59  1  0.39948761  0.40164006  0.56631344  1
  N  N60  1  0.22899302  0.87389919  0.37110000  1
  N  N61  1  0.10411709  0.74325603  0.07206650  1
  N  N62  1  0.88932779  0.86018522  0.87206529  1
  N  N63  1  0.76333273  0.74887033  0.66239172  1
  N  N64  1  0.56612399  0.82904437  0.31864720  1
  N  N65  1  0.46106116  0.75102102  0.07364886  1
  N  N66  1  0.21690191  0.87556401  0.84142362  1
  N  N67  1  0.14798531  0.74262035  0.59790849  1
  N  N68  1  0.90304809  0.90007804  0.39669652  1
  N  N69  1  0.77816202  0.75765947  0.09823287  1
  N  N70  1  0.54240013  0.88030675  0.85239384  1
  N  N71  1  0.43172620  0.79405602  0.59971309  1
