# generated using pymatgen
data_Gd2Al7N9
_symmetry_space_group_name_H-M   'P 1'
_cell_length_a   9.91237665
_cell_length_b   9.90189091
_cell_length_c   10.46432692
_cell_angle_alpha   89.77492573
_cell_angle_beta   90.69287646
_cell_angle_gamma   59.88190075
_symmetry_Int_Tables_number   1
_chemical_formula_structural   Gd2Al7N9
_chemical_formula_sum   'Gd8 Al28 N36'
_cell_volume   888.29872692
_cell_formula_units_Z   4
loop_
 _symmetry_equiv_pos_site_id
 _symmetry_equiv_pos_as_xyz
  1  'x, y, z'
loop_
 _atom_site_type_symbol
 _atom_site_label
 _atom_site_symmetry_multiplicity
 _atom_site_fract_x
 _atom_site_fract_y
 _atom_site_fract_z
 _atom_site_occupancy
  Al  Al0  1  0.11259725  0.08757650  0.40738902  1
  Al  Al1  1  0.21839675  0.20989618  0.14142454  1
  Al  Al2  1  0.89280036  0.21723697  0.65592011  1
  Al  Al3  1  0.55109626  0.21547903  0.14462442  1
  Al  Al4  1  0.11621630  0.10035816  0.89701842  1
  Al  Al5  1  0.21953605  0.20535378  0.66611703  1
  Al  Al6  1  0.79135577  0.08934404  0.32171515  1
  Al  Al7  1  0.90514091  0.20277422  0.14225024  1
  Al  Al8  1  0.43686846  0.09886641  0.90485900  1
  Al  Al9  1  0.53454854  0.21208053  0.65993639  1
  Al  Al10  1  0.22334424  0.53820586  0.14232525  1
  Al  Al11  1  0.79368708  0.42487692  0.89993473  1
  Al  Al12  1  0.88507484  0.53829498  0.66887014  1
  Al  Al13  1  0.43547068  0.43471163  0.39946199  1
  Al  Al14  1  0.56301208  0.53279800  0.06926666  1
  Al  Al15  1  0.11387174  0.42739778  0.89600223  1
  Al  Al16  1  0.21856178  0.53252409  0.65962984  1
  Al  Al17  1  0.89733601  0.53518211  0.13155024  1
  Al  Al18  1  0.42888278  0.42844171  0.90128258  1
  Al  Al19  1  0.13139246  0.75505269  0.40409201  1
  Al  Al20  1  0.77883178  0.76032366  0.90475682  1
  Al  Al21  1  0.42921860  0.77271671  0.42076154  1
  Al  Al22  1  0.55883852  0.86555891  0.13808943  1
  Al  Al23  1  0.11223313  0.75500642  0.89991152  1
  Al  Al24  1  0.22103935  0.87977579  0.65192123  1
  Al  Al25  1  0.89957459  0.85759039  0.14491588  1
  Al  Al26  1  0.44426849  0.76873445  0.89213275  1
  Al  Al27  1  0.54822441  0.87905370  0.66724181  1
  Gd  Gd28  1  0.77391320  0.10551276  0.89052169  1
  Gd  Gd29  1  0.44987951  0.09372277  0.39544094  1
  Gd  Gd30  1  0.11949484  0.42629172  0.40784568  1
  Gd  Gd31  1  0.76958285  0.41762698  0.37944522  1
  Gd  Gd32  1  0.54513205  0.53182164  0.63631571  1
  Gd  Gd33  1  0.23308328  0.86832774  0.15554029  1
  Gd  Gd34  1  0.88775767  0.87950947  0.63544239  1
  Gd  Gd35  1  0.77020093  0.75576790  0.38974650  1
  N  N36  1  0.20942079  0.19112293  0.32449157  1
  N  N37  1  0.10618612  0.11497439  0.07611591  1
  N  N38  1  0.91007725  0.22289025  0.83771123  1
  N  N39  1  0.75058759  0.14122774  0.63712717  1
  N  N40  1  0.57175556  0.22875121  0.32521423  1
  N  N41  1  0.44614501  0.09612146  0.09506209  1
  N  N42  1  0.22418674  0.20468361  0.84869542  1
  N  N43  1  0.10693965  0.09956151  0.59585871  1
  N  N44  1  0.92069128  0.16999130  0.32137285  1
  N  N45  1  0.78251471  0.08992602  0.11942550  1
  N  N46  1  0.51690187  0.22435131  0.84403731  1
  N  N47  1  0.43870487  0.09279476  0.61432263  1
  N  N48  1  0.23382659  0.55386256  0.32217240  1
  N  N49  1  0.11863184  0.42608749  0.08429480  1
  N  N50  1  0.88736856  0.54353860  0.85652608  1
  N  N51  1  0.80318495  0.42229215  0.59632908  1
  N  N52  1  0.51903565  0.56140021  0.40676742  1
  N  N53  1  0.44251262  0.42935497  0.08369995  1
  N  N54  1  0.22065624  0.54257631  0.84322857  1
  N  N55  1  0.10115855  0.43110356  0.62907236  1
  N  N56  1  0.89744987  0.53023819  0.30798690  1
  N  N57  1  0.78499041  0.41949814  0.08848336  1
  N  N58  1  0.55950791  0.53059447  0.87367791  1
  N  N59  1  0.40849920  0.40390096  0.57747886  1
  N  N60  1  0.22098073  0.87627492  0.37038917  1
  N  N61  1  0.10437607  0.74768433  0.08112393  1
  N  N62  1  0.89943613  0.84962675  0.85031207  1
  N  N63  1  0.75708968  0.74970027  0.60899184  1
  N  N64  1  0.52909527  0.85698064  0.31716952  1
  N  N65  1  0.47214171  0.74877655  0.07096842  1
  N  N66  1  0.21907196  0.87488057  0.84439699  1
  N  N67  1  0.14719999  0.73932653  0.58968017  1
  N  N68  1  0.91209532  0.87047224  0.33742438  1
  N  N69  1  0.77895677  0.76225123  0.09345389  1
  N  N70  1  0.55627646  0.87781680  0.85177704  1
  N  N71  1  0.42865421  0.79649010  0.60554970  1
