# generated using pymatgen
data_Gd2Al7N9
_symmetry_space_group_name_H-M   'P 1'
_cell_length_a   9.87184151
_cell_length_b   9.86822591
_cell_length_c   10.83733328
_cell_angle_alpha   91.20202736
_cell_angle_beta   91.24831879
_cell_angle_gamma   59.74535098
_symmetry_Int_Tables_number   1
_chemical_formula_structural   Gd2Al7N9
_chemical_formula_sum   'Gd8 Al28 N36'
_cell_volume   911.67065102
_cell_formula_units_Z   4
loop_
 _symmetry_equiv_pos_site_id
 _symmetry_equiv_pos_as_xyz
  1  'x, y, z'
loop_
 _atom_site_type_symbol
 _atom_site_label
 _atom_site_symmetry_multiplicity
 _atom_site_fract_x
 _atom_site_fract_y
 _atom_site_fract_z
 _atom_site_occupancy
  Al  Al0  1  0.11299013  0.07455550  0.41930840  1
  Al  Al1  1  0.23638569  0.21687197  0.05056134  1
  Al  Al2  1  0.87795858  0.20707209  0.57677577  1
  Al  Al3  1  0.56368628  0.21908479  0.12898907  1
  Al  Al4  1  0.11928268  0.09477925  0.88577631  1
  Al  Al5  1  0.21369916  0.20316745  0.58534789  1
  Al  Al6  1  0.80526663  0.08538390  0.30578112  1
  Al  Al7  1  0.89938277  0.21948911  0.05811485  1
  Al  Al8  1  0.43009296  0.09616644  0.81004557  1
  Al  Al9  1  0.52778340  0.21329037  0.63856753  1
  Al  Al10  1  0.23022764  0.54240195  0.12636649  1
  Al  Al11  1  0.79570299  0.42438609  0.81423433  1
  Al  Al12  1  0.88268204  0.53125504  0.58060234  1
  Al  Al13  1  0.43596211  0.43292871  0.38374994  1
  Al  Al14  1  0.57519684  0.53514663  0.04053486  1
  Al  Al15  1  0.10802227  0.42604104  0.81397813  1
  Al  Al16  1  0.21664565  0.52850922  0.63246592  1
  Al  Al17  1  0.89771830  0.53925806  0.04640189  1
  Al  Al18  1  0.42510514  0.43161180  0.88397730  1
  Al  Al19  1  0.13369361  0.75337349  0.39169896  1
  Al  Al20  1  0.77764890  0.75290175  0.81753477  1
  Al  Al21  1  0.42532293  0.77075495  0.42621569  1
  Al  Al22  1  0.56716179  0.88289699  0.04342226  1
  Al  Al23  1  0.12041695  0.74943999  0.88072549  1
  Al  Al24  1  0.21599055  0.87568988  0.65202956  1
  Al  Al25  1  0.89589787  0.86218184  0.04932870  1
  Al  Al26  1  0.44402811  0.76757744  0.87404565  1
  Al  Al27  1  0.55130194  0.87078275  0.58926988  1
  Gd  Gd28  1  0.76506674  0.10919721  0.84434218  1
  Gd  Gd29  1  0.44758846  0.09953470  0.34055688  1
  Gd  Gd30  1  0.10852623  0.41990548  0.32251290  1
  Gd  Gd31  1  0.75177927  0.42270914  0.32133153  1
  Gd  Gd32  1  0.53434009  0.52755198  0.62123076  1
  Gd  Gd33  1  0.23663892  0.86972937  0.14195259  1
  Gd  Gd34  1  0.88123544  0.87571858  0.57959969  1
  Gd  Gd35  1  0.77218100  0.75955112  0.30531984  1
  N  N36  1  0.21211988  0.19087540  0.40987927  1
  N  N37  1  0.11994097  0.11294982  0.06952409  1
  N  N38  1  0.90185541  0.22572110  0.88175461  1
  N  N39  1  0.74710097  0.13187924  0.63030956  1
  N  N40  1  0.58318334  0.23740657  0.30294339  1
  N  N41  1  0.45424393  0.09707788  0.11253010  1
  N  N42  1  0.22480487  0.21058466  0.86980832  1
  N  N43  1  0.10141999  0.08624599  0.60069460  1
  N  N44  1  0.89765978  0.18072118  0.39570995  1
  N  N45  1  0.79988410  0.09007092  0.10497957  1
  N  N46  1  0.50711847  0.23509269  0.81619385  1
  N  N47  1  0.43426924  0.08610618  0.63153561  1
  N  N48  1  0.23748551  0.55736140  0.30461249  1
  N  N49  1  0.11622640  0.43015276  0.10470506  1
  N  N50  1  0.89349180  0.53823708  0.87074673  1
  N  N51  1  0.79877812  0.41166164  0.63847025  1
  N  N52  1  0.52293850  0.55799752  0.40617966  1
  N  N53  1  0.44882084  0.43062896  0.06097487  1
  N  N54  1  0.22240687  0.54416180  0.81373722  1
  N  N55  1  0.09942311  0.42235612  0.63518862  1
  N  N56  1  0.87878857  0.53919420  0.40583158  1
  N  N57  1  0.78354490  0.43589420  0.10582137  1
  N  N58  1  0.56185720  0.53227245  0.85598800  1
  N  N59  1  0.40470704  0.39296672  0.54975345  1
  N  N60  1  0.22543456  0.87427568  0.35375843  1
  N  N61  1  0.11687085  0.74335068  0.05729669  1
  N  N62  1  0.89839900  0.84841295  0.86330841  1
  N  N63  1  0.76261938  0.74329398  0.64276765  1
  N  N64  1  0.55059507  0.86285545  0.40919615  1
  N  N65  1  0.47426194  0.75432028  0.05390932  1
  N  N66  1  0.21859408  0.87346496  0.83299877  1
  N  N67  1  0.14859267  0.73494140  0.57479405  1
  N  N68  1  0.90582794  0.87725398  0.36543726  1
  N  N69  1  0.78362127  0.76199889  0.09173727  1
  N  N70  1  0.55613224  0.88396205  0.86535465  1
  N  N71  1  0.42249574  0.78759276  0.60667662  1
