# generated using pymatgen
data_Gd2Al7N9
_symmetry_space_group_name_H-M   'P 1'
_cell_length_a   9.81062808
_cell_length_b   9.94434573
_cell_length_c   10.75572746
_cell_angle_alpha   89.92602225
_cell_angle_beta   89.70952016
_cell_angle_gamma   58.91195418
_symmetry_Int_Tables_number   1
_chemical_formula_structural   Gd2Al7N9
_chemical_formula_sum   'Gd8 Al28 N36'
_cell_volume   898.60868176
_cell_formula_units_Z   4
loop_
 _symmetry_equiv_pos_site_id
 _symmetry_equiv_pos_as_xyz
  1  'x, y, z'
loop_
 _atom_site_type_symbol
 _atom_site_label
 _atom_site_symmetry_multiplicity
 _atom_site_fract_x
 _atom_site_fract_y
 _atom_site_fract_z
 _atom_site_occupancy
  Al  Al0  1  0.11565287  0.08628690  0.40767311  1
  Al  Al1  1  0.21415540  0.21213293  0.15719039  1
  Al  Al2  1  0.89144749  0.21284865  0.65642829  1
  Al  Al3  1  0.54662898  0.21530701  0.14043116  1
  Al  Al4  1  0.11852376  0.09772208  0.90280298  1
  Al  Al5  1  0.22458207  0.19067080  0.66456306  1
  Al  Al6  1  0.80047257  0.08933377  0.30635112  1
  Al  Al7  1  0.89417986  0.21381620  0.09293014  1
  Al  Al8  1  0.42601244  0.10176306  0.90883910  1
  Al  Al9  1  0.52025964  0.21813464  0.65973426  1
  Al  Al10  1  0.21490191  0.54133558  0.14913132  1
  Al  Al11  1  0.78348946  0.43634269  0.84112856  1
  Al  Al12  1  0.88203215  0.54106641  0.60489749  1
  Al  Al13  1  0.44644860  0.43094980  0.39173640  1
  Al  Al14  1  0.55935782  0.53534629  0.06001211  1
  Al  Al15  1  0.10667055  0.42767967  0.83127545  1
  Al  Al16  1  0.21772618  0.53913511  0.65596842  1
  Al  Al17  1  0.89558226  0.53403206  0.06226163  1
  Al  Al18  1  0.41738926  0.43425126  0.90193615  1
  Al  Al19  1  0.13729870  0.76072576  0.41458187  1
  Al  Al20  1  0.77484902  0.75525965  0.84273020  1
  Al  Al21  1  0.44968503  0.76292797  0.41591541  1
  Al  Al22  1  0.55564508  0.86205384  0.13541016  1
  Al  Al23  1  0.11642583  0.75568732  0.89280946  1
  Al  Al24  1  0.22275906  0.87956425  0.65279602  1
  Al  Al25  1  0.88311926  0.86239303  0.05464831  1
  Al  Al26  1  0.43601361  0.77288816  0.89699535  1
  Al  Al27  1  0.54231149  0.87875517  0.67073397  1
  Gd  Gd28  1  0.75289181  0.11756803  0.87301143  1
  Gd  Gd29  1  0.48235235  0.06483766  0.39454241  1
  Gd  Gd30  1  0.16178572  0.40292699  0.42222274  1
  Gd  Gd31  1  0.77908651  0.43310755  0.32849402  1
  Gd  Gd32  1  0.53713309  0.53222210  0.62704421  1
  Gd  Gd33  1  0.21297284  0.87341005  0.16192418  1
  Gd  Gd34  1  0.87426460  0.89024518  0.60369074  1
  Gd  Gd35  1  0.84232119  0.72564438  0.30595114  1
  N  N36  1  0.23088323  0.17224525  0.33368871  1
  N  N37  1  0.11492545  0.11399170  0.07733859  1
  N  N38  1  0.90142796  0.22241558  0.87513059  1
  N  N39  1  0.74335053  0.14865892  0.65315974  1
  N  N40  1  0.56998114  0.22637954  0.31448954  1
  N  N41  1  0.44315912  0.09671736  0.09313354  1
  N  N42  1  0.21807469  0.20128213  0.84123339  1
  N  N43  1  0.10438705  0.09857305  0.59708716  1
  N  N44  1  0.92182863  0.17574111  0.32556741  1
  N  N45  1  0.78534158  0.08684911  0.10826310  1
  N  N46  1  0.49166283  0.23476856  0.83770693  1
  N  N47  1  0.44335060  0.08741861  0.60879370  1
  N  N48  1  0.23241892  0.56695939  0.32475874  1
  N  N49  1  0.09941611  0.43573040  0.13806318  1
  N  N50  1  0.89284776  0.53854278  0.88753388  1
  N  N51  1  0.79722141  0.42546331  0.66386413  1
  N  N52  1  0.53997729  0.54653940  0.41324212  1
  N  N53  1  0.43707288  0.42931856  0.07876823  1
  N  N54  1  0.21496675  0.54850090  0.83253521  1
  N  N55  1  0.10729881  0.42444304  0.64846564  1
  N  N56  1  0.90526889  0.53061028  0.43378301  1
  N  N57  1  0.77327926  0.43502290  0.10857959  1
  N  N58  1  0.55009825  0.53647942  0.87346595  1
  N  N59  1  0.40167054  0.40108907  0.56426648  1
  N  N60  1  0.23429363  0.87124652  0.37239223  1
  N  N61  1  0.10511136  0.74249990  0.07145123  1
  N  N62  1  0.89161638  0.85600483  0.87210318  1
  N  N63  1  0.76569113  0.74902559  0.66274257  1
  N  N64  1  0.57172366  0.82574469  0.31565525  1
  N  N65  1  0.45679569  0.75553398  0.07215139  1
  N  N66  1  0.21567528  0.87707546  0.83941749  1
  N  N67  1  0.14807227  0.74327442  0.59530725  1
  N  N68  1  0.90198626  0.89308587  0.38884583  1
  N  N69  1  0.77633319  0.75897208  0.09567591  1
  N  N70  1  0.54009090  0.88383033  0.85075663  1
  N  N71  1  0.43321913  0.79494982  0.59761580  1
