# generated using pymatgen
data_Gd2Al7N9
_symmetry_space_group_name_H-M   'P 1'
_cell_length_a   9.87991194
_cell_length_b   9.88139660
_cell_length_c   10.40957802
_cell_angle_alpha   90.33924086
_cell_angle_beta   90.30989090
_cell_angle_gamma   60.13280737
_symmetry_Int_Tables_number   1
_chemical_formula_structural   Gd2Al7N9
_chemical_formula_sum   'Gd8 Al28 N36'
_cell_volume   881.26281017
_cell_formula_units_Z   4
loop_
 _symmetry_equiv_pos_site_id
 _symmetry_equiv_pos_as_xyz
  1  'x, y, z'
loop_
 _atom_site_type_symbol
 _atom_site_label
 _atom_site_symmetry_multiplicity
 _atom_site_fract_x
 _atom_site_fract_y
 _atom_site_fract_z
 _atom_site_occupancy
  Al  Al0  1  0.10814249  0.09151956  0.31710968  1
  Al  Al1  1  0.21926316  0.21181661  0.03979578  1
  Al  Al2  1  0.89708700  0.19833784  0.55890275  1
  Al  Al3  1  0.54307715  0.21404129  0.05512454  1
  Al  Al4  1  0.11684758  0.09349534  0.80035761  1
  Al  Al5  1  0.21801293  0.20419630  0.57013900  1
  Al  Al6  1  0.78630278  0.09235795  0.30079547  1
  Al  Al7  1  0.89549049  0.21827414  0.05196056  1
  Al  Al8  1  0.43885881  0.09981776  0.80283570  1
  Al  Al9  1  0.55412785  0.21278206  0.55703861  1
  Al  Al10  1  0.22068682  0.53655245  0.04584688  1
  Al  Al11  1  0.79333420  0.42259321  0.80666276  1
  Al  Al12  1  0.89422999  0.52965393  0.57317685  1
  Al  Al13  1  0.43986514  0.43934014  0.30277384  1
  Al  Al14  1  0.55897871  0.54150492  0.04441160  1
  Al  Al15  1  0.11479141  0.42888067  0.80546622  1
  Al  Al16  1  0.22907802  0.53237082  0.56100910  1
  Al  Al17  1  0.89131319  0.53792356  0.03048110  1
  Al  Al18  1  0.43279136  0.42835414  0.80831889  1
  Al  Al19  1  0.11344964  0.75826185  0.30673226  1
  Al  Al20  1  0.77597800  0.75287894  0.80972622  1
  Al  Al21  1  0.44001639  0.75921243  0.30843085  1
  Al  Al22  1  0.55743142  0.87416917  0.03945845  1
  Al  Al23  1  0.12547871  0.75204255  0.80200868  1
  Al  Al24  1  0.22377362  0.87632627  0.55651824  1
  Al  Al25  1  0.89619748  0.85688716  0.04521430  1
  Al  Al26  1  0.43589494  0.77390233  0.80527711  1
  Al  Al27  1  0.54660803  0.87422119  0.56937003  1
  Gd  Gd28  1  0.77401595  0.10296093  0.82631510  1
  Gd  Gd29  1  0.44181090  0.09396936  0.31737703  1
  Gd  Gd30  1  0.11346805  0.42411133  0.30254319  1
  Gd  Gd31  1  0.77438027  0.41552865  0.30378266  1
  Gd  Gd32  1  0.55219858  0.54276547  0.57480804  1
  Gd  Gd33  1  0.21860825  0.87845298  0.07170435  1
  Gd  Gd34  1  0.89101372  0.86702481  0.56454713  1
  Gd  Gd35  1  0.76804838  0.75830381  0.29312858  1
  N  N36  1  0.20532519  0.19302652  0.39157752  1
  N  N37  1  0.09666074  0.13496441  0.13147432  1
  N  N38  1  0.91495271  0.21634159  0.87265402  1
  N  N39  1  0.76345979  0.12160875  0.61227486  1
  N  N40  1  0.57167908  0.22630258  0.36632096  1
  N  N41  1  0.44023794  0.09383892  0.09630381  1
  N  N42  1  0.22329962  0.20328449  0.85277964  1
  N  N43  1  0.11017973  0.08919102  0.61740919  1
  N  N44  1  0.90542841  0.17201673  0.37638164  1
  N  N45  1  0.78009658  0.09751731  0.09951372  1
  N  N46  1  0.51992091  0.22406897  0.87456699  1
  N  N47  1  0.44820102  0.09660852  0.61140534  1
  N  N48  1  0.23368054  0.54988807  0.37604186  1
  N  N49  1  0.10999379  0.42849781  0.07991358  1
  N  N50  1  0.89429808  0.53622026  0.85045713  1
  N  N51  1  0.81040430  0.40411008  0.62307137  1
  N  N52  1  0.52803898  0.55489498  0.35893822  1
  N  N53  1  0.44052446  0.43388620  0.11171714  1
  N  N54  1  0.22250626  0.54222165  0.86290834  1
  N  N55  1  0.11464837  0.42885399  0.61798352  1
  N  N56  1  0.88666218  0.53707220  0.39198981  1
  N  N57  1  0.77630462  0.43633419  0.08533905  1
  N  N58  1  0.55381911  0.54091733  0.85192357  1
  N  N59  1  0.43031348  0.41117490  0.62761569  1
  N  N60  1  0.22095507  0.87111017  0.35278993  1
  N  N61  1  0.09963242  0.73957597  0.12142616  1
  N  N62  1  0.90936891  0.84168415  0.85542717  1
  N  N63  1  0.75901434  0.74467471  0.62610875  1
  N  N64  1  0.53936885  0.85657864  0.38847979  1
  N  N65  1  0.47677267  0.75067737  0.11917865  1
  N  N66  1  0.21929772  0.87616449  0.85615193  1
  N  N67  1  0.14636764  0.74402716  0.61868420  1
  N  N68  1  0.89658987  0.88038415  0.34825849  1
  N  N69  1  0.77719137  0.75872144  0.07394206  1
  N  N70  1  0.55078976  0.87832672  0.85732356  1
  N  N71  1  0.42257620  0.79577773  0.62705809  1
