# generated using pymatgen
data_Gd2Al7N9
_symmetry_space_group_name_H-M   'P 1'
_cell_length_a   9.94159491
_cell_length_b   9.91133952
_cell_length_c   10.55269232
_cell_angle_alpha   89.80798928
_cell_angle_beta   90.49698256
_cell_angle_gamma   59.51140001
_symmetry_Int_Tables_number   1
_chemical_formula_structural   Gd2Al7N9
_chemical_formula_sum   'Gd8 Al28 N36'
_cell_volume   895.96089821
_cell_formula_units_Z   4
loop_
 _symmetry_equiv_pos_site_id
 _symmetry_equiv_pos_as_xyz
  1  'x, y, z'
loop_
 _atom_site_type_symbol
 _atom_site_label
 _atom_site_symmetry_multiplicity
 _atom_site_fract_x
 _atom_site_fract_y
 _atom_site_fract_z
 _atom_site_occupancy
  Al  Al0  1  0.11411126  0.08604393  0.40472139  1
  Al  Al1  1  0.22047653  0.20680020  0.14304411  1
  Al  Al2  1  0.89294463  0.22094892  0.65829360  1
  Al  Al3  1  0.55117093  0.21196152  0.14225597  1
  Al  Al4  1  0.11716667  0.10037211  0.89717041  1
  Al  Al5  1  0.21802114  0.20492746  0.66555763  1
  Al  Al6  1  0.80007104  0.08181138  0.31211776  1
  Al  Al7  1  0.90633592  0.20334895  0.13642818  1
  Al  Al8  1  0.43293097  0.09917992  0.90563696  1
  Al  Al9  1  0.52697765  0.21528392  0.66178919  1
  Al  Al10  1  0.22035139  0.53940491  0.14230081  1
  Al  Al11  1  0.79227488  0.42834941  0.89930416  1
  Al  Al12  1  0.88885369  0.53255161  0.66749470  1
  Al  Al13  1  0.43750978  0.43151978  0.39540416  1
  Al  Al14  1  0.56071638  0.53219206  0.06866455  1
  Al  Al15  1  0.11496142  0.42552794  0.89650573  1
  Al  Al16  1  0.21790756  0.53104570  0.65902743  1
  Al  Al17  1  0.89978040  0.53029154  0.12621237  1
  Al  Al18  1  0.42342492  0.43103716  0.90243337  1
  Al  Al19  1  0.13488885  0.75735483  0.41518200  1
  Al  Al20  1  0.77248421  0.76091322  0.84373229  1
  Al  Al21  1  0.43592483  0.76875992  0.41772291  1
  Al  Al22  1  0.55298272  0.86540029  0.13499285  1
  Al  Al23  1  0.11798869  0.75452617  0.89236449  1
  Al  Al24  1  0.22368880  0.87960679  0.65126965  1
  Al  Al25  1  0.88753187  0.85878844  0.06253204  1
  Al  Al26  1  0.44067603  0.76897217  0.89435418  1
  Al  Al27  1  0.54071311  0.88205452  0.66731044  1
  Gd  Gd28  1  0.76266483  0.12385087  0.87884969  1
  Gd  Gd29  1  0.45768467  0.08646529  0.39699603  1
  Gd  Gd30  1  0.12722335  0.42129415  0.40838428  1
  Gd  Gd31  1  0.77382643  0.41653142  0.38012342  1
  Gd  Gd32  1  0.54179566  0.53018225  0.63367447  1
  Gd  Gd33  1  0.22419737  0.86707372  0.15805407  1
  Gd  Gd34  1  0.88369923  0.89211833  0.61523549  1
  Gd  Gd35  1  0.79068934  0.76206891  0.33470558  1
  N  N36  1  0.21693068  0.18513316  0.32470678  1
  N  N37  1  0.10945425  0.11290899  0.07454233  1
  N  N38  1  0.91285232  0.22664969  0.83762143  1
  N  N39  1  0.74377808  0.15194010  0.65198816  1
  N  N40  1  0.57568809  0.22313949  0.32022973  1
  N  N41  1  0.44547000  0.09414368  0.09318033  1
  N  N42  1  0.22265542  0.20444813  0.84653485  1
  N  N43  1  0.10489453  0.09997632  0.59384786  1
  N  N44  1  0.92425156  0.16897180  0.31241830  1
  N  N45  1  0.78558099  0.08347813  0.11306420  1
  N  N46  1  0.50590793  0.22871143  0.84367758  1
  N  N47  1  0.43701122  0.09316990  0.61393694  1
  N  N48  1  0.23103706  0.55920742  0.32158269  1
  N  N49  1  0.12129068  0.42307761  0.08261858  1
  N  N50  1  0.89118853  0.53952647  0.85634724  1
  N  N51  1  0.80078628  0.42462916  0.59585492  1
  N  N52  1  0.52167626  0.55630218  0.40678460  1
  N  N53  1  0.44128366  0.42823774  0.08302582  1
  N  N54  1  0.21782169  0.54254455  0.84010163  1
  N  N55  1  0.10197580  0.42925079  0.62689879  1
  N  N56  1  0.90965205  0.51682316  0.30519022  1
  N  N57  1  0.78338175  0.42040305  0.08495657  1
  N  N58  1  0.55747046  0.53011179  0.87379095  1
  N  N59  1  0.40570009  0.40198236  0.57217963  1
  N  N60  1  0.22584194  0.87327627  0.37150347  1
  N  N61  1  0.10652551  0.74388117  0.07274155  1
  N  N62  1  0.89213811  0.85867049  0.87310805  1
  N  N63  1  0.76161508  0.75462833  0.65002390  1
  N  N64  1  0.53680086  0.85058847  0.31827273  1
  N  N65  1  0.46474239  0.74963217  0.07212526  1
  N  N66  1  0.21920276  0.87581808  0.84135260  1
  N  N67  1  0.15256321  0.73794113  0.59947658  1
  N  N68  1  0.91081820  0.89006666  0.39718189  1
  N  N69  1  0.77737082  0.76053257  0.11086120  1
  N  N70  1  0.54584988  0.88054169  0.85134000  1
  N  N71  1  0.43104272  0.79482435  0.60100448  1
