# generated using pymatgen
data_Gd2Al7N9
_symmetry_space_group_name_H-M   'P 1'
_cell_length_a   9.90023516
_cell_length_b   9.93229595
_cell_length_c   10.64048865
_cell_angle_alpha   89.93950517
_cell_angle_beta   90.58179286
_cell_angle_gamma   59.16362263
_symmetry_Int_Tables_number   1
_chemical_formula_structural   Gd2Al7N9
_chemical_formula_sum   'Gd8 Al28 N36'
_cell_volume   898.32026460
_cell_formula_units_Z   4
loop_
 _symmetry_equiv_pos_site_id
 _symmetry_equiv_pos_as_xyz
  1  'x, y, z'
loop_
 _atom_site_type_symbol
 _atom_site_label
 _atom_site_symmetry_multiplicity
 _atom_site_fract_x
 _atom_site_fract_y
 _atom_site_fract_z
 _atom_site_occupancy
  Al  Al0  1  0.11246668  0.08867393  0.40440019  1
  Al  Al1  1  0.21733060  0.20960503  0.14628398  1
  Al  Al2  1  0.88929695  0.22000797  0.65847037  1
  Al  Al3  1  0.54905045  0.21205087  0.14176570  1
  Al  Al4  1  0.11577549  0.09868221  0.89970953  1
  Al  Al5  1  0.21919115  0.19427465  0.66799838  1
  Al  Al6  1  0.79606959  0.08895684  0.31178734  1
  Al  Al7  1  0.90439494  0.20640458  0.13680672  1
  Al  Al8  1  0.43265721  0.09675776  0.90842033  1
  Al  Al9  1  0.52146959  0.21611681  0.66061655  1
  Al  Al10  1  0.21682359  0.53934057  0.14391805  1
  Al  Al11  1  0.78719676  0.42778125  0.89095709  1
  Al  Al12  1  0.88353739  0.54198645  0.60324938  1
  Al  Al13  1  0.43991931  0.43263939  0.39112472  1
  Al  Al14  1  0.56084549  0.53172839  0.06800484  1
  Al  Al15  1  0.11082403  0.42455587  0.85100697  1
  Al  Al16  1  0.21709909  0.53720274  0.66104238  1
  Al  Al17  1  0.90176243  0.53671383  0.06508275  1
  Al  Al18  1  0.42133671  0.43068109  0.90425843  1
  Al  Al19  1  0.13415788  0.76089305  0.41525391  1
  Al  Al20  1  0.77494528  0.75513360  0.83757460  1
  Al  Al21  1  0.43961164  0.76782231  0.41784875  1
  Al  Al22  1  0.55782234  0.86023990  0.13602896  1
  Al  Al23  1  0.11703107  0.75596894  0.89306788  1
  Al  Al24  1  0.22231559  0.87995456  0.65159593  1
  Al  Al25  1  0.88572499  0.86095900  0.05804846  1
  Al  Al26  1  0.44025360  0.76932596  0.89523572  1
  Al  Al27  1  0.53972847  0.88088913  0.66821949  1
  Gd  Gd28  1  0.75950347  0.12339522  0.87706384  1
  Gd  Gd29  1  0.46731757  0.07399116  0.39346453  1
  Gd  Gd30  1  0.16275947  0.40502042  0.42721271  1
  Gd  Gd31  1  0.77604467  0.43070377  0.37467644  1
  Gd  Gd32  1  0.53782678  0.52938146  0.63190303  1
  Gd  Gd33  1  0.22302496  0.86658202  0.15852696  1
  Gd  Gd34  1  0.87820978  0.89264512  0.61200050  1
  Gd  Gd35  1  0.81981570  0.74862324  0.31945412  1
  N  N36  1  0.21880082  0.18259764  0.32656223  1
  N  N37  1  0.10890691  0.11216781  0.07552007  1
  N  N38  1  0.91146056  0.22452209  0.83680213  1
  N  N39  1  0.73941939  0.15074239  0.65339773  1
  N  N40  1  0.56987329  0.22487393  0.31864791  1
  N  N41  1  0.44720005  0.09093029  0.09468038  1
  N  N42  1  0.22395998  0.19680682  0.84644024  1
  N  N43  1  0.10258370  0.09938217  0.59343126  1
  N  N44  1  0.91942461  0.17749261  0.31310565  1
  N  N45  1  0.78426387  0.08453417  0.11300987  1
  N  N46  1  0.50008254  0.22980550  0.84202137  1
  N  N47  1  0.43525179  0.09190358  0.60985304  1
  N  N48  1  0.22716778  0.56554919  0.32195931  1
  N  N49  1  0.11930423  0.42404459  0.09957678  1
  N  N50  1  0.88967160  0.54149872  0.88602182  1
  N  N51  1  0.79123298  0.42113910  0.59905297  1
  N  N52  1  0.52380773  0.55533526  0.40719004  1
  N  N53  1  0.44070814  0.42825883  0.08288442  1
  N  N54  1  0.21826148  0.54640135  0.83836536  1
  N  N55  1  0.10292779  0.42605807  0.65454434  1
  N  N56  1  0.91405647  0.54061207  0.42754209  1
  N  N57  1  0.78327819  0.42321180  0.08795180  1
  N  N58  1  0.55579053  0.52963262  0.87401399  1
  N  N59  1  0.39758478  0.40225361  0.56633544  1
  N  N60  1  0.22710767  0.87491464  0.37088994  1
  N  N61  1  0.10572846  0.74420523  0.07191797  1
  N  N62  1  0.89048032  0.85860508  0.87182669  1
  N  N63  1  0.76179251  0.75207161  0.65632691  1
  N  N64  1  0.55796058  0.83410653  0.31900208  1
  N  N65  1  0.46462551  0.74974253  0.07203868  1
  N  N66  1  0.21832210  0.87522378  0.84079440  1
  N  N67  1  0.14990509  0.74062787  0.59772832  1
  N  N68  1  0.90546639  0.89877977  0.39687851  1
  N  N69  1  0.78167315  0.75579607  0.10529058  1
  N  N70  1  0.54485043  0.87980673  0.85054090  1
  N  N71  1  0.43082588  0.79440497  0.59969346  1
