# generated using pymatgen
data_Gd2Al7N9
_symmetry_space_group_name_H-M   'P 1'
_cell_length_a   9.89287373
_cell_length_b   9.90795431
_cell_length_c   10.76458057
_cell_angle_alpha   90.80712512
_cell_angle_beta   90.91236652
_cell_angle_gamma   59.41924422
_symmetry_Int_Tables_number   1
_chemical_formula_structural   Gd2Al7N9
_chemical_formula_sum   'Gd8 Al28 N36'
_cell_volume   908.23294748
_cell_formula_units_Z   4
loop_
 _symmetry_equiv_pos_site_id
 _symmetry_equiv_pos_as_xyz
  1  'x, y, z'
loop_
 _atom_site_type_symbol
 _atom_site_label
 _atom_site_symmetry_multiplicity
 _atom_site_fract_x
 _atom_site_fract_y
 _atom_site_fract_z
 _atom_site_occupancy
  Al  Al0  1  0.11760117  0.08095472  0.42503503  1
  Al  Al1  1  0.23042043  0.20910205  0.14451713  1
  Al  Al2  1  0.87967342  0.20554501  0.58833774  1
  Al  Al3  1  0.55967070  0.21560598  0.14637902  1
  Al  Al4  1  0.12222385  0.09694856  0.90154102  1
  Al  Al5  1  0.20503345  0.19940892  0.65063836  1
  Al  Al6  1  0.80560198  0.08669284  0.31915488  1
  Al  Al7  1  0.90020619  0.21664549  0.07246200  1
  Al  Al8  1  0.43135849  0.09386265  0.82479210  1
  Al  Al9  1  0.52864936  0.21587975  0.65518991  1
  Al  Al10  1  0.22643517  0.54019563  0.14498297  1
  Al  Al11  1  0.79664019  0.42198368  0.83175519  1
  Al  Al12  1  0.87460561  0.53678718  0.59579839  1
  Al  Al13  1  0.44292220  0.43912149  0.39111212  1
  Al  Al14  1  0.57363848  0.53190677  0.05596611  1
  Al  Al15  1  0.10352113  0.43029297  0.82434168  1
  Al  Al16  1  0.21859248  0.53133908  0.64684534  1
  Al  Al17  1  0.90212506  0.53373432  0.06704374  1
  Al  Al18  1  0.42281744  0.43010467  0.90042529  1
  Al  Al19  1  0.13288047  0.76093291  0.40643032  1
  Al  Al20  1  0.77672220  0.75196964  0.83765958  1
  Al  Al21  1  0.42801313  0.77173507  0.43966245  1
  Al  Al22  1  0.56180905  0.88414801  0.06062779  1
  Al  Al23  1  0.11907514  0.74944699  0.89403377  1
  Al  Al24  1  0.21619407  0.87497250  0.66544822  1
  Al  Al25  1  0.89517397  0.85941623  0.06369881  1
  Al  Al26  1  0.44246844  0.76570911  0.88758099  1
  Al  Al27  1  0.55328830  0.86588758  0.60682836  1
  Gd  Gd28  1  0.76355126  0.10979623  0.86370874  1
  Gd  Gd29  1  0.45350044  0.11420757  0.40086189  1
  Gd  Gd30  1  0.12080609  0.43843299  0.38634411  1
  Gd  Gd31  1  0.76377488  0.42113436  0.33382307  1
  Gd  Gd32  1  0.53782975  0.52413267  0.63429386  1
  Gd  Gd33  1  0.23583846  0.86363511  0.15647087  1
  Gd  Gd34  1  0.87928157  0.87552533  0.59766810  1
  Gd  Gd35  1  0.76700408  0.76627584  0.31703829  1
  N  N36  1  0.20918915  0.18916610  0.36353569  1
  N  N37  1  0.12369541  0.11130753  0.08188800  1
  N  N38  1  0.90314034  0.22175016  0.89619538  1
  N  N39  1  0.74711247  0.13379718  0.64575966  1
  N  N40  1  0.58529022  0.24012409  0.31719990  1
  N  N41  1  0.45662461  0.09341843  0.13236199  1
  N  N42  1  0.21205391  0.20533045  0.83165870  1
  N  N43  1  0.10560571  0.08544342  0.60678074  1
  N  N44  1  0.89966219  0.17887494  0.40907495  1
  N  N45  1  0.80115928  0.08633257  0.11841222  1
  N  N46  1  0.50351815  0.23426302  0.83099004  1
  N  N47  1  0.43812310  0.08640468  0.63682680  1
  N  N48  1  0.24384566  0.56872385  0.31752160  1
  N  N49  1  0.11261747  0.43081337  0.13811344  1
  N  N50  1  0.89558151  0.53510511  0.88774348  1
  N  N51  1  0.80228382  0.40880386  0.65456783  1
  N  N52  1  0.53238489  0.55828108  0.42057903  1
  N  N53  1  0.44724047  0.42800395  0.07614690  1
  N  N54  1  0.22072964  0.54253282  0.82675405  1
  N  N55  1  0.09696913  0.42980514  0.63675722  1
  N  N56  1  0.87244708  0.54796389  0.42171324  1
  N  N57  1  0.78308520  0.43233505  0.11769393  1
  N  N58  1  0.56097839  0.52953100  0.87003215  1
  N  N59  1  0.40302297  0.39110876  0.55716023  1
  N  N60  1  0.22759315  0.87546793  0.36925905  1
  N  N61  1  0.11543580  0.73933795  0.07004795  1
  N  N62  1  0.89689357  0.84888150  0.87497910  1
  N  N63  1  0.76171478  0.74284945  0.66232207  1
  N  N64  1  0.55009364  0.86499288  0.42758582  1
  N  N65  1  0.47313768  0.75129876  0.06855402  1
  N  N66  1  0.21631137  0.87363972  0.84738795  1
  N  N67  1  0.14780104  0.73698475  0.58998023  1
  N  N68  1  0.90458023  0.87831018  0.38122139  1
  N  N69  1  0.78152287  0.76020867  0.10231480  1
  N  N70  1  0.55215396  0.88427554  0.88009811  1
  N  N71  1  0.42442599  0.78424140  0.62481759  1
