# generated using pymatgen
data_Gd2Al7N9
_symmetry_space_group_name_H-M   'P 1'
_cell_length_a   9.87183854
_cell_length_b   9.86822439
_cell_length_c   10.83733463
_cell_angle_alpha   91.20211710
_cell_angle_beta   91.24837429
_cell_angle_gamma   59.74538205
_symmetry_Int_Tables_number   1
_chemical_formula_structural   Gd2Al7N9
_chemical_formula_sum   'Gd8 Al28 N36'
_cell_volume   911.67060543
_cell_formula_units_Z   4
loop_
 _symmetry_equiv_pos_site_id
 _symmetry_equiv_pos_as_xyz
  1  'x, y, z'
loop_
 _atom_site_type_symbol
 _atom_site_label
 _atom_site_symmetry_multiplicity
 _atom_site_fract_x
 _atom_site_fract_y
 _atom_site_fract_z
 _atom_site_occupancy
  Al  Al0  1  0.11298412  0.07460589  0.42585063  1
  Al  Al1  1  0.23638044  0.21692298  0.05710332  1
  Al  Al2  1  0.87795273  0.20712275  0.58331834  1
  Al  Al3  1  0.56368024  0.21913616  0.13553151  1
  Al  Al4  1  0.11927688  0.09483025  0.89231929  1
  Al  Al5  1  0.21369308  0.20321818  0.59189063  1
  Al  Al6  1  0.80526096  0.08543424  0.31232272  1
  Al  Al7  1  0.89937684  0.21954057  0.06465704  1
  Al  Al8  1  0.43008731  0.09621680  0.81658708  1
  Al  Al9  1  0.52777772  0.21334134  0.64511025  1
  Al  Al10  1  0.23022188  0.54245274  0.13290844  1
  Al  Al11  1  0.79569704  0.42443695  0.82077652  1
  Al  Al12  1  0.88267640  0.53130527  0.58714372  1
  Al  Al13  1  0.43595543  0.43297929  0.39029249  1
  Al  Al14  1  0.57519112  0.53519773  0.04707711  1
  Al  Al15  1  0.10801641  0.42609197  0.82052116  1
  Al  Al16  1  0.21663934  0.52856005  0.63900811  1
  Al  Al17  1  0.89771218  0.53930953  0.05294369  1
  Al  Al18  1  0.42509957  0.43166264  0.89051911  1
  Al  Al19  1  0.13368718  0.75342350  0.39824078  1
  Al  Al20  1  0.77764308  0.75295268  0.82407655  1
  Al  Al21  1  0.42531611  0.77080573  0.43275705  1
  Al  Al22  1  0.56715619  0.88294833  0.04996462  1
  Al  Al23  1  0.12041110  0.74949070  0.88726912  1
  Al  Al24  1  0.21598446  0.87574069  0.65857259  1
  Al  Al25  1  0.89589197  0.86223317  0.05587213  1
  Al  Al26  1  0.44402243  0.76762838  0.88058871  1
  Al  Al27  1  0.55129596  0.87083336  0.59581084  1
  Gd  Gd28  1  0.76506136  0.10924744  0.85088434  1
  Gd  Gd29  1  0.44758296  0.09958573  0.34709989  1
  Gd  Gd30  1  0.10851945  0.41995443  0.32905296  1
  Gd  Gd31  1  0.75177227  0.42275897  0.32787357  1
  Gd  Gd32  1  0.53433395  0.52760357  0.62777274  1
  Gd  Gd33  1  0.23663327  0.86978114  0.14849479  1
  Gd  Gd34  1  0.88122923  0.87576950  0.58614099  1
  Gd  Gd35  1  0.77217484  0.75960076  0.31186172  1
  N  N36  1  0.21211415  0.19092575  0.41642188  1
  N  N37  1  0.11993496  0.11300173  0.07606692  1
  N  N38  1  0.90184954  0.22577209  0.88829710  1
  N  N39  1  0.74709532  0.13192971  0.63685213  1
  N  N40  1  0.58317768  0.23745774  0.30948579  1
  N  N41  1  0.45423807  0.09712915  0.11907276  1
  N  N42  1  0.22479946  0.21063507  0.87635048  1
  N  N43  1  0.10141407  0.08629657  0.60723719  1
  N  N44  1  0.89765381  0.18077146  0.40225253  1
  N  N45  1  0.79987845  0.09012221  0.11152240  1
  N  N46  1  0.50711292  0.23514312  0.82273637  1
  N  N47  1  0.43426377  0.08615678  0.63807733  1
  N  N48  1  0.23747875  0.55741067  0.31115498  1
  N  N49  1  0.11622058  0.43020405  0.11124561  1
  N  N50  1  0.89348554  0.53828825  0.87728881  1
  N  N51  1  0.79877208  0.41171249  0.64501254  1
  N  N52  1  0.52293166  0.55804839  0.41272166  1
  N  N53  1  0.44881510  0.43068010  0.06751705  1
  N  N54  1  0.22240095  0.54421282  0.82027987  1
  N  N55  1  0.09941708  0.42240670  0.64173153  1
  N  N56  1  0.87878268  0.53924361  0.41237309  1
  N  N57  1  0.78353917  0.43594554  0.11236379  1
  N  N58  1  0.56185128  0.53232353  0.86253034  1
  N  N59  1  0.40470134  0.39301762  0.55629632  1
  N  N60  1  0.22542771  0.87432608  0.36030025  1
  N  N61  1  0.11686501  0.74340209  0.06384026  1
  N  N62  1  0.89839328  0.84846352  0.86985190  1
  N  N63  1  0.76261339  0.74334472  0.64930925  1
  N  N64  1  0.55058860  0.86290591  0.41573735  1
  N  N65  1  0.47425663  0.75437130  0.06045211  1
  N  N66  1  0.21858836  0.87351573  0.83954201  1
  N  N67  1  0.14858629  0.73499222  0.58133634  1
  N  N68  1  0.90582138  0.87730439  0.37197889  1
  N  N69  1  0.78361540  0.76205007  0.09827974  1
  N  N70  1  0.55612651  0.88401294  0.87189707  1
  N  N71  1  0.42248911  0.78764417  0.61321812  1
