# generated using pymatgen
data_Gd2Al7N9
_symmetry_space_group_name_H-M   'P 1'
_cell_length_a   9.88594088
_cell_length_b   9.88461114
_cell_length_c   10.43921268
_cell_angle_alpha   90.21740803
_cell_angle_beta   90.38622178
_cell_angle_gamma   60.30774689
_symmetry_Int_Tables_number   1
_chemical_formula_structural   Gd2Al7N9
_chemical_formula_sum   'Gd8 Al28 N36'
_cell_volume   886.14437842
_cell_formula_units_Z   4
loop_
 _symmetry_equiv_pos_site_id
 _symmetry_equiv_pos_as_xyz
  1  'x, y, z'
loop_
 _atom_site_type_symbol
 _atom_site_label
 _atom_site_symmetry_multiplicity
 _atom_site_fract_x
 _atom_site_fract_y
 _atom_site_fract_z
 _atom_site_occupancy
  Al  Al0  1  0.10714432  0.09287380  0.31939295  1
  Al  Al1  1  0.22119409  0.21185760  0.04153477  1
  Al  Al2  1  0.89794551  0.19716060  0.56094576  1
  Al  Al3  1  0.54408605  0.21713768  0.05148137  1
  Al  Al4  1  0.11794990  0.09337488  0.80322424  1
  Al  Al5  1  0.21800517  0.20379996  0.57227312  1
  Al  Al6  1  0.78687670  0.09082248  0.30207825  1
  Al  Al7  1  0.89777742  0.21825983  0.05600357  1
  Al  Al8  1  0.43993855  0.09785403  0.80449214  1
  Al  Al9  1  0.55695113  0.20635691  0.56619024  1
  Al  Al10  1  0.22351353  0.53685196  0.04475359  1
  Al  Al11  1  0.79979519  0.41994520  0.81078359  1
  Al  Al12  1  0.89410089  0.52699543  0.57403193  1
  Al  Al13  1  0.43503969  0.43798023  0.37007028  1
  Al  Al14  1  0.56091736  0.54187266  0.04280410  1
  Al  Al15  1  0.11441973  0.42796769  0.80802865  1
  Al  Al16  1  0.22065545  0.53643849  0.57170559  1
  Al  Al17  1  0.89327667  0.53788916  0.03393975  1
  Al  Al18  1  0.43547147  0.43036464  0.82565948  1
  Al  Al19  1  0.11126532  0.75871091  0.30838128  1
  Al  Al20  1  0.77649617  0.75180425  0.81222349  1
  Al  Al21  1  0.43774062  0.75917141  0.31563807  1
  Al  Al22  1  0.55962088  0.87428815  0.04312806  1
  Al  Al23  1  0.12362477  0.75395740  0.80528135  1
  Al  Al24  1  0.22203497  0.87722036  0.55945757  1
  Al  Al25  1  0.89723328  0.85611449  0.04906341  1
  Al  Al26  1  0.43400400  0.77964844  0.80879331  1
  Al  Al27  1  0.54469059  0.87595656  0.57117726  1
  Gd  Gd28  1  0.77949770  0.09989125  0.82905192  1
  Gd  Gd29  1  0.44103304  0.09549974  0.31687411  1
  Gd  Gd30  1  0.10897628  0.42436975  0.30337269  1
  Gd  Gd31  1  0.76159526  0.41699579  0.30617753  1
  Gd  Gd32  1  0.55718890  0.54683592  0.59497235  1
  Gd  Gd33  1  0.22235793  0.87648125  0.07649390  1
  Gd  Gd34  1  0.88956006  0.86574010  0.56530976  1
  Gd  Gd35  1  0.76519776  0.75612439  0.29600824  1
  N  N36  1  0.20602290  0.19356364  0.39378750  1
  N  N37  1  0.09982027  0.13375136  0.13436247  1
  N  N38  1  0.91809891  0.21564325  0.87735552  1
  N  N39  1  0.76680841  0.11772219  0.61589842  1
  N  N40  1  0.57388056  0.22147664  0.37527916  1
  N  N41  1  0.44257629  0.09547091  0.09622038  1
  N  N42  1  0.22495572  0.20246960  0.85518715  1
  N  N43  1  0.10994342  0.08919008  0.62005471  1
  N  N44  1  0.90402368  0.17327305  0.37789252  1
  N  N45  1  0.78088280  0.09805241  0.10224429  1
  N  N46  1  0.52564556  0.21843454  0.86873498  1
  N  N47  1  0.44752211  0.09565108  0.61523041  1
  N  N48  1  0.22029629  0.55488065  0.38622377  1
  N  N49  1  0.11291548  0.42817665  0.08115439  1
  N  N50  1  0.89595872  0.53649239  0.85458816  1
  N  N51  1  0.81580871  0.39928985  0.62853145  1
  N  N52  1  0.52221589  0.55988429  0.37814310  1
  N  N53  1  0.44434788  0.43762769  0.07820537  1
  N  N54  1  0.21989671  0.54295743  0.85969564  1
  N  N55  1  0.11239625  0.42768305  0.62186024  1
  N  N56  1  0.88182122  0.53249402  0.39294970  1
  N  N57  1  0.77811452  0.43645062  0.08817527  1
  N  N58  1  0.55782527  0.54490856  0.84862985  1
  N  N59  1  0.43034018  0.41317860  0.61607327  1
  N  N60  1  0.21836979  0.87199666  0.35575526  1
  N  N61  1  0.10118384  0.73879696  0.12369903  1
  N  N62  1  0.90944331  0.84043963  0.85967377  1
  N  N63  1  0.75749194  0.74220940  0.62828596  1
  N  N64  1  0.53688078  0.85955694  0.39110895  1
  N  N65  1  0.48100677  0.74877142  0.12596739  1
  N  N66  1  0.21934143  0.87646076  0.86092537  1
  N  N67  1  0.14223935  0.74792381  0.62346953  1
  N  N68  1  0.89457380  0.87938556  0.34907965  1
  N  N69  1  0.77866974  0.75800061  0.07805131  1
  N  N70  1  0.55219258  0.87808793  0.86144277  1
  N  N71  1  0.41834236  0.80243355  0.63149725  1
