# generated using pymatgen
data_Gd2Al7N9
_symmetry_space_group_name_H-M   'P 1'
_cell_length_a   9.85687799
_cell_length_b   9.87594189
_cell_length_c   10.62447749
_cell_angle_alpha   90.98092520
_cell_angle_beta   90.58545564
_cell_angle_gamma   60.20749324
_symmetry_Int_Tables_number   1
_chemical_formula_structural   Gd2Al7N9
_chemical_formula_sum   'Gd8 Al28 N36'
_cell_volume   897.42026296
_cell_formula_units_Z   4
loop_
 _symmetry_equiv_pos_site_id
 _symmetry_equiv_pos_as_xyz
  1  'x, y, z'
loop_
 _atom_site_type_symbol
 _atom_site_label
 _atom_site_symmetry_multiplicity
 _atom_site_fract_x
 _atom_site_fract_y
 _atom_site_fract_z
 _atom_site_occupancy
  Al  Al0  1  0.11207490  0.08780743  0.31616933  1
  Al  Al1  1  0.22783344  0.21448077  0.04734801  1
  Al  Al2  1  0.89433684  0.19602654  0.56281474  1
  Al  Al3  1  0.55780430  0.22415323  0.11841786  1
  Al  Al4  1  0.11070972  0.10607517  0.81131311  1
  Al  Al5  1  0.21415093  0.20027889  0.57106299  1
  Al  Al6  1  0.80093227  0.08623117  0.29088244  1
  Al  Al7  1  0.90240762  0.22382273  0.05468723  1
  Al  Al8  1  0.43350371  0.09411983  0.80373269  1
  Al  Al9  1  0.54164730  0.20896934  0.63207804  1
  Al  Al10  1  0.21614724  0.53976900  0.04513283  1
  Al  Al11  1  0.79572558  0.42427866  0.80654592  1
  Al  Al12  1  0.88992574  0.52784923  0.57147778  1
  Al  Al13  1  0.43409210  0.43620452  0.37397098  1
  Al  Al14  1  0.56860725  0.54803486  0.04398572  1
  Al  Al15  1  0.11575789  0.42720010  0.80635401  1
  Al  Al16  1  0.21478496  0.53027845  0.55493170  1
  Al  Al17  1  0.89337987  0.54104528  0.03207815  1
  Al  Al18  1  0.43989812  0.42975431  0.87477816  1
  Al  Al19  1  0.10945588  0.75909633  0.29414209  1
  Al  Al20  1  0.77847575  0.75295872  0.80928172  1
  Al  Al21  1  0.43333216  0.76288924  0.31157197  1
  Al  Al22  1  0.56168049  0.88168286  0.04663110  1
  Al  Al23  1  0.11929686  0.74466505  0.80877985  1
  Al  Al24  1  0.22061664  0.87493722  0.63642840  1
  Al  Al25  1  0.89873175  0.85585674  0.04586368  1
  Al  Al26  1  0.44779263  0.77103005  0.81554503  1
  Al  Al27  1  0.54743213  0.86654467  0.56988519  1
  Gd  Gd28  1  0.77597927  0.10078575  0.84092319  1
  Gd  Gd29  1  0.45199213  0.10245984  0.34375914  1
  Gd  Gd30  1  0.10424742  0.41641217  0.29963167  1
  Gd  Gd31  1  0.75594012  0.41195441  0.30838743  1
  Gd  Gd32  1  0.54527488  0.53556545  0.59335186  1
  Gd  Gd33  1  0.22256024  0.88116681  0.07728218  1
  Gd  Gd34  1  0.89120720  0.86909892  0.55790125  1
  Gd  Gd35  1  0.76365688  0.75062421  0.29208004  1
  N  N36  1  0.20864147  0.18849211  0.39576121  1
  N  N37  1  0.10127661  0.14226281  0.13261945  1
  N  N38  1  0.91090390  0.22434797  0.87805879  1
  N  N39  1  0.76310524  0.11803891  0.62154771  1
  N  N40  1  0.58254277  0.24315220  0.29408881  1
  N  N41  1  0.44804616  0.10173199  0.10838745  1
  N  N42  1  0.22507358  0.20460909  0.86332396  1
  N  N43  1  0.10516634  0.09345561  0.63074373  1
  N  N44  1  0.90967064  0.16783065  0.38245461  1
  N  N45  1  0.79856651  0.09181079  0.09342686  1
  N  N46  1  0.51654750  0.22985059  0.81186285  1
  N  N47  1  0.44019265  0.08548017  0.61621855  1
  N  N48  1  0.20965548  0.55896181  0.37142257  1
  N  N49  1  0.11111919  0.43161733  0.08250796  1
  N  N50  1  0.89503427  0.53774127  0.85418822  1
  N  N51  1  0.80701929  0.40336755  0.62673773  1
  N  N52  1  0.51689814  0.56671709  0.37918905  1
  N  N53  1  0.45033557  0.43480001  0.05586111  1
  N  N54  1  0.22068785  0.53898092  0.86357872  1
  N  N55  1  0.11106118  0.42418733  0.62238755  1
  N  N56  1  0.87901173  0.53029083  0.39406320  1
  N  N57  1  0.78090446  0.44010704  0.09424911  1
  N  N58  1  0.56119867  0.54378402  0.85287295  1
  N  N59  1  0.42875442  0.39089010  0.54805909  1
  N  N60  1  0.21644791  0.87140809  0.30757537  1
  N  N61  1  0.10120882  0.74069538  0.11278192  1
  N  N62  1  0.90759189  0.84058520  0.86009723  1
  N  N63  1  0.76146585  0.74530060  0.62800421  1
  N  N64  1  0.53655878  0.85941716  0.39160598  1
  N  N65  1  0.48453820  0.75215765  0.12020354  1
  N  N66  1  0.21776055  0.87689140  0.84354150  1
  N  N67  1  0.14506928  0.73422946  0.62933175  1
  N  N68  1  0.89045322  0.87929865  0.34225923  1
  N  N69  1  0.78015516  0.76028832  0.07789553  1
  N  N70  1  0.55391221  0.88164336  0.86629674  1
  N  N71  1  0.43107468  0.78879185  0.64072078  1
