# generated using pymatgen
data_Gd2Al7N9
_symmetry_space_group_name_H-M   'P 1'
_cell_length_a   9.85813169
_cell_length_b   9.86536591
_cell_length_c   10.60007874
_cell_angle_alpha   91.07318634
_cell_angle_beta   90.64342748
_cell_angle_gamma   60.24033953
_symmetry_Int_Tables_number   1
_chemical_formula_structural   Gd2Al7N9
_chemical_formula_sum   'Gd8 Al28 N36'
_cell_volume   894.78144404
_cell_formula_units_Z   4
loop_
 _symmetry_equiv_pos_site_id
 _symmetry_equiv_pos_as_xyz
  1  'x, y, z'
loop_
 _atom_site_type_symbol
 _atom_site_label
 _atom_site_symmetry_multiplicity
 _atom_site_fract_x
 _atom_site_fract_y
 _atom_site_fract_z
 _atom_site_occupancy
  Al  Al0  1  0.11148792  0.08909253  0.31825759  1
  Al  Al1  1  0.22798323  0.21402312  0.04677495  1
  Al  Al2  1  0.89344671  0.19598455  0.56284265  1
  Al  Al3  1  0.55737967  0.22461177  0.11834409  1
  Al  Al4  1  0.11406482  0.09897258  0.81012187  1
  Al  Al5  1  0.21390662  0.20124411  0.57201748  1
  Al  Al6  1  0.80072995  0.08626577  0.29104755  1
  Al  Al7  1  0.90355625  0.22318620  0.05458534  1
  Al  Al8  1  0.43320225  0.09394031  0.80445247  1
  Al  Al9  1  0.54114294  0.20877526  0.63296266  1
  Al  Al10  1  0.21599745  0.54108580  0.04511697  1
  Al  Al11  1  0.79721318  0.42299505  0.80707384  1
  Al  Al12  1  0.88972885  0.52763726  0.57173424  1
  Al  Al13  1  0.43427993  0.43617062  0.37439789  1
  Al  Al14  1  0.56857971  0.54869422  0.04384081  1
  Al  Al15  1  0.11577530  0.42758802  0.80712927  1
  Al  Al16  1  0.21460862  0.52965883  0.55471528  1
  Al  Al17  1  0.89358637  0.54109928  0.03178401  1
  Al  Al18  1  0.43935267  0.43057113  0.87484907  1
  Al  Al19  1  0.10884585  0.75892756  0.29700086  1
  Al  Al20  1  0.77813504  0.75287834  0.81044700  1
  Al  Al21  1  0.43475377  0.76240779  0.31407750  1
  Al  Al22  1  0.56121019  0.88196385  0.04671445  1
  Al  Al23  1  0.12237162  0.74811397  0.80744516  1
  Al  Al24  1  0.22149021  0.87401997  0.60762699  1
  Al  Al25  1  0.89977681  0.85597315  0.04542894  1
  Al  Al26  1  0.44156681  0.77416639  0.81430493  1
  Al  Al27  1  0.54768177  0.86617960  0.57070221  1
  Gd  Gd28  1  0.77562693  0.10120619  0.84191810  1
  Gd  Gd29  1  0.45237112  0.10347308  0.34554661  1
  Gd  Gd30  1  0.10381288  0.41596508  0.29874243  1
  Gd  Gd31  1  0.75509115  0.41250768  0.30846474  1
  Gd  Gd32  1  0.54608253  0.53335578  0.59622043  1
  Gd  Gd33  1  0.22350164  0.88080092  0.07945557  1
  Gd  Gd34  1  0.88899655  0.86901799  0.55984380  1
  Gd  Gd35  1  0.76343163  0.75081739  0.29155852  1
  N  N36  1  0.20898195  0.18930546  0.39653145  1
  N  N37  1  0.10169883  0.14205193  0.13476876  1
  N  N38  1  0.91328885  0.22228760  0.87741715  1
  N  N39  1  0.76196446  0.11870833  0.62180295  1
  N  N40  1  0.58287312  0.24350138  0.29415036  1
  N  N41  1  0.44779641  0.10205688  0.10852678  1
  N  N42  1  0.22453429  0.20355930  0.86238812  1
  N  N43  1  0.10568691  0.09115607  0.62829042  1
  N  N44  1  0.90876761  0.16879491  0.38246904  1
  N  N45  1  0.79878294  0.09180366  0.09346025  1
  N  N46  1  0.51602020  0.22998277  0.81289356  1
  N  N47  1  0.44001023  0.08529045  0.61664151  1
  N  N48  1  0.21018266  0.55746130  0.37118112  1
  N  N49  1  0.11149326  0.43175361  0.08122528  1
  N  N50  1  0.89530943  0.53756571  0.85414184  1
  N  N51  1  0.80773144  0.40260659  0.62693475  1
  N  N52  1  0.51725624  0.56644709  0.38150356  1
  N  N53  1  0.45005379  0.43574071  0.05631695  1
  N  N54  1  0.22035584  0.54112098  0.86283057  1
  N  N55  1  0.11057724  0.42467898  0.62284575  1
  N  N56  1  0.87894113  0.53066228  0.39392696  1
  N  N57  1  0.78124025  0.44000510  0.09362134  1
  N  N58  1  0.56064672  0.54441341  0.85216681  1
  N  N59  1  0.42837862  0.39013556  0.54837826  1
  N  N60  1  0.21661021  0.87122944  0.31994187  1
  N  N61  1  0.10133899  0.74162792  0.11536536  1
  N  N62  1  0.90900433  0.84061486  0.85878598  1
  N  N63  1  0.76047263  0.74456473  0.62898408  1
  N  N64  1  0.53749955  0.86003081  0.39234134  1
  N  N65  1  0.48522271  0.75202734  0.12357182  1
  N  N66  1  0.21888197  0.87621723  0.85371058  1
  N  N67  1  0.14550407  0.73554080  0.62643382  1
  N  N68  1  0.88979345  0.87962801  0.34375024  1
  N  N69  1  0.78027186  0.76091426  0.07668854  1
  N  N70  1  0.55266710  0.88110034  0.86597287  1
  N  N71  1  0.42842201  0.78943905  0.63851897  1
