# generated using pymatgen
data_Gd2Al7N9
_symmetry_space_group_name_H-M   'P 1'
_cell_length_a   9.82558720
_cell_length_b   9.91628854
_cell_length_c   10.79521152
_cell_angle_alpha   90.89263799
_cell_angle_beta   90.67233270
_cell_angle_gamma   59.32540506
_symmetry_Int_Tables_number   1
_chemical_formula_structural   Gd2Al7N9
_chemical_formula_sum   'Gd8 Al28 N36'
_cell_volume   904.52386801
_cell_formula_units_Z   4
loop_
 _symmetry_equiv_pos_site_id
 _symmetry_equiv_pos_as_xyz
  1  'x, y, z'
loop_
 _atom_site_type_symbol
 _atom_site_label
 _atom_site_symmetry_multiplicity
 _atom_site_fract_x
 _atom_site_fract_y
 _atom_site_fract_z
 _atom_site_occupancy
  Al  Al0  1  0.12245064  0.08171983  0.41710487  1
  Al  Al1  1  0.21646116  0.21300706  0.15321557  1
  Al  Al2  1  0.88126072  0.20728773  0.58412546  1
  Al  Al3  1  0.55548964  0.21889288  0.13908199  1
  Al  Al4  1  0.11922103  0.09744619  0.90513110  1
  Al  Al5  1  0.21754718  0.19116421  0.66540560  1
  Al  Al6  1  0.80163194  0.09149131  0.31534313  1
  Al  Al7  1  0.89341686  0.21895994  0.07196058  1
  Al  Al8  1  0.42314671  0.11490777  0.90064529  1
  Al  Al9  1  0.51780755  0.21563239  0.65675712  1
  Al  Al10  1  0.21944378  0.54243427  0.14694342  1
  Al  Al11  1  0.79399391  0.42396262  0.83091489  1
  Al  Al12  1  0.87982756  0.53461612  0.60201087  1
  Al  Al13  1  0.44406463  0.43332657  0.39086350  1
  Al  Al14  1  0.57035206  0.53401286  0.05655541  1
  Al  Al15  1  0.10481827  0.43072966  0.83099818  1
  Al  Al16  1  0.21467436  0.53757996  0.65317040  1
  Al  Al17  1  0.90052268  0.53338084  0.06365806  1
  Al  Al18  1  0.42201547  0.43490605  0.90077097  1
  Al  Al19  1  0.13413726  0.75991950  0.40842335  1
  Al  Al20  1  0.77861151  0.75307207  0.83996424  1
  Al  Al21  1  0.44058284  0.76506447  0.43753130  1
  Al  Al22  1  0.56456839  0.87502300  0.05837626  1
  Al  Al23  1  0.11756447  0.75405727  0.89591262  1
  Al  Al24  1  0.21356952  0.87840998  0.66046056  1
  Al  Al25  1  0.89105658  0.86617882  0.06156880  1
  Al  Al26  1  0.43804182  0.76716911  0.88596689  1
  Al  Al27  1  0.54628587  0.87215890  0.64317724  1
  Gd  Gd28  1  0.76356338  0.11180146  0.85494434  1
  Gd  Gd29  1  0.46550243  0.08950645  0.39922805  1
  Gd  Gd30  1  0.14847853  0.41497009  0.41178622  1
  Gd  Gd31  1  0.77250099  0.42806171  0.33521547  1
  Gd  Gd32  1  0.53851907  0.52086016  0.63235761  1
  Gd  Gd33  1  0.23392173  0.86638672  0.16060592  1
  Gd  Gd34  1  0.86973222  0.88082113  0.59046919  1
  Gd  Gd35  1  0.80049547  0.74433381  0.31158101  1
  N  N36  1  0.21766499  0.17796890  0.33054847  1
  N  N37  1  0.11693917  0.11032782  0.08248598  1
  N  N38  1  0.89935883  0.22541927  0.89638984  1
  N  N39  1  0.74161267  0.13939595  0.64151310  1
  N  N40  1  0.57544413  0.23187976  0.31265260  1
  N  N41  1  0.44569651  0.10485834  0.08527423  1
  N  N42  1  0.21459102  0.20484750  0.84198110  1
  N  N43  1  0.11026039  0.09031348  0.60105973  1
  N  N44  1  0.89995902  0.18289907  0.40396613  1
  N  N45  1  0.79508165  0.09098248  0.11676345  1
  N  N46  1  0.49879036  0.23659257  0.83347811  1
  N  N47  1  0.43525873  0.08762516  0.61413198  1
  N  N48  1  0.23797757  0.56488984  0.32131231  1
  N  N49  1  0.10829183  0.43315470  0.13071201  1
  N  N50  1  0.89228917  0.53704649  0.88693709  1
  N  N51  1  0.80297674  0.40831271  0.65480459  1
  N  N52  1  0.53670028  0.54974356  0.41988865  1
  N  N53  1  0.44376786  0.43232577  0.07648453  1
  N  N54  1  0.21839773  0.54752151  0.83050583  1
  N  N55  1  0.10296990  0.42424782  0.64631724  1
  N  N56  1  0.89670723  0.53572463  0.43036758  1
  N  N57  1  0.77961631  0.43522779  0.11817512  1
  N  N58  1  0.55819029  0.53164662  0.86912008  1
  N  N59  1  0.39735244  0.39661828  0.56025705  1
  N  N60  1  0.23361995  0.87076813  0.37306506  1
  N  N61  1  0.11290059  0.74370983  0.07260708  1
  N  N62  1  0.89481792  0.85286422  0.87718397  1
  N  N63  1  0.76324690  0.74229713  0.66551676  1
  N  N64  1  0.57026205  0.84196707  0.39865594  1
  N  N65  1  0.46859593  0.75302943  0.06485748  1
  N  N66  1  0.21267208  0.87760189  0.84337614  1
  N  N67  1  0.14030823  0.74203129  0.59148451  1
  N  N68  1  0.90512484  0.88567175  0.37862962  1
  N  N69  1  0.78043703  0.76198432  0.09821583  1
  N  N70  1  0.54802627  0.88547884  0.87173612  1
  N  N71  1  0.42580269  0.78293063  0.62064420  1
