# generated using pymatgen
data_Gd2Al7N9
_symmetry_space_group_name_H-M   'P 1'
_cell_length_a   9.92651577
_cell_length_b   9.88663854
_cell_length_c   10.50741875
_cell_angle_alpha   89.51211644
_cell_angle_beta   90.38572831
_cell_angle_gamma   59.83925871
_symmetry_Int_Tables_number   1
_chemical_formula_structural   Gd2Al7N9
_chemical_formula_sum   'Gd8 Al28 N36'
_cell_volume   891.48795149
_cell_formula_units_Z   4
loop_
 _symmetry_equiv_pos_site_id
 _symmetry_equiv_pos_as_xyz
  1  'x, y, z'
loop_
 _atom_site_type_symbol
 _atom_site_label
 _atom_site_symmetry_multiplicity
 _atom_site_fract_x
 _atom_site_fract_y
 _atom_site_fract_z
 _atom_site_occupancy
  Al  Al0  1  0.11364367  0.08568543  0.40469043  1
  Al  Al1  1  0.21996700  0.20810871  0.14130791  1
  Al  Al2  1  0.89481867  0.22031329  0.65778965  1
  Al  Al3  1  0.55049010  0.21396467  0.14230827  1
  Al  Al4  1  0.11836253  0.09996544  0.89628630  1
  Al  Al5  1  0.21925626  0.20637306  0.66419501  1
  Al  Al6  1  0.79920214  0.07598591  0.31211304  1
  Al  Al7  1  0.90817906  0.20098708  0.13713432  1
  Al  Al8  1  0.43456222  0.09943131  0.90403456  1
  Al  Al9  1  0.53059069  0.21486166  0.66111310  1
  Al  Al10  1  0.22203259  0.53849025  0.14235148  1
  Al  Al11  1  0.79387744  0.42722551  0.89855855  1
  Al  Al12  1  0.88632133  0.53906689  0.66642636  1
  Al  Al13  1  0.43716321  0.43412140  0.39605942  1
  Al  Al14  1  0.56263818  0.53193727  0.06834338  1
  Al  Al15  1  0.11360588  0.42749613  0.89543165  1
  Al  Al16  1  0.21932852  0.53185499  0.65755177  1
  Al  Al17  1  0.89682572  0.53347615  0.13098383  1
  Al  Al18  1  0.42490042  0.43126612  0.90110462  1
  Al  Al19  1  0.12891560  0.75728878  0.41078263  1
  Al  Al20  1  0.77177697  0.75862761  0.89686891  1
  Al  Al21  1  0.43143777  0.77151912  0.41851033  1
  Al  Al22  1  0.55736046  0.86465999  0.13783313  1
  Al  Al23  1  0.11715298  0.75482717  0.89433745  1
  Al  Al24  1  0.22393234  0.87954167  0.65050462  1
  Al  Al25  1  0.89214763  0.85997530  0.07899580  1
  Al  Al26  1  0.44270983  0.76877714  0.89246255  1
  Al  Al27  1  0.54795428  0.87963522  0.66574464  1
  Gd  Gd28  1  0.76535575  0.12043550  0.88117999  1
  Gd  Gd29  1  0.45260117  0.09417494  0.39543315  1
  Gd  Gd30  1  0.11930537  0.42617049  0.40472750  1
  Gd  Gd31  1  0.77322229  0.40856725  0.37870587  1
  Gd  Gd32  1  0.54542112  0.53102699  0.63406570  1
  Gd  Gd33  1  0.23037159  0.86643498  0.15743303  1
  Gd  Gd34  1  0.88706504  0.88781688  0.62617958  1
  Gd  Gd35  1  0.77133761  0.75183980  0.39076180  1
  N  N36  1  0.21212927  0.18941652  0.32368323  1
  N  N37  1  0.11022207  0.11228780  0.07414241  1
  N  N38  1  0.91394681  0.22595586  0.83775809  1
  N  N39  1  0.74741657  0.14891465  0.65028204  1
  N  N40  1  0.57645098  0.22632262  0.32067003  1
  N  N41  1  0.44617390  0.09498209  0.09278481  1
  N  N42  1  0.22363258  0.20566872  0.84617402  1
  N  N43  1  0.10634014  0.10006557  0.59370864  1
  N  N44  1  0.92533702  0.16228082  0.31305316  1
  N  N45  1  0.78497969  0.08324478  0.11446017  1
  N  N46  1  0.50921607  0.22867272  0.84358375  1
  N  N47  1  0.43886740  0.09351709  0.61377107  1
  N  N48  1  0.23322651  0.55660085  0.32155654  1
  N  N49  1  0.11836183  0.42560282  0.08316478  1
  N  N50  1  0.88818915  0.54379520  0.85232194  1
  N  N51  1  0.80362714  0.42387212  0.59440369  1
  N  N52  1  0.52294386  0.55917086  0.40473184  1
  N  N53  1  0.44143607  0.42913339  0.08236807  1
  N  N54  1  0.21862925  0.54329737  0.84026999  1
  N  N55  1  0.10159208  0.43165023  0.62517249  1
  N  N56  1  0.89741963  0.52524201  0.30597502  1
  N  N57  1  0.78491972  0.41826441  0.08510426  1
  N  N58  1  0.55917669  0.53036875  0.87273410  1
  N  N59  1  0.40900409  0.40358764  0.57398459  1
  N  N60  1  0.22300810  0.87350990  0.37125815  1
  N  N61  1  0.10843048  0.74464177  0.07577936  1
  N  N62  1  0.89428290  0.85675765  0.87058044  1
  N  N63  1  0.75923539  0.75312061  0.61276889  1
  N  N64  1  0.52987937  0.85870244  0.31621633  1
  N  N65  1  0.46943150  0.74873452  0.07091028  1
  N  N66  1  0.22026352  0.87554793  0.84173453  1
  N  N67  1  0.15108872  0.73920399  0.59620434  1
  N  N68  1  0.90562365  0.87786141  0.38637321  1
  N  N69  1  0.77516322  0.75766246  0.08671478  1
  N  N70  1  0.55233033  0.87834802  0.84928305  1
  N  N71  1  0.43106544  0.79605845  0.60223847  1
