# generated using pymatgen
data_Gd2Al7N9
_symmetry_space_group_name_H-M   'P 1'
_cell_length_a   9.87975462
_cell_length_b   9.88133795
_cell_length_c   10.40975679
_cell_angle_alpha   90.34126445
_cell_angle_beta   90.31166634
_cell_angle_gamma   60.13347505
_symmetry_Int_Tables_number   1
_chemical_formula_structural   Gd2Al7N9
_chemical_formula_sum   'Gd8 Al28 N36'
_cell_volume   881.26435461
_cell_formula_units_Z   4
loop_
 _symmetry_equiv_pos_site_id
 _symmetry_equiv_pos_as_xyz
  1  'x, y, z'
loop_
 _atom_site_type_symbol
 _atom_site_label
 _atom_site_symmetry_multiplicity
 _atom_site_fract_x
 _atom_site_fract_y
 _atom_site_fract_z
 _atom_site_occupancy
  Al  Al0  1  0.10815476  0.09143899  0.30719886  1
  Al  Al1  1  0.21928037  0.21174175  0.02987642  1
  Al  Al2  1  0.89709739  0.19825158  0.54897577  1
  Al  Al3  1  0.54310817  0.21396271  0.04518788  1
  Al  Al4  1  0.11685454  0.09343277  0.79043963  1
  Al  Al5  1  0.21802229  0.20412908  0.56022118  1
  Al  Al6  1  0.78630521  0.09228304  0.29086525  1
  Al  Al7  1  0.89549296  0.21820632  0.04204032  1
  Al  Al8  1  0.43887153  0.09974835  0.79291315  1
  Al  Al9  1  0.55413876  0.21270778  0.54710358  1
  Al  Al10  1  0.22070528  0.53647516  0.03590840  1
  Al  Al11  1  0.79332340  0.42253068  0.79674204  1
  Al  Al12  1  0.89424370  0.52957543  0.56328962  1
  Al  Al13  1  0.43989045  0.43924862  0.29283483  1
  Al  Al14  1  0.55898901  0.54144041  0.03451587  1
  Al  Al15  1  0.11481150  0.42879979  0.79555855  1
  Al  Al16  1  0.22909822  0.53228843  0.55109556  1
  Al  Al17  1  0.89133086  0.53784401  0.02054236  1
  Al  Al18  1  0.43282022  0.42828881  0.79839386  1
  Al  Al19  1  0.11346125  0.75817637  0.29679877  1
  Al  Al20  1  0.77598442  0.75281114  0.79983466  1
  Al  Al21  1  0.44002003  0.75913482  0.29851258  1
  Al  Al22  1  0.55742516  0.87411164  0.02952210  1
  Al  Al23  1  0.12547305  0.75197277  0.79208060  1
  Al  Al24  1  0.22375906  0.87626011  0.54661330  1
  Al  Al25  1  0.89620277  0.85682523  0.03529589  1
  Al  Al26  1  0.43589804  0.77382644  0.79535293  1
  Al  Al27  1  0.54661018  0.87414625  0.55946420  1
  Gd  Gd28  1  0.77404346  0.10287457  0.81634535  1
  Gd  Gd29  1  0.44181973  0.09387904  0.30745642  1
  Gd  Gd30  1  0.11349300  0.42404165  0.29261154  1
  Gd  Gd31  1  0.77444607  0.41544296  0.29387554  1
  Gd  Gd32  1  0.55220497  0.54271017  0.56484557  1
  Gd  Gd33  1  0.21860288  0.87838840  0.06177171  1
  Gd  Gd34  1  0.89100878  0.86690819  0.55457304  1
  Gd  Gd35  1  0.76803942  0.75820538  0.28316091  1
  N  N36  1  0.20532908  0.19296651  0.38166141  1
  N  N37  1  0.09667265  0.13489536  0.12156335  1
  N  N38  1  0.91495264  0.21627733  0.86273829  1
  N  N39  1  0.76349035  0.12148403  0.60231010  1
  N  N40  1  0.57167725  0.22622029  0.35638953  1
  N  N41  1  0.44025831  0.09377206  0.08638139  1
  N  N42  1  0.22331783  0.20320843  0.84286793  1
  N  N43  1  0.11018494  0.08912850  0.60749548  1
  N  N44  1  0.90544204  0.17193124  0.36645903  1
  N  N45  1  0.78011123  0.09745392  0.08959600  1
  N  N46  1  0.51995802  0.22399014  0.86463355  1
  N  N47  1  0.44820867  0.09653969  0.60148549  1
  N  N48  1  0.23371010  0.54980661  0.36612535  1
  N  N49  1  0.11000922  0.42842468  0.06997805  1
  N  N50  1  0.89431120  0.53613915  0.84052754  1
  N  N51  1  0.81039968  0.40403141  0.61314955  1
  N  N52  1  0.52808387  0.55480658  0.34897057  1
  N  N53  1  0.44053757  0.43380759  0.10178554  1
  N  N54  1  0.22252770  0.54214844  0.85297750  1
  N  N55  1  0.11467034  0.42877297  0.60808375  1
  N  N56  1  0.88670318  0.53702424  0.38209835  1
  N  N57  1  0.77632112  0.43626899  0.07543536  1
  N  N58  1  0.55382841  0.54085686  0.84202354  1
  N  N59  1  0.43034808  0.41110810  0.61769102  1
  N  N60  1  0.22095977  0.87103155  0.34288223  1
  N  N61  1  0.09965023  0.73949340  0.11149923  1
  N  N62  1  0.90937855  0.84161740  0.84552120  1
  N  N63  1  0.75900828  0.74459235  0.61622457  1
  N  N64  1  0.53938952  0.85648872  0.37857426  1
  N  N65  1  0.47676471  0.75063161  0.10926410  1
  N  N66  1  0.21929502  0.87609899  0.84622552  1
  N  N67  1  0.14634738  0.74395848  0.60875983  1
  N  N68  1  0.89657742  0.88029270  0.33828384  1
  N  N69  1  0.77719253  0.75865136  0.06397842  1
  N  N70  1  0.55078052  0.87826634  0.84739947  1
  N  N71  1  0.42257168  0.79570513  0.61714146  1
