# generated using pymatgen
data_Gd2Al7N9
_symmetry_space_group_name_H-M   'P 1'
_cell_length_a   9.88713947
_cell_length_b   9.87792674
_cell_length_c   10.80716535
_cell_angle_alpha   91.09535020
_cell_angle_beta   91.18057615
_cell_angle_gamma   59.64361733
_symmetry_Int_Tables_number   1
_chemical_formula_structural   Gd2Al7N9
_chemical_formula_sum   'Gd8 Al28 N36'
_cell_volume   910.52891594
_cell_formula_units_Z   4
loop_
 _symmetry_equiv_pos_site_id
 _symmetry_equiv_pos_as_xyz
  1  'x, y, z'
loop_
 _atom_site_type_symbol
 _atom_site_label
 _atom_site_symmetry_multiplicity
 _atom_site_fract_x
 _atom_site_fract_y
 _atom_site_fract_z
 _atom_site_occupancy
  Al  Al0  1  0.11323386  0.07541367  0.43477309  1
  Al  Al1  1  0.23622929  0.21579511  0.06891844  1
  Al  Al2  1  0.87803777  0.20687687  0.59259131  1
  Al  Al3  1  0.56298545  0.21833142  0.14516348  1
  Al  Al4  1  0.11956666  0.09439970  0.90158918  1
  Al  Al5  1  0.21235416  0.20333557  0.60212783  1
  Al  Al6  1  0.80570296  0.08636878  0.32117387  1
  Al  Al7  1  0.89946576  0.21837973  0.07372010  1
  Al  Al8  1  0.42963850  0.09641523  0.82595764  1
  Al  Al9  1  0.52774497  0.21354948  0.65430860  1
  Al  Al10  1  0.22974537  0.54218368  0.14181137  1
  Al  Al11  1  0.79591157  0.42394227  0.83007836  1
  Al  Al12  1  0.88201458  0.53207419  0.59639656  1
  Al  Al13  1  0.43726572  0.43515097  0.39750175  1
  Al  Al14  1  0.57478180  0.53416226  0.05632982  1
  Al  Al15  1  0.10787340  0.42598093  0.82988378  1
  Al  Al16  1  0.21692940  0.52813545  0.64761167  1
  Al  Al17  1  0.89771634  0.53798108  0.06329482  1
  Al  Al18  1  0.42457619  0.43146803  0.89956794  1
  Al  Al19  1  0.13349690  0.75523782  0.40768923  1
  Al  Al20  1  0.77740999  0.75251168  0.83439250  1
  Al  Al21  1  0.42570422  0.77183956  0.44216439  1
  Al  Al22  1  0.56593794  0.88291097  0.06025877  1
  Al  Al23  1  0.12010142  0.74930510  0.89575567  1
  Al  Al24  1  0.21617655  0.87529432  0.66806561  1
  Al  Al25  1  0.89560997  0.86127948  0.06456017  1
  Al  Al26  1  0.44407420  0.76704236  0.88938976  1
  Al  Al27  1  0.55153180  0.87007203  0.60647711  1
  Gd  Gd28  1  0.76419482  0.10964087  0.86138971  1
  Gd  Gd29  1  0.44913813  0.10347468  0.36503419  1
  Gd  Gd30  1  0.11041181  0.42300895  0.34210456  1
  Gd  Gd31  1  0.75381813  0.42339912  0.33712281  1
  Gd  Gd32  1  0.53465177  0.52658282  0.63655083  1
  Gd  Gd33  1  0.23657844  0.86815981  0.15761371  1
  Gd  Gd34  1  0.88152365  0.87545496  0.59707945  1
  Gd  Gd35  1  0.77093862  0.76238657  0.32095795  1
  N  N36  1  0.21103715  0.19217390  0.42624718  1
  N  N37  1  0.11982093  0.11182326  0.08551067  1
  N  N38  1  0.90221173  0.22471295  0.89678396  1
  N  N39  1  0.74666114  0.13239915  0.64597658  1
  N  N40  1  0.58471060  0.23941802  0.31823719  1
  N  N41  1  0.45422746  0.09643856  0.13130336  1
  N  N42  1  0.22471646  0.21058345  0.88631709  1
  N  N43  1  0.10133877  0.08613759  0.61712538  1
  N  N44  1  0.89831005  0.18099739  0.41119815  1
  N  N45  1  0.79961579  0.08901857  0.11959184  1
  N  N46  1  0.50641015  0.23512162  0.83167678  1
  N  N47  1  0.43413474  0.08647165  0.64642786  1
  N  N48  1  0.23865111  0.56036479  0.31951025  1
  N  N49  1  0.11576738  0.42945947  0.12327500  1
  N  N50  1  0.89376975  0.53737511  0.88703852  1
  N  N51  1  0.79882171  0.41179240  0.65370875  1
  N  N52  1  0.52442501  0.55915304  0.42159513  1
  N  N53  1  0.44813508  0.43002560  0.07647042  1
  N  N54  1  0.22218790  0.54380029  0.82906585  1
  N  N55  1  0.09905442  0.42289431  0.65049199  1
  N  N56  1  0.87850425  0.54177534  0.42129544  1
  N  N57  1  0.78316463  0.43461183  0.12102803  1
  N  N58  1  0.56184835  0.53147490  0.87139873  1
  N  N59  1  0.40438206  0.39214462  0.56319000  1
  N  N60  1  0.22579969  0.87517801  0.36999128  1
  N  N61  1  0.11607597  0.74271085  0.07230746  1
  N  N62  1  0.89805657  0.84843690  0.87762384  1
  N  N63  1  0.76254509  0.74316735  0.65930445  1
  N  N64  1  0.55032747  0.86399643  0.42615700  1
  N  N65  1  0.47426901  0.75334210  0.06977858  1
  N  N66  1  0.21859786  0.87294642  0.84912173  1
  N  N67  1  0.14902852  0.73488022  0.59075079  1
  N  N68  1  0.90567652  0.87838498  0.38172351  1
  N  N69  1  0.78322785  0.76132608  0.10683637  1
  N  N70  1  0.55537786  0.88420282  0.88134493  1
  N  N71  1  0.42301176  0.78689356  0.62372236  1
