# generated using pymatgen
data_Gd2Al7N9
_symmetry_space_group_name_H-M   'P 1'
_cell_length_a   9.89789473
_cell_length_b   9.91148537
_cell_length_c   10.76506847
_cell_angle_alpha   90.82554530
_cell_angle_beta   90.92933222
_cell_angle_gamma   59.41464760
_symmetry_Int_Tables_number   1
_chemical_formula_structural   Gd2Al7N9
_chemical_formula_sum   'Gd8 Al28 N36'
_cell_volume   909.01026215
_cell_formula_units_Z   4
loop_
 _symmetry_equiv_pos_site_id
 _symmetry_equiv_pos_as_xyz
  1  'x, y, z'
loop_
 _atom_site_type_symbol
 _atom_site_label
 _atom_site_symmetry_multiplicity
 _atom_site_fract_x
 _atom_site_fract_y
 _atom_site_fract_z
 _atom_site_occupancy
  Al  Al0  1  0.11682398  0.07978276  0.42758364  1
  Al  Al1  1  0.23223610  0.21044834  0.13421776  1
  Al  Al2  1  0.87920634  0.20561284  0.58895992  1
  Al  Al3  1  0.56001582  0.21601404  0.14637424  1
  Al  Al4  1  0.12177365  0.09677145  0.89988432  1
  Al  Al5  1  0.20542054  0.19954949  0.64685922  1
  Al  Al6  1  0.80553627  0.08670648  0.31941788  1
  Al  Al7  1  0.90018993  0.21683173  0.07221620  1
  Al  Al8  1  0.43122341  0.09370067  0.82385491  1
  Al  Al9  1  0.52878312  0.21593475  0.65540887  1
  Al  Al10  1  0.22695969  0.54045884  0.14507471  1
  Al  Al11  1  0.79657402  0.42206849  0.83159289  1
  Al  Al12  1  0.87470543  0.53674226  0.59559372  1
  Al  Al13  1  0.44281619  0.43908646  0.39125103  1
  Al  Al14  1  0.57369017  0.53195702  0.05593538  1
  Al  Al15  1  0.10345378  0.43001458  0.82333334  1
  Al  Al16  1  0.21857322  0.53128540  0.64665836  1
  Al  Al17  1  0.90157558  0.53402319  0.06677153  1
  Al  Al18  1  0.42278938  0.43009678  0.90027773  1
  Al  Al19  1  0.13298981  0.76075661  0.40633488  1
  Al  Al20  1  0.77680261  0.75186307  0.83740925  1
  Al  Al21  1  0.42775325  0.77200693  0.43964665  1
  Al  Al22  1  0.56218579  0.88364404  0.06025426  1
  Al  Al23  1  0.11911500  0.74912914  0.89407795  1
  Al  Al24  1  0.21613221  0.87455247  0.66592126  1
  Al  Al25  1  0.89522700  0.85938274  0.06366991  1
  Al  Al26  1  0.44251225  0.76563596  0.88754595  1
  Al  Al27  1  0.55351336  0.86563015  0.60673592  1
  Gd  Gd28  1  0.76341673  0.10970623  0.86369033  1
  Gd  Gd29  1  0.45391804  0.11406359  0.40194605  1
  Gd  Gd30  1  0.12010406  0.43848754  0.38525636  1
  Gd  Gd31  1  0.76335828  0.42106257  0.33413971  1
  Gd  Gd32  1  0.53762492  0.52441852  0.63425950  1
  Gd  Gd33  1  0.23570859  0.86399404  0.15627674  1
  Gd  Gd34  1  0.87954244  0.87548650  0.59778257  1
  Gd  Gd35  1  0.76689067  0.76634761  0.31735875  1
  N  N36  1  0.20946828  0.18988144  0.37844324  1
  N  N37  1  0.12390207  0.11162412  0.08116014  1
  N  N38  1  0.90286602  0.22185491  0.89608540  1
  N  N39  1  0.74694559  0.13371330  0.64596089  1
  N  N40  1  0.58538016  0.24040130  0.31696343  1
  N  N41  1  0.45650273  0.09388928  0.13114257  1
  N  N42  1  0.21211182  0.20524174  0.83109832  1
  N  N43  1  0.10424764  0.08466981  0.60881473  1
  N  N44  1  0.89929413  0.17884361  0.40943475  1
  N  N45  1  0.80136036  0.08633717  0.11834207  1
  N  N46  1  0.50352917  0.23413488  0.83123177  1
  N  N47  1  0.43920879  0.08583563  0.63709718  1
  N  N48  1  0.24413566  0.56865299  0.31741358  1
  N  N49  1  0.11308951  0.43050176  0.13754799  1
  N  N50  1  0.89566664  0.53501438  0.88770381  1
  N  N51  1  0.80202416  0.40909227  0.65449755  1
  N  N52  1  0.53201646  0.55850032  0.42064375  1
  N  N53  1  0.44722232  0.42811861  0.07609018  1
  N  N54  1  0.22079870  0.54242486  0.82674581  1
  N  N55  1  0.09650737  0.43059759  0.63696210  1
  N  N56  1  0.87200702  0.54806012  0.42147038  1
  N  N57  1  0.78318972  0.43235743  0.11775930  1
  N  N58  1  0.56102102  0.52956092  0.87013298  1
  N  N59  1  0.40331971  0.39105673  0.55740675  1
  N  N60  1  0.22732601  0.87566088  0.36896386  1
  N  N61  1  0.11539741  0.73933513  0.07018015  1
  N  N62  1  0.89692289  0.84875626  0.87507674  1
  N  N63  1  0.76184947  0.74279855  0.66215072  1
  N  N64  1  0.55020666  0.86460983  0.42744869  1
  N  N65  1  0.47317020  0.75135042  0.06869283  1
  N  N66  1  0.21649276  0.87309774  0.84775709  1
  N  N67  1  0.14802707  0.73678133  0.58988382  1
  N  N68  1  0.90465440  0.87826243  0.38130115  1
  N  N69  1  0.78157492  0.76021921  0.10244675  1
  N  N70  1  0.55220811  0.88414192  0.88002217  1
  N  N71  1  0.42418636  0.78454698  0.62488810  1
