# generated using pymatgen
data_Gd2Al7N9
_symmetry_space_group_name_H-M   'P 1'
_cell_length_a   9.91985026
_cell_length_b   9.88903835
_cell_length_c   10.49251129
_cell_angle_alpha   89.50525474
_cell_angle_beta   90.49180261
_cell_angle_gamma   59.86566337
_symmetry_Int_Tables_number   1
_chemical_formula_structural   Gd2Al7N9
_chemical_formula_sum   'Gd8 Al28 N36'
_cell_volume   890.05147202
_cell_formula_units_Z   4
loop_
 _symmetry_equiv_pos_site_id
 _symmetry_equiv_pos_as_xyz
  1  'x, y, z'
loop_
 _atom_site_type_symbol
 _atom_site_label
 _atom_site_symmetry_multiplicity
 _atom_site_fract_x
 _atom_site_fract_y
 _atom_site_fract_z
 _atom_site_occupancy
  Al  Al0  1  0.11407479  0.08608776  0.40495656  1
  Al  Al1  1  0.22023304  0.20814758  0.14121428  1
  Al  Al2  1  0.89406105  0.21951711  0.65814551  1
  Al  Al3  1  0.54952075  0.21515158  0.14192518  1
  Al  Al4  1  0.11812164  0.09973835  0.89616914  1
  Al  Al5  1  0.21899781  0.20649127  0.66429208  1
  Al  Al6  1  0.79531531  0.08311235  0.31137699  1
  Al  Al7  1  0.90806117  0.20212323  0.13772145  1
  Al  Al8  1  0.43519807  0.09921456  0.90378748  1
  Al  Al9  1  0.53136656  0.21466804  0.66143464  1
  Al  Al10  1  0.22259273  0.53796818  0.14128775  1
  Al  Al11  1  0.79360759  0.42679635  0.89823132  1
  Al  Al12  1  0.88573315  0.53973289  0.66719606  1
  Al  Al13  1  0.43695843  0.43444860  0.39668590  1
  Al  Al14  1  0.56291824  0.53212557  0.06804762  1
  Al  Al15  1  0.11360476  0.42770669  0.89517415  1
  Al  Al16  1  0.21811324  0.53307035  0.65734195  1
  Al  Al17  1  0.89692736  0.53318394  0.13049200  1
  Al  Al18  1  0.42595669  0.43086511  0.90050881  1
  Al  Al19  1  0.13011977  0.75591702  0.40568617  1
  Al  Al20  1  0.77647901  0.76095218  0.89966727  1
  Al  Al21  1  0.43104767  0.77176797  0.41892406  1
  Al  Al22  1  0.55764061  0.86493207  0.13748520  1
  Al  Al23  1  0.11175830  0.75641481  0.89549003  1
  Al  Al24  1  0.22240656  0.87983348  0.65026719  1
  Al  Al25  1  0.89601557  0.85682173  0.12448519  1
  Al  Al26  1  0.44324779  0.76888406  0.89190514  1
  Al  Al27  1  0.54784257  0.87958931  0.66625505  1
  Gd  Gd28  1  0.76979149  0.11210451  0.88496843  1
  Gd  Gd29  1  0.45270197  0.09378755  0.39570473  1
  Gd  Gd30  1  0.11973172  0.42612063  0.40485700  1
  Gd  Gd31  1  0.77278273  0.41005644  0.38013960  1
  Gd  Gd32  1  0.54542425  0.53111317  0.63490259  1
  Gd  Gd33  1  0.23135133  0.86613183  0.15597103  1
  Gd  Gd34  1  0.88597907  0.88564559  0.63103088  1
  Gd  Gd35  1  0.77095087  0.75135762  0.39012866  1
  N  N36  1  0.21239608  0.18965171  0.32389899  1
  N  N37  1  0.11003888  0.11248975  0.07458558  1
  N  N38  1  0.91269946  0.22461045  0.83853567  1
  N  N39  1  0.74782550  0.14747216  0.64714385  1
  N  N40  1  0.57486364  0.22773438  0.32135588  1
  N  N41  1  0.44614680  0.09526395  0.09311873  1
  N  N42  1  0.22360490  0.20567617  0.84641148  1
  N  N43  1  0.10607114  0.10031299  0.59383597  1
  N  N44  1  0.92472209  0.16454316  0.31484964  1
  N  N45  1  0.78347333  0.08645458  0.11585569  1
  N  N46  1  0.51186393  0.22736685  0.84428646  1
  N  N47  1  0.43858798  0.09373422  0.61402407  1
  N  N48  1  0.23434466  0.55517585  0.32055182  1
  N  N49  1  0.11859827  0.42530571  0.08328108  1
  N  N50  1  0.88790693  0.54439141  0.85366007  1
  N  N51  1  0.80340705  0.42377261  0.59588030  1
  N  N52  1  0.52237688  0.55974320  0.40505285  1
  N  N53  1  0.44126811  0.42980240  0.08214984  1
  N  N54  1  0.21895649  0.54368047  0.84055709  1
  N  N55  1  0.10097787  0.43201544  0.62537533  1
  N  N56  1  0.89716182  0.52551875  0.30608908  1
  N  N57  1  0.78503955  0.41869394  0.08531904  1
  N  N58  1  0.55904653  0.53101150  0.87266115  1
  N  N59  1  0.40830267  0.40423470  0.57470305  1
  N  N60  1  0.22281278  0.87438025  0.37017515  1
  N  N61  1  0.10477587  0.74605801  0.07672756  1
  N  N62  1  0.89654618  0.85405629  0.85182813  1
  N  N63  1  0.75774962  0.75272709  0.61013233  1
  N  N64  1  0.53004452  0.85814378  0.31622014  1
  N  N65  1  0.47025002  0.74867453  0.07073218  1
  N  N66  1  0.21966506  0.87524960  0.84211726  1
  N  N67  1  0.14742892  0.74067115  0.59112222  1
  N  N68  1  0.91019892  0.86997130  0.35007697  1
  N  N69  1  0.77691135  0.75937204  0.08893442  1
  N  N70  1  0.55419345  0.87818216  0.85012868  1
  N  N71  1  0.42998370  0.79627208  0.60299607  1
