# generated using pymatgen
data_Gd2Al7N9
_symmetry_space_group_name_H-M   'P 1'
_cell_length_a   9.82338647
_cell_length_b   9.91267691
_cell_length_c   10.79811903
_cell_angle_alpha   90.90699225
_cell_angle_beta   90.69192979
_cell_angle_gamma   59.32380760
_symmetry_Int_Tables_number   1
_chemical_formula_structural   Gd2Al7N9
_chemical_formula_sum   'Gd8 Al28 N36'
_cell_volume   904.21585353
_cell_formula_units_Z   4
loop_
 _symmetry_equiv_pos_site_id
 _symmetry_equiv_pos_as_xyz
  1  'x, y, z'
loop_
 _atom_site_type_symbol
 _atom_site_label
 _atom_site_symmetry_multiplicity
 _atom_site_fract_x
 _atom_site_fract_y
 _atom_site_fract_z
 _atom_site_occupancy
  Al  Al0  1  0.12218353  0.08199218  0.41705920  1
  Al  Al1  1  0.21633251  0.21294893  0.15353914  1
  Al  Al2  1  0.88101317  0.20741623  0.58386155  1
  Al  Al3  1  0.55558930  0.21876017  0.13912373  1
  Al  Al4  1  0.11919376  0.09729228  0.90522365  1
  Al  Al5  1  0.21733908  0.19128552  0.66521700  1
  Al  Al6  1  0.80127990  0.09185556  0.31562006  1
  Al  Al7  1  0.89340309  0.21886577  0.07214496  1
  Al  Al8  1  0.42233789  0.11609342  0.90087290  1
  Al  Al9  1  0.51768241  0.21562260  0.65661401  1
  Al  Al10  1  0.21951481  0.54256171  0.14709885  1
  Al  Al11  1  0.79406280  0.42370851  0.83068861  1
  Al  Al12  1  0.87933500  0.53506419  0.60213081  1
  Al  Al13  1  0.44396487  0.43320731  0.39105717  1
  Al  Al14  1  0.57058642  0.53387354  0.05643881  1
  Al  Al15  1  0.10509440  0.43045691  0.83080439  1
  Al  Al16  1  0.21457318  0.53771941  0.65327299  1
  Al  Al17  1  0.90084232  0.53280117  0.06332437  1
  Al  Al18  1  0.42206973  0.43487442  0.90078144  1
  Al  Al19  1  0.13411128  0.76010014  0.40867558  1
  Al  Al20  1  0.78111946  0.75159270  0.84094552  1
  Al  Al21  1  0.44187910  0.76600943  0.43752306  1
  Al  Al22  1  0.56424522  0.87519126  0.05917718  1
  Al  Al23  1  0.11784519  0.75409603  0.89599485  1
  Al  Al24  1  0.21360913  0.87843836  0.65985625  1
  Al  Al25  1  0.89132321  0.86671862  0.06132525  1
  Al  Al26  1  0.43714535  0.76637007  0.88619750  1
  Al  Al27  1  0.54372421  0.87433950  0.65882190  1
  Gd  Gd28  1  0.76370374  0.11191270  0.85447661  1
  Gd  Gd29  1  0.46673180  0.08695008  0.39986741  1
  Gd  Gd30  1  0.14894830  0.41461229  0.41224398  1
  Gd  Gd31  1  0.77170584  0.42946017  0.33545545  1
  Gd  Gd32  1  0.53821501  0.52148702  0.63206223  1
  Gd  Gd33  1  0.23484591  0.86625457  0.16149288  1
  Gd  Gd34  1  0.86889935  0.88049039  0.59007098  1
  Gd  Gd35  1  0.80288532  0.74296907  0.30957742  1
  N  N36  1  0.21794941  0.17790868  0.33059247  1
  N  N37  1  0.11707818  0.11003684  0.08257288  1
  N  N38  1  0.89937248  0.22540688  0.89660281  1
  N  N39  1  0.74156534  0.13920006  0.64132134  1
  N  N40  1  0.57479182  0.23160301  0.31270662  1
  N  N41  1  0.44589142  0.10450033  0.08414613  1
  N  N42  1  0.21440877  0.20475290  0.84189819  1
  N  N43  1  0.10995142  0.09059101  0.60099523  1
  N  N44  1  0.89954729  0.18369412  0.40377878  1
  N  N45  1  0.79488942  0.09118738  0.11678367  1
  N  N46  1  0.49883318  0.23657621  0.83344458  1
  N  N47  1  0.43598898  0.08633875  0.61492671  1
  N  N48  1  0.23780165  0.56500893  0.32138963  1
  N  N49  1  0.10834119  0.43318105  0.13070503  1
  N  N50  1  0.89293390  0.53612799  0.88695824  1
  N  N51  1  0.80280536  0.40833526  0.65484907  1
  N  N52  1  0.53617330  0.55007981  0.42046429  1
  N  N53  1  0.44381604  0.43235280  0.07651128  1
  N  N54  1  0.21837429  0.54751860  0.83063959  1
  N  N55  1  0.10291833  0.42426401  0.64646700  1
  N  N56  1  0.89682544  0.53604785  0.43078597  1
  N  N57  1  0.77966074  0.43533831  0.11819704  1
  N  N58  1  0.55818593  0.53137115  0.86908423  1
  N  N59  1  0.39714519  0.39670534  0.56047116  1
  N  N60  1  0.23362648  0.87086392  0.37379534  1
  N  N61  1  0.11322018  0.74402354  0.07278858  1
  N  N62  1  0.89523559  0.85312226  0.87726987  1
  N  N63  1  0.76289734  0.74233354  0.66646957  1
  N  N64  1  0.56935317  0.84052019  0.38692022  1
  N  N65  1  0.46864498  0.75326674  0.06369119  1
  N  N66  1  0.21257769  0.87756413  0.84303110  1
  N  N67  1  0.14004049  0.74213717  0.59159713  1
  N  N68  1  0.90486939  0.88619414  0.37870500  1
  N  N69  1  0.78057104  0.76202348  0.09589031  1
  N  N70  1  0.54688930  0.88549898  0.86759625  1
  N  N71  1  0.42647722  0.78408987  0.62064084  1
