# generated using pymatgen
data_Gd2Al7N9
_symmetry_space_group_name_H-M   'P 1'
_cell_length_a   9.86287354
_cell_length_b   9.86911838
_cell_length_c   10.58403992
_cell_angle_alpha   91.11462472
_cell_angle_beta   90.99529460
_cell_angle_gamma   60.17165613
_symmetry_Int_Tables_number   1
_chemical_formula_structural   Gd2Al7N9
_chemical_formula_sum   'Gd8 Al28 N36'
_cell_volume   893.53848333
_cell_formula_units_Z   4
loop_
 _symmetry_equiv_pos_site_id
 _symmetry_equiv_pos_as_xyz
  1  'x, y, z'
loop_
 _atom_site_type_symbol
 _atom_site_label
 _atom_site_symmetry_multiplicity
 _atom_site_fract_x
 _atom_site_fract_y
 _atom_site_fract_z
 _atom_site_occupancy
  Al  Al0  1  0.11388416  0.08842024  0.31834431  1
  Al  Al1  1  0.23034931  0.21834391  0.04833359  1
  Al  Al2  1  0.89104335  0.19668122  0.56258844  1
  Al  Al3  1  0.56089277  0.22175331  0.11941396  1
  Al  Al4  1  0.10867704  0.10443779  0.80998166  1
  Al  Al5  1  0.21124767  0.19684681  0.57264603  1
  Al  Al6  1  0.80823306  0.08098616  0.29467015  1
  Al  Al7  1  0.90378220  0.22706858  0.05574648  1
  Al  Al8  1  0.43210401  0.09252926  0.80453015  1
  Al  Al9  1  0.53382351  0.21044137  0.62986054  1
  Al  Al10  1  0.22847928  0.54501353  0.11372153  1
  Al  Al11  1  0.79226666  0.42677027  0.80677109  1
  Al  Al12  1  0.88638141  0.52532266  0.57135495  1
  Al  Al13  1  0.43184126  0.43589122  0.36628852  1
  Al  Al14  1  0.56942686  0.54812943  0.04275019  1
  Al  Al15  1  0.11072563  0.42459718  0.81017819  1
  Al  Al16  1  0.22085100  0.52355461  0.61818902  1
  Al  Al17  1  0.89608218  0.54384616  0.03410538  1
  Al  Al18  1  0.42816658  0.43461527  0.87528513  1
  Al  Al19  1  0.13259540  0.75668162  0.36920855  1
  Al  Al20  1  0.77218544  0.75366602  0.80799501  1
  Al  Al21  1  0.43885427  0.76151028  0.31016828  1
  Al  Al22  1  0.56293950  0.88181602  0.04939022  1
  Al  Al23  1  0.11616583  0.74625191  0.86688679  1
  Al  Al24  1  0.21669773  0.86865974  0.63596333  1
  Al  Al25  1  0.89360441  0.86351071  0.04072426  1
  Al  Al26  1  0.44587990  0.76892115  0.81498097  1
  Al  Al27  1  0.54466273  0.86184221  0.56946474  1
  Gd  Gd28  1  0.76817439  0.11085680  0.83999821  1
  Gd  Gd29  1  0.45614772  0.10465335  0.35247675  1
  Gd  Gd30  1  0.10505645  0.40926907  0.30000790  1
  Gd  Gd31  1  0.75395344  0.41310999  0.30998811  1
  Gd  Gd32  1  0.53761725  0.53141448  0.59308127  1
  Gd  Gd33  1  0.22407759  0.88786569  0.08360811  1
  Gd  Gd34  1  0.88449858  0.86998145  0.57405735  1
  Gd  Gd35  1  0.77187179  0.75291890  0.29670924  1
  N  N36  1  0.21344579  0.18396150  0.39791995  1
  N  N37  1  0.10085593  0.15093945  0.13698206  1
  N  N38  1  0.91090927  0.22642283  0.87863261  1
  N  N39  1  0.75311766  0.12646746  0.61922618  1
  N  N40  1  0.59042057  0.24056896  0.29419958  1
  N  N41  1  0.44991675  0.10184584  0.11031008  1
  N  N42  1  0.22433620  0.20194712  0.86509063  1
  N  N43  1  0.10194181  0.09000611  0.63019589  1
  N  N44  1  0.91263300  0.16883710  0.38265858  1
  N  N45  1  0.80146563  0.09041022  0.09267735  1
  N  N46  1  0.50946966  0.23330916  0.81083554  1
  N  N47  1  0.43880453  0.08108385  0.61738522  1
  N  N48  1  0.23089838  0.55110800  0.29455392  1
  N  N49  1  0.11583807  0.43686774  0.07867663  1
  N  N50  1  0.89189068  0.54024077  0.85642289  1
  N  N51  1  0.80028913  0.40444119  0.62608745  1
  N  N52  1  0.51527618  0.56698953  0.38184217  1
  N  N53  1  0.44796984  0.43555670  0.05493783  1
  N  N54  1  0.22583646  0.54155461  0.80269198  1
  N  N55  1  0.10328743  0.41683854  0.62550312  1
  N  N56  1  0.88110899  0.52981946  0.39375165  1
  N  N57  1  0.78172183  0.44245718  0.09579081  1
  N  N58  1  0.55981624  0.54300974  0.85424054  1
  N  N59  1  0.41131219  0.38915151  0.53774168  1
  N  N60  1  0.21980772  0.87132032  0.30528662  1
  N  N61  1  0.11064863  0.74342035  0.04596467  1
  N  N62  1  0.89500992  0.85012092  0.84586698  1
  N  N63  1  0.75687469  0.74056092  0.62787305  1
  N  N64  1  0.54059222  0.85867546  0.39050440  1
  N  N65  1  0.48703213  0.75101869  0.12099666  1
  N  N66  1  0.21426220  0.87399194  0.83616480  1
  N  N67  1  0.15396662  0.73256605  0.55825234  1
  N  N68  1  0.90222495  0.87526413  0.35435423  1
  N  N69  1  0.78321526  0.76350556  0.08072903  1
  N  N70  1  0.55110635  0.88032620  0.86828879  1
  N  N71  1  0.42854007  0.78456750  0.64011252  1
