# generated using pymatgen
data_Gd2Al7N9
_symmetry_space_group_name_H-M   'P 1'
_cell_length_a   9.88719653
_cell_length_b   9.88633521
_cell_length_c   10.44215211
_cell_angle_alpha   90.20813286
_cell_angle_beta   90.38012204
_cell_angle_gamma   60.31466350
_symmetry_Int_Tables_number   1
_chemical_formula_structural   Gd2Al7N9
_chemical_formula_sum   'Gd8 Al28 N36'
_cell_volume   886.72281293
_cell_formula_units_Z   4
loop_
 _symmetry_equiv_pos_site_id
 _symmetry_equiv_pos_as_xyz
  1  'x, y, z'
loop_
 _atom_site_type_symbol
 _atom_site_label
 _atom_site_symmetry_multiplicity
 _atom_site_fract_x
 _atom_site_fract_y
 _atom_site_fract_z
 _atom_site_occupancy
  Al  Al0  1  0.10714154  0.09291565  0.31942412  1
  Al  Al1  1  0.22116487  0.21188185  0.04149663  1
  Al  Al2  1  0.89799510  0.19712692  0.56086654  1
  Al  Al3  1  0.54465532  0.21635772  0.05137639  1
  Al  Al4  1  0.11795669  0.09339563  0.80319769  1
  Al  Al5  1  0.21804068  0.20379286  0.57220839  1
  Al  Al6  1  0.78677089  0.09080481  0.30208940  1
  Al  Al7  1  0.89778000  0.21827394  0.05600818  1
  Al  Al8  1  0.43991615  0.09774594  0.80428154  1
  Al  Al9  1  0.55750409  0.20518492  0.56583403  1
  Al  Al10  1  0.22257128  0.53743741  0.04466607  1
  Al  Al11  1  0.80016514  0.41981261  0.81069309  1
  Al  Al12  1  0.89400581  0.52698520  0.57395232  1
  Al  Al13  1  0.43502664  0.43744723  0.37792576  1
  Al  Al14  1  0.56140589  0.54250565  0.04289285  1
  Al  Al15  1  0.11439863  0.42788929  0.80786615  1
  Al  Al16  1  0.21956917  0.53690792  0.57156049  1
  Al  Al17  1  0.89326841  0.53793647  0.03396583  1
  Al  Al18  1  0.43617369  0.43132082  0.83402354  1
  Al  Al19  1  0.11128069  0.75863475  0.30830437  1
  Al  Al20  1  0.77652856  0.75179937  0.81217277  1
  Al  Al21  1  0.43779755  0.75894140  0.31582896  1
  Al  Al22  1  0.55968049  0.87430602  0.04310390  1
  Al  Al23  1  0.12351395  0.75410261  0.80513070  1
  Al  Al24  1  0.22202124  0.87724568  0.55939003  1
  Al  Al25  1  0.89715295  0.85621334  0.04901050  1
  Al  Al26  1  0.43386579  0.78004114  0.80871586  1
  Al  Al27  1  0.54468786  0.87586313  0.57109670  1
  Gd  Gd28  1  0.77971744  0.09975959  0.82882036  1
  Gd  Gd29  1  0.44100148  0.09545668  0.31674546  1
  Gd  Gd30  1  0.10890351  0.42440052  0.30341248  1
  Gd  Gd31  1  0.76128475  0.41700921  0.30637073  1
  Gd  Gd32  1  0.55717998  0.54683366  0.59583673  1
  Gd  Gd33  1  0.22238647  0.87654898  0.07655586  1
  Gd  Gd34  1  0.88959457  0.86567998  0.56508992  1
  Gd  Gd35  1  0.76520539  0.75609778  0.29606154  1
  N  N36  1  0.20602415  0.19359709  0.39382912  1
  N  N37  1  0.09983776  0.13377389  0.13431630  1
  N  N38  1  0.91812199  0.21567525  0.87738963  1
  N  N39  1  0.76697864  0.11753045  0.61584949  1
  N  N40  1  0.57444776  0.22056884  0.37451286  1
  N  N41  1  0.44259287  0.09553476  0.09609723  1
  N  N42  1  0.22498389  0.20246922  0.85519824  1
  N  N43  1  0.10993679  0.08918820  0.62008231  1
  N  N44  1  0.90406106  0.17321531  0.37788149  1
  N  N45  1  0.78088308  0.09806663  0.10205957  1
  N  N46  1  0.52599263  0.21778670  0.86822538  1
  N  N47  1  0.44754912  0.09542076  0.61530484  1
  N  N48  1  0.21932912  0.55547931  0.38585317  1
  N  N49  1  0.11292342  0.42819262  0.08113747  1
  N  N50  1  0.89599968  0.53650493  0.85465956  1
  N  N51  1  0.81590673  0.39916000  0.62856991  1
  N  N52  1  0.52221671  0.55980959  0.37818278  1
  N  N53  1  0.44442813  0.43791606  0.07265841  1
  N  N54  1  0.21936522  0.54316745  0.85925326  1
  N  N55  1  0.11221808  0.42763643  0.62196938  1
  N  N56  1  0.88172762  0.53249382  0.39297733  1
  N  N57  1  0.77819000  0.43644906  0.08826625  1
  N  N58  1  0.55819991  0.54533342  0.84847895  1
  N  N59  1  0.43031197  0.41316004  0.60877674  1
  N  N60  1  0.21836263  0.87204597  0.35566689  1
  N  N61  1  0.10111314  0.73897535  0.12353292  1
  N  N62  1  0.90943013  0.84044087  0.85969025  1
  N  N63  1  0.75749669  0.74218500  0.62831096  1
  N  N64  1  0.53690258  0.85953218  0.39109441  1
  N  N65  1  0.48103632  0.74886032  0.12595495  1
  N  N66  1  0.21934621  0.87643959  0.86096822  1
  N  N67  1  0.14212261  0.74805466  0.62351201  1
  N  N68  1  0.89460199  0.87937501  0.34894584  1
  N  N69  1  0.77867635  0.75800930  0.07805634  1
  N  N70  1  0.55220330  0.87810438  0.86147871  1
  N  N71  1  0.41819883  0.80259005  0.63151458  1
