# generated using pymatgen
data_Gd2Al7N9
_symmetry_space_group_name_H-M   'P 1'
_cell_length_a   9.80475460
_cell_length_b   9.90448621
_cell_length_c   10.80903950
_cell_angle_alpha   90.83085164
_cell_angle_beta   90.60480159
_cell_angle_gamma   59.22019474
_symmetry_Int_Tables_number   1
_chemical_formula_structural   Gd2Al7N9
_chemical_formula_sum   'Gd8 Al28 N36'
_cell_volume   901.71922688
_cell_formula_units_Z   4
loop_
 _symmetry_equiv_pos_site_id
 _symmetry_equiv_pos_as_xyz
  1  'x, y, z'
loop_
 _atom_site_type_symbol
 _atom_site_label
 _atom_site_symmetry_multiplicity
 _atom_site_fract_x
 _atom_site_fract_y
 _atom_site_fract_z
 _atom_site_occupancy
  Al  Al0  1  0.12017919  0.08411321  0.41715393  1
  Al  Al1  1  0.21519068  0.21366382  0.15519672  1
  Al  Al2  1  0.87903194  0.20967515  0.58295245  1
  Al  Al3  1  0.55489120  0.21823248  0.14017631  1
  Al  Al4  1  0.11978014  0.09659166  0.90551846  1
  Al  Al5  1  0.21893609  0.19014137  0.66524253  1
  Al  Al6  1  0.79879998  0.09464793  0.31766094  1
  Al  Al7  1  0.89295455  0.21859528  0.07280380  1
  Al  Al8  1  0.42340236  0.11354561  0.90352732  1
  Al  Al9  1  0.51756476  0.21544234  0.65534834  1
  Al  Al10  1  0.21901099  0.54290477  0.14794030  1
  Al  Al11  1  0.79342449  0.42359905  0.83031348  1
  Al  Al12  1  0.87883617  0.53682201  0.60472630  1
  Al  Al13  1  0.44344105  0.43219996  0.39225869  1
  Al  Al14  1  0.57035532  0.53268555  0.05682973  1
  Al  Al15  1  0.10655033  0.42877651  0.83112381  1
  Al  Al16  1  0.21468653  0.53853768  0.65524285  1
  Al  Al17  1  0.90114666  0.53076711  0.06142564  1
  Al  Al18  1  0.42239511  0.43355394  0.90105736  1
  Al  Al19  1  0.13330389  0.76082695  0.41083383  1
  Al  Al20  1  0.78177597  0.75140088  0.84603805  1
  Al  Al21  1  0.44474189  0.76626685  0.42998798  1
  Al  Al22  1  0.56187975  0.87414336  0.07715952  1
  Al  Al23  1  0.11924317  0.75448247  0.89583010  1
  Al  Al24  1  0.21556540  0.87957002  0.65697320  1
  Al  Al25  1  0.89119272  0.86926154  0.05914961  1
  Al  Al26  1  0.43678590  0.76670179  0.88973742  1
  Al  Al27  1  0.54086663  0.87714600  0.67576159  1
  Gd  Gd28  1  0.76358054  0.11339291  0.85242579  1
  Gd  Gd29  1  0.47272848  0.07373920  0.39586733  1
  Gd  Gd30  1  0.15328671  0.41113977  0.41821352  1
  Gd  Gd31  1  0.77081248  0.43645411  0.33551740  1
  Gd  Gd32  1  0.53542531  0.52705034  0.63112689  1
  Gd  Gd33  1  0.23472873  0.86667913  0.16395765  1
  Gd  Gd34  1  0.86879431  0.87934921  0.59276240  1
  Gd  Gd35  1  0.81743552  0.73594147  0.30301097  1
  N  N36  1  0.21955810  0.17745382  0.33151573  1
  N  N37  1  0.11738403  0.10972793  0.08310836  1
  N  N38  1  0.89955321  0.22554440  0.89747480  1
  N  N39  1  0.74173754  0.13924340  0.64060770  1
  N  N40  1  0.57051374  0.22953898  0.31421365  1
  N  N41  1  0.44532109  0.10381783  0.08578430  1
  N  N42  1  0.21578160  0.20303703  0.84200559  1
  N  N43  1  0.10852120  0.09291628  0.60030366  1
  N  N44  1  0.89671199  0.18862705  0.40279101  1
  N  N45  1  0.79367169  0.09206255  0.11807699  1
  N  N46  1  0.49830592  0.23500278  0.83350666  1
  N  N47  1  0.43900031  0.08343965  0.61240136  1
  N  N48  1  0.23514713  0.56560111  0.32280108  1
  N  N49  1  0.10694254  0.43418767  0.13124254  1
  N  N50  1  0.89408094  0.53403443  0.88646178  1
  N  N51  1  0.80098919  0.40997722  0.65494306  1
  N  N52  1  0.53514714  0.54974234  0.41984223  1
  N  N53  1  0.44341637  0.43145605  0.07711611  1
  N  N54  1  0.21826946  0.54741538  0.83191010  1
  N  N55  1  0.10389804  0.42381670  0.64816910  1
  N  N56  1  0.89848812  0.53931132  0.43399056  1
  N  N57  1  0.77947229  0.43526467  0.11830391  1
  N  N58  1  0.55761724  0.53111263  0.86953518  1
  N  N59  1  0.39656926  0.39872478  0.56198371  1
  N  N60  1  0.23105914  0.87254594  0.37515358  1
  N  N61  1  0.11348987  0.74506259  0.07319042  1
  N  N62  1  0.89612334  0.85467688  0.87649834  1
  N  N63  1  0.76192199  0.74328298  0.66994997  1
  N  N64  1  0.56630562  0.83088010  0.34372692  1
  N  N65  1  0.46754387  0.75232052  0.06386330  1
  N  N66  1  0.21428889  0.87699579  0.84120880  1
  N  N67  1  0.14106556  0.74249373  0.59286723  1
  N  N68  1  0.90158733  0.88949771  0.38156013  1
  N  N69  1  0.78250584  0.76132135  0.08963390  1
  N  N70  1  0.54373415  0.88559264  0.86361661  1
  N  N71  1  0.42853889  0.78938977  0.61311443  1
