# generated using pymatgen
data_Gd2Al7N9
_symmetry_space_group_name_H-M   'P 1'
_cell_length_a   9.85138393
_cell_length_b   9.86334559
_cell_length_c   10.50935059
_cell_angle_alpha   90.68513186
_cell_angle_beta   90.84527112
_cell_angle_gamma   60.59187545
_symmetry_Int_Tables_number   1
_chemical_formula_structural   Gd2Al7N9
_chemical_formula_sum   'Gd8 Al28 N36'
_cell_volume   889.47510824
_cell_formula_units_Z   4
loop_
 _symmetry_equiv_pos_site_id
 _symmetry_equiv_pos_as_xyz
  1  'x, y, z'
loop_
 _atom_site_type_symbol
 _atom_site_label
 _atom_site_symmetry_multiplicity
 _atom_site_fract_x
 _atom_site_fract_y
 _atom_site_fract_z
 _atom_site_occupancy
  Al  Al0  1  0.10843432  0.09194649  0.32238194  1
  Al  Al1  1  0.22298463  0.21384956  0.04194121  1
  Al  Al2  1  0.89550292  0.19746422  0.56073840  1
  Al  Al3  1  0.55278911  0.21374897  0.06401997  1
  Al  Al4  1  0.11850037  0.09358843  0.80364358  1
  Al  Al5  1  0.21655239  0.20340847  0.57357618  1
  Al  Al6  1  0.79024826  0.08761620  0.29352976  1
  Al  Al7  1  0.90208893  0.21998782  0.05596943  1
  Al  Al8  1  0.44007899  0.09705083  0.81159026  1
  Al  Al9  1  0.55049980  0.20165568  0.58786464  1
  Al  Al10  1  0.21804412  0.54284587  0.04778888  1
  Al  Al11  1  0.80030638  0.42069018  0.80984294  1
  Al  Al12  1  0.88966387  0.52718036  0.57316551  1
  Al  Al13  1  0.43277291  0.43379332  0.38244525  1
  Al  Al14  1  0.56738450  0.54952985  0.04647753  1
  Al  Al15  1  0.11597310  0.42862638  0.80721550  1
  Al  Al16  1  0.21214094  0.53630624  0.56085235  1
  Al  Al17  1  0.89525333  0.53954845  0.03290575  1
  Al  Al18  1  0.44014843  0.43452016  0.87560688  1
  Al  Al19  1  0.10908041  0.75862936  0.30472189  1
  Al  Al20  1  0.77912004  0.75170865  0.81146891  1
  Al  Al21  1  0.43689444  0.76077581  0.32086049  1
  Al  Al22  1  0.56289756  0.87536770  0.04306628  1
  Al  Al23  1  0.12584510  0.75159854  0.80329828  1
  Al  Al24  1  0.22176845  0.87562715  0.55906279  1
  Al  Al25  1  0.90008751  0.85707216  0.04716855  1
  Al  Al26  1  0.43490157  0.78012515  0.80838331  1
  Al  Al27  1  0.54541352  0.87309437  0.57251004  1
  Gd  Gd28  1  0.78243180  0.09849135  0.83201502  1
  Gd  Gd29  1  0.44307749  0.09778271  0.31538459  1
  Gd  Gd30  1  0.10106364  0.41971937  0.30197661  1
  Gd  Gd31  1  0.75150060  0.41168301  0.30808982  1
  Gd  Gd32  1  0.54907302  0.54111149  0.59942763  1
  Gd  Gd33  1  0.22591155  0.87937337  0.07629247  1
  Gd  Gd34  1  0.88789089  0.86780722  0.56026838  1
  Gd  Gd35  1  0.76197482  0.75081024  0.29379992  1
  N  N36  1  0.20909724  0.19201272  0.39705545  1
  N  N37  1  0.10285579  0.13625557  0.13713890  1
  N  N38  1  0.91938060  0.21817490  0.87811127  1
  N  N39  1  0.76083939  0.12010772  0.61703760  1
  N  N40  1  0.57725643  0.22954146  0.32858079  1
  N  N41  1  0.44444922  0.09533533  0.09506392  1
  N  N42  1  0.22507902  0.20371309  0.85725273  1
  N  N43  1  0.10793686  0.08818490  0.62153476  1
  N  N44  1  0.90598401  0.16863497  0.37986593  1
  N  N45  1  0.79127408  0.09438124  0.09578065  1
  N  N46  1  0.52882961  0.21807430  0.87174155  1
  N  N47  1  0.44450227  0.09211562  0.62340256  1
  N  N48  1  0.21103667  0.55609550  0.37598488  1
  N  N49  1  0.11404057  0.42990691  0.08162838  1
  N  N50  1  0.89735841  0.53683910  0.85466083  1
  N  N51  1  0.81029236  0.40017623  0.62900818  1
  N  N52  1  0.51639709  0.56371555  0.38195729  1
  N  N53  1  0.44703708  0.44286494  0.06337110  1
  N  N54  1  0.22182368  0.54283487  0.86149387  1
  N  N55  1  0.10952862  0.42724266  0.62252880  1
  N  N56  1  0.87519042  0.52926272  0.39414604  1
  N  N57  1  0.78217483  0.43792198  0.09230806  1
  N  N58  1  0.56031313  0.54706160  0.85179975  1
  N  N59  1  0.42444924  0.40586974  0.56791149  1
  N  N60  1  0.21721701  0.87212852  0.35679206  1
  N  N61  1  0.10318965  0.74390042  0.12111174  1
  N  N62  1  0.91247960  0.83941006  0.85893792  1
  N  N63  1  0.75905258  0.74333196  0.62897775  1
  N  N64  1  0.53740993  0.86302404  0.39387434  1
  N  N65  1  0.48498121  0.75179056  0.13013657  1
  N  N66  1  0.22069201  0.87658018  0.86080176  1
  N  N67  1  0.14257136  0.74403698  0.62153453  1
  N  N68  1  0.89153077  0.87750129  0.34425813  1
  N  N69  1  0.78150903  0.75897862  0.07660434  1
  N  N70  1  0.55396046  0.87749168  0.86274215  1
  N  N71  1  0.41900984  0.79876616  0.63175034  1
