# generated using pymatgen
data_Gd2Al7N9
_symmetry_space_group_name_H-M   'P 1'
_cell_length_a   9.92279420
_cell_length_b   9.88879361
_cell_length_c   10.49569537
_cell_angle_alpha   89.50495466
_cell_angle_beta   90.46000651
_cell_angle_gamma   59.85596227
_symmetry_Int_Tables_number   1
_chemical_formula_structural   Gd2Al7N9
_chemical_formula_sum   'Gd8 Al28 N36'
_cell_volume   890.48444781
_cell_formula_units_Z   4
loop_
 _symmetry_equiv_pos_site_id
 _symmetry_equiv_pos_as_xyz
  1  'x, y, z'
loop_
 _atom_site_type_symbol
 _atom_site_label
 _atom_site_symmetry_multiplicity
 _atom_site_fract_x
 _atom_site_fract_y
 _atom_site_fract_z
 _atom_site_occupancy
  Al  Al0  1  0.11395357  0.08599083  0.40484547  1
  Al  Al1  1  0.22019426  0.20814050  0.14130153  1
  Al  Al2  1  0.89429064  0.21972061  0.65805123  1
  Al  Al3  1  0.54958257  0.21496404  0.14213906  1
  Al  Al4  1  0.11823879  0.09975456  0.89619782  1
  Al  Al5  1  0.21906395  0.20646418  0.66424213  1
  Al  Al6  1  0.79669175  0.08069118  0.31207078  1
  Al  Al7  1  0.90826625  0.20191122  0.13763956  1
  Al  Al8  1  0.43504050  0.09928067  0.90379014  1
  Al  Al9  1  0.53117018  0.21471987  0.66132372  1
  Al  Al10  1  0.22249912  0.53796462  0.14167095  1
  Al  Al11  1  0.79365750  0.42687454  0.89823545  1
  Al  Al12  1  0.88587829  0.53956001  0.66701038  1
  Al  Al13  1  0.43704940  0.43439366  0.39649252  1
  Al  Al14  1  0.56286296  0.53207193  0.06809224  1
  Al  Al15  1  0.11364088  0.42763280  0.89517172  1
  Al  Al16  1  0.21849805  0.53276016  0.65744957  1
  Al  Al17  1  0.89704819  0.53292020  0.13061419  1
  Al  Al18  1  0.42571746  0.43095436  0.90063154  1
  Al  Al19  1  0.12965639  0.75647067  0.40735991  1
  Al  Al20  1  0.77529737  0.76040056  0.89842282  1
  Al  Al21  1  0.43113214  0.77176112  0.41881591  1
  Al  Al22  1  0.55724477  0.86501012  0.13762190  1
  Al  Al23  1  0.11299505  0.75610866  0.89484475  1
  Al  Al24  1  0.22285462  0.87971490  0.65039688  1
  Al  Al25  1  0.89406896  0.85834610  0.10974602  1
  Al  Al26  1  0.44311203  0.76886627  0.89201378  1
  Al  Al27  1  0.54789535  0.87959828  0.66612178  1
  Gd  Gd28  1  0.76865133  0.11425356  0.88346070  1
  Gd  Gd29  1  0.45275071  0.09391627  0.39565295  1
  Gd  Gd30  1  0.11960916  0.42625858  0.40481991  1
  Gd  Gd31  1  0.77294225  0.40958932  0.37981583  1
  Gd  Gd32  1  0.54535272  0.53115967  0.63466383  1
  Gd  Gd33  1  0.23120176  0.86617179  0.15646302  1
  Gd  Gd34  1  0.88634707  0.88624331  0.62906787  1
  Gd  Gd35  1  0.77090397  0.75124707  0.39034638  1
  N  N36  1  0.21236224  0.18964588  0.32388006  1
  N  N37  1  0.11018703  0.11237935  0.07450213  1
  N  N38  1  0.91311241  0.22491874  0.83835828  1
  N  N39  1  0.74775316  0.14784838  0.64801882  1
  N  N40  1  0.57543541  0.22734738  0.32110040  1
  N  N41  1  0.44619572  0.09521731  0.09300726  1
  N  N42  1  0.22363273  0.20564726  0.84635224  1
  N  N43  1  0.10613112  0.10024899  0.59379480  1
  N  N44  1  0.92486076  0.16398885  0.31422466  1
  N  N45  1  0.78396675  0.08540342  0.11545019  1
  N  N46  1  0.51115470  0.22770874  0.84410603  1
  N  N47  1  0.43867356  0.09368150  0.61398656  1
  N  N48  1  0.23409356  0.55563685  0.32080350  1
  N  N49  1  0.11857341  0.42537996  0.08321023  1
  N  N50  1  0.88799388  0.54417779  0.85336483  1
  N  N51  1  0.80344747  0.42380453  0.59556129  1
  N  N52  1  0.52256648  0.55962725  0.40496830  1
  N  N53  1  0.44130915  0.42965434  0.08219603  1
  N  N54  1  0.21892400  0.54353502  0.84056350  1
  N  N55  1  0.10114188  0.43196149  0.62537563  1
  N  N56  1  0.89739422  0.52515920  0.30592584  1
  N  N57  1  0.78499906  0.41850733  0.08519172  1
  N  N58  1  0.55908108  0.53085330  0.87268280  1
  N  N59  1  0.40851629  0.40403467  0.57449422  1
  N  N60  1  0.22293230  0.87415319  0.37043442  1
  N  N61  1  0.10582779  0.74559058  0.07639477  1
  N  N62  1  0.89594482  0.85483097  0.85614156  1
  N  N63  1  0.75811985  0.75278259  0.61095022  1
  N  N64  1  0.52970938  0.85852703  0.31610350  1
  N  N65  1  0.47003673  0.74867067  0.07076278  1
  N  N66  1  0.21984864  0.87532627  0.84210685  1
  N  N67  1  0.14877978  0.74017616  0.59282009  1
  N  N68  1  0.90863340  0.87246443  0.36384482  1
  N  N69  1  0.77617658  0.75872106  0.08818323  1
  N  N70  1  0.55372332  0.87822739  0.84993739  1
  N  N71  1  0.43027598  0.79626999  0.60282766  1
