# generated using pymatgen
data_Gd2Al7N9
_symmetry_space_group_name_H-M   'P 1'
_cell_length_a   9.85957573
_cell_length_b   9.86098866
_cell_length_c   10.51965337
_cell_angle_alpha   90.41883770
_cell_angle_beta   90.61221573
_cell_angle_gamma   60.51209329
_symmetry_Int_Tables_number   1
_chemical_formula_structural   Gd2Al7N9
_chemical_formula_sum   'Gd8 Al28 N36'
_cell_volume   890.23106072
_cell_formula_units_Z   4
loop_
 _symmetry_equiv_pos_site_id
 _symmetry_equiv_pos_as_xyz
  1  'x, y, z'
loop_
 _atom_site_type_symbol
 _atom_site_label
 _atom_site_symmetry_multiplicity
 _atom_site_fract_x
 _atom_site_fract_y
 _atom_site_fract_z
 _atom_site_occupancy
  Al  Al0  1  0.10700349  0.09212430  0.32066971  1
  Al  Al1  1  0.22222592  0.21365412  0.04073022  1
  Al  Al2  1  0.89764714  0.19656813  0.56010679  1
  Al  Al3  1  0.55084904  0.21161863  0.05391233  1
  Al  Al4  1  0.11834152  0.09417992  0.80349167  1
  Al  Al5  1  0.21868848  0.20333627  0.57269348  1
  Al  Al6  1  0.78691361  0.08830524  0.30045751  1
  Al  Al7  1  0.89899175  0.21931329  0.05644287  1
  Al  Al8  1  0.44086734  0.09936121  0.80458403  1
  Al  Al9  1  0.55802581  0.19946123  0.55900436  1
  Al  Al10  1  0.21743357  0.54254967  0.04720123  1
  Al  Al11  1  0.80090847  0.42048631  0.81059716  1
  Al  Al12  1  0.89110255  0.52702237  0.57418376  1
  Al  Al13  1  0.43166320  0.43501171  0.38924569  1
  Al  Al14  1  0.56637329  0.54804061  0.04628637  1
  Al  Al15  1  0.11582544  0.42880410  0.80706610  1
  Al  Al16  1  0.21458806  0.53677694  0.56560351  1
  Al  Al17  1  0.89467455  0.53948265  0.03328617  1
  Al  Al18  1  0.43913122  0.43516400  0.87174136  1
  Al  Al19  1  0.10955439  0.75903223  0.30556871  1
  Al  Al20  1  0.77812717  0.75261061  0.81176771  1
  Al  Al21  1  0.43721723  0.75821846  0.31932646  1
  Al  Al22  1  0.56177992  0.87573544  0.04180894  1
  Al  Al23  1  0.12481305  0.75363562  0.80446803  1
  Al  Al24  1  0.22220398  0.87632370  0.56005471  1
  Al  Al25  1  0.89727450  0.85940833  0.04765480  1
  Al  Al26  1  0.43490607  0.78101362  0.80817077  1
  Al  Al27  1  0.54549350  0.87401657  0.57175949  1
  Gd  Gd28  1  0.77973144  0.10108012  0.82439062  1
  Gd  Gd29  1  0.43892146  0.09349626  0.31371727  1
  Gd  Gd30  1  0.10398061  0.42203693  0.30289110  1
  Gd  Gd31  1  0.75702307  0.41495721  0.30825949  1
  Gd  Gd32  1  0.55179458  0.54201175  0.59966378  1
  Gd  Gd33  1  0.22510874  0.87854194  0.07569279  1
  Gd  Gd34  1  0.89043045  0.86401672  0.56118204  1
  Gd  Gd35  1  0.76276675  0.75327257  0.29383247  1
  N  N36  1  0.20606510  0.19294986  0.39607944  1
  N  N37  1  0.10152497  0.13514493  0.13570038  1
  N  N38  1  0.91846092  0.21680621  0.87871876  1
  N  N39  1  0.76562675  0.11638724  0.61285509  1
  N  N40  1  0.57597100  0.21571609  0.36597643  1
  N  N41  1  0.44380443  0.09601637  0.09485292  1
  N  N42  1  0.22573823  0.20390369  0.85573111  1
  N  N43  1  0.10939187  0.08874755  0.62132168  1
  N  N44  1  0.90435684  0.17107452  0.37860672  1
  N  N45  1  0.78297846  0.09867307  0.10194163  1
  N  N46  1  0.52823015  0.21827589  0.87094917  1
  N  N47  1  0.44782904  0.09378828  0.61736992  1
  N  N48  1  0.21218868  0.55736599  0.37975038  1
  N  N49  1  0.11343131  0.42950558  0.08217812  1
  N  N50  1  0.89733990  0.53708239  0.85517531  1
  N  N51  1  0.81274792  0.39887343  0.62971461  1
  N  N52  1  0.51961126  0.55948279  0.37960850  1
  N  N53  1  0.44639638  0.44062295  0.06319347  1
  N  N54  1  0.22044557  0.54396610  0.86170620  1
  N  N55  1  0.11030947  0.42764429  0.62283176  1
  N  N56  1  0.87775145  0.53178513  0.39473038  1
  N  N57  1  0.78119403  0.43772651  0.09158345  1
  N  N58  1  0.56014480  0.54720177  0.85170537  1
  N  N59  1  0.42641949  0.40866910  0.57607176  1
  N  N60  1  0.21759552  0.87193919  0.35647413  1
  N  N61  1  0.10130900  0.74379670  0.12179045  1
  N  N62  1  0.91044157  0.84232803  0.85976242  1
  N  N63  1  0.75855358  0.74235447  0.62960310  1
  N  N64  1  0.53740764  0.85958371  0.39311448  1
  N  N65  1  0.48375445  0.75133318  0.12894634  1
  N  N66  1  0.22081035  0.87705801  0.86093452  1
  N  N67  1  0.14308997  0.74543835  0.62355258  1
  N  N68  1  0.89310136  0.87710751  0.34613354  1
  N  N69  1  0.78019702  0.75939118  0.07672062  1
  N  N70  1  0.55324005  0.87923525  0.86151470  1
  N  N71  1  0.41918987  0.79975509  0.63182208  1
