# generated using pymatgen
data_Gd2Al7N9
_symmetry_space_group_name_H-M   'P 1'
_cell_length_a   9.80119984
_cell_length_b   9.90356053
_cell_length_c   10.80418466
_cell_angle_alpha   90.75199703
_cell_angle_beta   90.52807769
_cell_angle_gamma   59.21530379
_symmetry_Int_Tables_number   1
_chemical_formula_structural   Gd2Al7N9
_chemical_formula_sum   'Gd8 Al28 N36'
_cell_volume   900.87674315
_cell_formula_units_Z   4
loop_
 _symmetry_equiv_pos_site_id
 _symmetry_equiv_pos_as_xyz
  1  'x, y, z'
loop_
 _atom_site_type_symbol
 _atom_site_label
 _atom_site_symmetry_multiplicity
 _atom_site_fract_x
 _atom_site_fract_y
 _atom_site_fract_z
 _atom_site_occupancy
  Al  Al0  1  0.12019590  0.08424723  0.41719612  1
  Al  Al1  1  0.21483338  0.21385255  0.15541782  1
  Al  Al2  1  0.87891603  0.21001943  0.58310703  1
  Al  Al3  1  0.55471096  0.21809240  0.14033223  1
  Al  Al4  1  0.11992195  0.09656583  0.90536649  1
  Al  Al5  1  0.21947598  0.18994635  0.66543980  1
  Al  Al6  1  0.79874966  0.09476572  0.31785555  1
  Al  Al7  1  0.89273785  0.21867480  0.07263669  1
  Al  Al8  1  0.42510060  0.11021086  0.90442053  1
  Al  Al9  1  0.51763120  0.21550337  0.65537391  1
  Al  Al10  1  0.21882142  0.54268861  0.14787099  1
  Al  Al11  1  0.79306405  0.42389169  0.83041028  1
  Al  Al12  1  0.87906725  0.53687905  0.60504920  1
  Al  Al13  1  0.44347663  0.43239221  0.39227679  1
  Al  Al14  1  0.56990450  0.53269691  0.05682003  1
  Al  Al15  1  0.10670304  0.42853554  0.83141753  1
  Al  Al16  1  0.21496911  0.53854523  0.65552717  1
  Al  Al17  1  0.90058143  0.53102477  0.06122400  1
  Al  Al18  1  0.42241190  0.43314713  0.90100877  1
  Al  Al19  1  0.13366468  0.76084465  0.41127487  1
  Al  Al20  1  0.77964307  0.75247304  0.84625335  1
  Al  Al21  1  0.44517552  0.76628232  0.42701022  1
  Al  Al22  1  0.56055497  0.87285681  0.09379666  1
  Al  Al23  1  0.11920660  0.75446946  0.89549154  1
  Al  Al24  1  0.21653118  0.87965691  0.65652762  1
  Al  Al25  1  0.89036425  0.86928179  0.05859425  1
  Al  Al26  1  0.43781289  0.76816069  0.89085593  1
  Al  Al27  1  0.54068442  0.87751705  0.67538134  1
  Gd  Gd28  1  0.76331343  0.11368852  0.85248869  1
  Gd  Gd29  1  0.47339037  0.07295130  0.39487989  1
  Gd  Gd30  1  0.15391025  0.41057270  0.41925195  1
  Gd  Gd31  1  0.77155023  0.43618126  0.33501908  1
  Gd  Gd32  1  0.53503279  0.52845174  0.63078423  1
  Gd  Gd33  1  0.23289726  0.86677868  0.16342264  1
  Gd  Gd34  1  0.86966700  0.87953600  0.59396064  1
  Gd  Gd35  1  0.82145065  0.73417028  0.30306350  1
  N  N36  1  0.21991310  0.17764191  0.33183732  1
  N  N37  1  0.11710521  0.10996396  0.08322889  1
  N  N38  1  0.89961396  0.22557222  0.89736505  1
  N  N39  1  0.74172503  0.13955285  0.64077921  1
  N  N40  1  0.57013150  0.22942826  0.31455457  1
  N  N41  1  0.44538354  0.10287556  0.08746816  1
  N  N42  1  0.21646717  0.20269758  0.84231715  1
  N  N43  1  0.10855358  0.09320840  0.60025047  1
  N  N44  1  0.89670711  0.18866968  0.40276075  1
  N  N45  1  0.79350917  0.09195955  0.11826107  1
  N  N46  1  0.49815037  0.23425471  0.83398005  1
  N  N47  1  0.43913404  0.08386715  0.61091961  1
  N  N48  1  0.23466012  0.56579127  0.32294673  1
  N  N49  1  0.10629335  0.43445301  0.13145708  1
  N  N50  1  0.89370854  0.53443587  0.88630135  1
  N  N51  1  0.80069787  0.41031040  0.65492375  1
  N  N52  1  0.53545547  0.54988024  0.41877964  1
  N  N53  1  0.44311929  0.43121082  0.07723798  1
  N  N54  1  0.21826318  0.54729923  0.83205046  1
  N  N55  1  0.10418575  0.42371971  0.64832939  1
  N  N56  1  0.89858932  0.53906600  0.43417071  1
  N  N57  1  0.77914844  0.43518129  0.11807123  1
  N  N58  1  0.55736436  0.53151856  0.86970351  1
  N  N59  1  0.39688386  0.39924126  0.56215653  1
  N  N60  1  0.23072304  0.87293230  0.37443732  1
  N  N61  1  0.11273114  0.74482153  0.07294953  1
  N  N62  1  0.89571861  0.85474001  0.87613071  1
  N  N63  1  0.76231776  0.74342103  0.66899232  1
  N  N64  1  0.56505592  0.83116860  0.33352777  1
  N  N65  1  0.46699063  0.75246365  0.06465611  1
  N  N66  1  0.21500511  0.87672063  0.84105770  1
  N  N67  1  0.14200683  0.74238665  0.59307663  1
  N  N68  1  0.90157408  0.88981156  0.38232151  1
  N  N69  1  0.78218966  0.76125797  0.09026900  1
  N  N70  1  0.54279240  0.88563078  0.85949929  1
  N  N71  1  0.42899662  0.79045037  0.60974912  1
