# generated using pymatgen
data_Gd2Al7N9
_symmetry_space_group_name_H-M   'P 1'
_cell_length_a   9.86602663
_cell_length_b   9.88029111
_cell_length_c   10.60954884
_cell_angle_alpha   91.35082494
_cell_angle_beta   90.78920051
_cell_angle_gamma   60.24769346
_symmetry_Int_Tables_number   1
_chemical_formula_structural   Gd2Al7N9
_chemical_formula_sum   'Gd8 Al28 N36'
_cell_volume   897.62757044
_cell_formula_units_Z   4
loop_
 _symmetry_equiv_pos_site_id
 _symmetry_equiv_pos_as_xyz
  1  'x, y, z'
loop_
 _atom_site_type_symbol
 _atom_site_label
 _atom_site_symmetry_multiplicity
 _atom_site_fract_x
 _atom_site_fract_y
 _atom_site_fract_z
 _atom_site_occupancy
  Al  Al0  1  0.11328424  0.08683866  0.31860816  1
  Al  Al1  1  0.22903346  0.21502022  0.04749521  1
  Al  Al2  1  0.89332494  0.19517226  0.56296262  1
  Al  Al3  1  0.56008059  0.22380690  0.12127376  1
  Al  Al4  1  0.10895399  0.10710764  0.81237352  1
  Al  Al5  1  0.21289160  0.19794228  0.57366961  1
  Al  Al6  1  0.80340005  0.08434358  0.29182708  1
  Al  Al7  1  0.90133253  0.22713006  0.05662221  1
  Al  Al8  1  0.43383499  0.09384554  0.80373307  1
  Al  Al9  1  0.53973557  0.20858753  0.62948181  1
  Al  Al10  1  0.22463247  0.53779088  0.07779542  1
  Al  Al11  1  0.79186923  0.42630516  0.80655594  1
  Al  Al12  1  0.88993580  0.52644015  0.57388607  1
  Al  Al13  1  0.42790660  0.43926840  0.36823014  1
  Al  Al14  1  0.56926486  0.54891967  0.04549916  1
  Al  Al15  1  0.11060991  0.42420765  0.82199387  1
  Al  Al16  1  0.22392189  0.51676914  0.61943628  1
  Al  Al17  1  0.88921337  0.54583208  0.03253164  1
  Al  Al18  1  0.43760816  0.43020147  0.87741463  1
  Al  Al19  1  0.11268929  0.75854381  0.28174632  1
  Al  Al20  1  0.77646490  0.75519678  0.80835570  1
  Al  Al21  1  0.43403507  0.76242647  0.31120599  1
  Al  Al22  1  0.56243256  0.88334392  0.04806236  1
  Al  Al23  1  0.11666389  0.74859054  0.81734749  1
  Al  Al24  1  0.22130889  0.87325010  0.64245521  1
  Al  Al25  1  0.89556744  0.86163254  0.04309386  1
  Al  Al26  1  0.45003277  0.76989902  0.81702353  1
  Al  Al27  1  0.54797626  0.86504005  0.56972771  1
  Gd  Gd28  1  0.77393380  0.10416501  0.83877031  1
  Gd  Gd29  1  0.45205108  0.10406545  0.34685383  1
  Gd  Gd30  1  0.10270578  0.40903391  0.29357311  1
  Gd  Gd31  1  0.75571485  0.41187854  0.31296940  1
  Gd  Gd32  1  0.54142593  0.53535827  0.59239105  1
  Gd  Gd33  1  0.22471485  0.88848517  0.07580491  1
  Gd  Gd34  1  0.89522012  0.86552936  0.55659439  1
  Gd  Gd35  1  0.76563575  0.74925228  0.29331112  1
  N  N36  1  0.20959824  0.18715163  0.39882370  1
  N  N37  1  0.09982849  0.14909382  0.13629095  1
  N  N38  1  0.90977341  0.22720289  0.87937744  1
  N  N39  1  0.76053763  0.11766835  0.61819840  1
  N  N40  1  0.58670601  0.24101329  0.29722500  1
  N  N41  1  0.44735654  0.10387789  0.11009226  1
  N  N42  1  0.22683303  0.20010032  0.86587302  1
  N  N43  1  0.10345384  0.09119358  0.63228057  1
  N  N44  1  0.91139623  0.16665526  0.38339787  1
  N  N45  1  0.79754125  0.09463054  0.09299503  1
  N  N46  1  0.51552069  0.23104925  0.80988741  1
  N  N47  1  0.43944923  0.08408279  0.61674138  1
  N  N48  1  0.22855285  0.54196268  0.30147270  1
  N  N49  1  0.10881246  0.43407389  0.07158023  1
  N  N50  1  0.88798357  0.54172828  0.85565246  1
  N  N51  1  0.80324513  0.40367123  0.62617917  1
  N  N52  1  0.51570673  0.56718336  0.38147737  1
  N  N53  1  0.45302479  0.43344994  0.05623725  1
  N  N54  1  0.22378600  0.53524968  0.84663098  1
  N  N55  1  0.10671121  0.41678288  0.63419350  1
  N  N56  1  0.88228211  0.53035112  0.39672322  1
  N  N57  1  0.78051502  0.44293302  0.09852919  1
  N  N58  1  0.56050931  0.54407904  0.85470982  1
  N  N59  1  0.41655196  0.39377075  0.54506884  1
  N  N60  1  0.21778066  0.87145088  0.30439447  1
  N  N61  1  0.10051400  0.75267017  0.09754955  1
  N  N62  1  0.90304802  0.84489358  0.85820362  1
  N  N63  1  0.76212370  0.74552373  0.62749319  1
  N  N64  1  0.53748667  0.85958008  0.39137775  1
  N  N65  1  0.48602204  0.75302320  0.12031523  1
  N  N66  1  0.21818067  0.87796576  0.84327172  1
  N  N67  1  0.14516688  0.73344668  0.63285014  1
  N  N68  1  0.89739600  0.87481380  0.33952779  1
  N  N69  1  0.78021408  0.76397813  0.07936816  1
  N  N70  1  0.55394610  0.88270296  0.86729658  1
  N  N71  1  0.43204133  0.78738727  0.64188002  1
