# generated using pymatgen
data_Gd2Al7N9
_symmetry_space_group_name_H-M   'P 1'
_cell_length_a   9.80668007
_cell_length_b   9.94402070
_cell_length_c   10.76560060
_cell_angle_alpha   89.90946800
_cell_angle_beta   89.67559265
_cell_angle_gamma   58.92703946
_symmetry_Int_Tables_number   1
_chemical_formula_structural   Gd2Al7N9
_chemical_formula_sum   'Gd8 Al28 N36'
_cell_volume   899.18202622
_cell_formula_units_Z   4
loop_
 _symmetry_equiv_pos_site_id
 _symmetry_equiv_pos_as_xyz
  1  'x, y, z'
loop_
 _atom_site_type_symbol
 _atom_site_label
 _atom_site_symmetry_multiplicity
 _atom_site_fract_x
 _atom_site_fract_y
 _atom_site_fract_z
 _atom_site_occupancy
  Al  Al0  1  0.11705347  0.08555453  0.40863277  1
  Al  Al1  1  0.21395399  0.21215773  0.15751885  1
  Al  Al2  1  0.88979127  0.21336566  0.64489913  1
  Al  Al3  1  0.54718940  0.21518100  0.14040214  1
  Al  Al4  1  0.11919540  0.09721573  0.90337090  1
  Al  Al5  1  0.22475020  0.19072944  0.66486194  1
  Al  Al6  1  0.80096715  0.08999990  0.30653697  1
  Al  Al7  1  0.89236451  0.21659453  0.08103047  1
  Al  Al8  1  0.42590937  0.10181145  0.90906782  1
  Al  Al9  1  0.51978647  0.21840713  0.65962905  1
  Al  Al10  1  0.21494901  0.54129126  0.14915155  1
  Al  Al11  1  0.78398704  0.43499970  0.84127937  1
  Al  Al12  1  0.88230849  0.54074624  0.60504622  1
  Al  Al13  1  0.44681560  0.43089581  0.39159609  1
  Al  Al14  1  0.55923752  0.53564088  0.06014196  1
  Al  Al15  1  0.10653920  0.42786426  0.83133841  1
  Al  Al16  1  0.21775404  0.53913339  0.65603673  1
  Al  Al17  1  0.89529870  0.53434798  0.06220437  1
  Al  Al18  1  0.41758720  0.43424358  0.90197491  1
  Al  Al19  1  0.13726493  0.76071864  0.41434576  1
  Al  Al20  1  0.77479316  0.75506301  0.84295893  1
  Al  Al21  1  0.45006680  0.76269919  0.41566024  1
  Al  Al22  1  0.55551100  0.86224812  0.13538354  1
  Al  Al23  1  0.11638192  0.75546241  0.89301444  1
  Al  Al24  1  0.22288106  0.87929848  0.65315663  1
  Al  Al25  1  0.88288437  0.86299075  0.05477586  1
  Al  Al26  1  0.43609288  0.77280734  0.89706602  1
  Al  Al27  1  0.54226334  0.87873285  0.67082811  1
  Gd  Gd28  1  0.75322243  0.11681839  0.87122978  1
  Gd  Gd29  1  0.48258448  0.06491790  0.39442295  1
  Gd  Gd30  1  0.16171598  0.40307050  0.42223475  1
  Gd  Gd31  1  0.78000085  0.43222195  0.32774242  1
  Gd  Gd32  1  0.53701224  0.53260524  0.62684854  1
  Gd  Gd33  1  0.21273154  0.87347259  0.16192216  1
  Gd  Gd34  1  0.87435877  0.88923946  0.60290193  1
  Gd  Gd35  1  0.84230234  0.72517491  0.30557192  1
  N  N36  1  0.23102401  0.17237081  0.33390624  1
  N  N37  1  0.11516329  0.11371363  0.07857345  1
  N  N38  1  0.89928982  0.22408543  0.88579119  1
  N  N39  1  0.74380061  0.14824013  0.65285633  1
  N  N40  1  0.56985421  0.22649341  0.31434349  1
  N  N41  1  0.44318956  0.09685486  0.09301327  1
  N  N42  1  0.21762356  0.20143328  0.84129157  1
  N  N43  1  0.10591992  0.09776952  0.59768725  1
  N  N44  1  0.91933539  0.17704197  0.33662255  1
  N  N45  1  0.78591843  0.08723252  0.10847132  1
  N  N46  1  0.49172111  0.23471159  0.83752132  1
  N  N47  1  0.44353388  0.08735288  0.60884281  1
  N  N48  1  0.23269340  0.56685661  0.32472737  1
  N  N49  1  0.09917191  0.43588839  0.13820730  1
  N  N50  1  0.89270685  0.53831993  0.88738721  1
  N  N51  1  0.79851334  0.42372436  0.66461726  1
  N  N52  1  0.54050383  0.54636938  0.41354182  1
  N  N53  1  0.43711180  0.42931689  0.07861864  1
  N  N54  1  0.21511168  0.54841339  0.83246450  1
  N  N55  1  0.10748823  0.42428831  0.64859509  1
  N  N56  1  0.90510986  0.53079772  0.43417773  1
  N  N57  1  0.77285445  0.43587273  0.10909756  1
  N  N58  1  0.55011720  0.53659143  0.87330080  1
  N  N59  1  0.40186237  0.40128630  0.56440364  1
  N  N60  1  0.23466325  0.87096844  0.37225738  1
  N  N61  1  0.10504609  0.74238305  0.07135174  1
  N  N62  1  0.89171906  0.85568764  0.87206251  1
  N  N63  1  0.76568912  0.74853056  0.66301662  1
  N  N64  1  0.57153779  0.82614991  0.31547811  1
  N  N65  1  0.45656175  0.75577579  0.07200734  1
  N  N66  1  0.21541647  0.87724500  0.83947839  1
  N  N67  1  0.14798866  0.74328570  0.59525221  1
  N  N68  1  0.90191144  0.89240092  0.38847858  1
  N  N69  1  0.77617759  0.75921247  0.09535300  1
  N  N70  1  0.53988829  0.88403302  0.85065719  1
  N  N71  1  0.43322266  0.79493596  0.59758969  1
