# generated using pymatgen
data_Gd2Al7N9
_symmetry_space_group_name_H-M   'P 1'
_cell_length_a   9.87860020
_cell_length_b   9.88504167
_cell_length_c   10.68033330
_cell_angle_alpha   91.11976473
_cell_angle_beta   91.45946212
_cell_angle_gamma   59.84036038
_symmetry_Int_Tables_number   1
_chemical_formula_structural   Gd2Al7N9
_chemical_formula_sum   'Gd8 Al28 N36'
_cell_volume   901.43484567
_cell_formula_units_Z   4
loop_
 _symmetry_equiv_pos_site_id
 _symmetry_equiv_pos_as_xyz
  1  'x, y, z'
loop_
 _atom_site_type_symbol
 _atom_site_label
 _atom_site_symmetry_multiplicity
 _atom_site_fract_x
 _atom_site_fract_y
 _atom_site_fract_z
 _atom_site_occupancy
  Al  Al0  1  0.10927041  0.09314392  0.32266533  1
  Al  Al1  1  0.22986096  0.21387116  0.04546827  1
  Al  Al2  1  0.88998482  0.20004004  0.56087719  1
  Al  Al3  1  0.56219707  0.22009173  0.11581471  1
  Al  Al4  1  0.11189806  0.10076797  0.80798882  1
  Al  Al5  1  0.21065672  0.19753479  0.57040688  1
  Al  Al6  1  0.80485701  0.08456831  0.29361005  1
  Al  Al7  1  0.90715524  0.22181981  0.05530739  1
  Al  Al8  1  0.43069159  0.09513665  0.79908699  1
  Al  Al9  1  0.53123302  0.21152711  0.62669828  1
  Al  Al10  1  0.22881481  0.54210326  0.11084555  1
  Al  Al11  1  0.79854871  0.42201156  0.80288088  1
  Al  Al12  1  0.88600042  0.52750151  0.56741765  1
  Al  Al13  1  0.43161721  0.43528817  0.36881219  1
  Al  Al14  1  0.57556599  0.53588504  0.02803195  1
  Al  Al15  1  0.11004059  0.42386869  0.80633479  1
  Al  Al16  1  0.21782964  0.52466932  0.61776403  1
  Al  Al17  1  0.89541585  0.54302918  0.03163499  1
  Al  Al18  1  0.42610876  0.43083002  0.87073201  1
  Al  Al19  1  0.12957365  0.75543075  0.37285143  1
  Al  Al20  1  0.77703802  0.75365883  0.80258522  1
  Al  Al21  1  0.41852255  0.77503952  0.40676410  1
  Al  Al22  1  0.56721951  0.88449917  0.03083020  1
  Al  Al23  1  0.11953255  0.74782616  0.86545982  1
  Al  Al24  1  0.21816780  0.86825687  0.63565797  1
  Al  Al25  1  0.89484430  0.86356433  0.03704163  1
  Al  Al26  1  0.44694220  0.76590905  0.85734150  1
  Al  Al27  1  0.55076741  0.86965055  0.57459128  1
  Gd  Gd28  1  0.76794814  0.11292485  0.83648849  1
  Gd  Gd29  1  0.45026275  0.10357682  0.33724786  1
  Gd  Gd30  1  0.10360364  0.41392724  0.29984458  1
  Gd  Gd31  1  0.74745832  0.42137885  0.30892637  1
  Gd  Gd32  1  0.53808781  0.52548826  0.60519962  1
  Gd  Gd33  1  0.23658888  0.86960237  0.11186772  1
  Gd  Gd34  1  0.88262066  0.87541604  0.57056928  1
  Gd  Gd35  1  0.77011646  0.75774264  0.29339650  1
  N  N36  1  0.21069151  0.18779650  0.39704031  1
  N  N37  1  0.10661695  0.13969811  0.13621737  1
  N  N38  1  0.91534448  0.22297915  0.87896411  1
  N  N39  1  0.75060741  0.13255586  0.61793221  1
  N  N40  1  0.58542177  0.24019384  0.29110799  1
  N  N41  1  0.45301451  0.09756792  0.10228457  1
  N  N42  1  0.22458733  0.20148154  0.86324772  1
  N  N43  1  0.10069929  0.09201187  0.62885489  1
  N  N44  1  0.90676812  0.17496123  0.38107665  1
  N  N45  1  0.80032783  0.09075171  0.09170124  1
  N  N46  1  0.50942020  0.23217796  0.80679843  1
  N  N47  1  0.43514108  0.08570826  0.61652654  1
  N  N48  1  0.23124743  0.55376056  0.29139280  1
  N  N49  1  0.11590057  0.43330096  0.08014720  1
  N  N50  1  0.89229590  0.53995367  0.85510328  1
  N  N51  1  0.80248101  0.40660677  0.62395626  1
  N  N52  1  0.51666949  0.56210815  0.38866756  1
  N  N53  1  0.44843087  0.43313105  0.04930653  1
  N  N54  1  0.22300388  0.54202457  0.80116937  1
  N  N55  1  0.10226982  0.41719669  0.62363726  1
  N  N56  1  0.87915777  0.53434482  0.39071273  1
  N  N57  1  0.78175984  0.44073276  0.09363851  1
  N  N58  1  0.56491468  0.52870559  0.84155538  1
  N  N59  1  0.40741429  0.39141832  0.53742271  1
  N  N60  1  0.22262666  0.87312003  0.32602922  1
  N  N61  1  0.11345547  0.74312374  0.04346381  1
  N  N62  1  0.89706932  0.85170250  0.84549518  1
  N  N63  1  0.76287998  0.74127975  0.62570259  1
  N  N64  1  0.54669264  0.86348076  0.39274516  1
  N  N65  1  0.47818125  0.75356419  0.03921004  1
  N  N66  1  0.22152582  0.86772439  0.82299265  1
  N  N67  1  0.14969455  0.73290283  0.55876577  1
  N  N68  1  0.90186470  0.87776672  0.35269390  1
  N  N69  1  0.78319906  0.76385752  0.07759760  1
  N  N70  1  0.55752419  0.88293979  0.85003104  1
  N  N71  1  0.42156691  0.78728343  0.59149462  1
