# generated using pymatgen
data_Gd2Al7N9
_symmetry_space_group_name_H-M   'P 1'
_cell_length_a   9.85119716
_cell_length_b   9.86257542
_cell_length_c   10.51036904
_cell_angle_alpha   90.65217666
_cell_angle_beta   90.82625054
_cell_angle_gamma   60.59724306
_symmetry_Int_Tables_number   1
_chemical_formula_structural   Gd2Al7N9
_chemical_formula_sum   'Gd8 Al28 N36'
_cell_volume   889.52842842
_cell_formula_units_Z   4
loop_
 _symmetry_equiv_pos_site_id
 _symmetry_equiv_pos_as_xyz
  1  'x, y, z'
loop_
 _atom_site_type_symbol
 _atom_site_label
 _atom_site_symmetry_multiplicity
 _atom_site_fract_x
 _atom_site_fract_y
 _atom_site_fract_z
 _atom_site_occupancy
  Al  Al0  1  0.10830829  0.09190983  0.32217047  1
  Al  Al1  1  0.22300150  0.21386351  0.04166282  1
  Al  Al2  1  0.89584536  0.19728248  0.56062085  1
  Al  Al3  1  0.55247485  0.21302211  0.06064465  1
  Al  Al4  1  0.11852620  0.09366072  0.80362978  1
  Al  Al5  1  0.21700776  0.20340529  0.57351178  1
  Al  Al6  1  0.78977228  0.08747683  0.29491385  1
  Al  Al7  1  0.90163971  0.21998738  0.05611998  1
  Al  Al8  1  0.44048713  0.09769347  0.81003754  1
  Al  Al9  1  0.55235285  0.20099422  0.57846978  1
  Al  Al10  1  0.21809526  0.54278193  0.04782431  1
  Al  Al11  1  0.80043258  0.42060609  0.80993305  1
  Al  Al12  1  0.88972405  0.52713390  0.57331970  1
  Al  Al13  1  0.43201348  0.43453464  0.38389377  1
  Al  Al14  1  0.56737085  0.54933118  0.04657398  1
  Al  Al15  1  0.11599972  0.42865193  0.80717211  1
  Al  Al16  1  0.21216779  0.53653170  0.56157874  1
  Al  Al17  1  0.89525810  0.53954315  0.03295021  1
  Al  Al18  1  0.44008656  0.43459694  0.87498380  1
  Al  Al19  1  0.10907170  0.75868436  0.30476234  1
  Al  Al20  1  0.77903194  0.75182840  0.81147686  1
  Al  Al21  1  0.43685764  0.76051935  0.32072053  1
  Al  Al22  1  0.56288125  0.87544293  0.04279658  1
  Al  Al23  1  0.12571946  0.75189667  0.80347410  1
  Al  Al24  1  0.22175470  0.87578127  0.55922860  1
  Al  Al25  1  0.89971041  0.85742854  0.04723479  1
  Al  Al26  1  0.43489159  0.78037889  0.80838440  1
  Al  Al27  1  0.54539660  0.87336625  0.57245421  1
  Gd  Gd28  1  0.78177768  0.09902166  0.83027576  1
  Gd  Gd29  1  0.44216637  0.09683725  0.31487138  1
  Gd  Gd30  1  0.10121104  0.41989836  0.30205964  1
  Gd  Gd31  1  0.75206243  0.41197448  0.30834039  1
  Gd  Gd32  1  0.54929135  0.54134009  0.59961690  1
  Gd  Gd33  1  0.22591652  0.87930997  0.07620633  1
  Gd  Gd34  1  0.88820484  0.86728546  0.56030150  1
  Gd  Gd35  1  0.76198336  0.75092651  0.29376423  1
  N  N36  1  0.20865177  0.19214921  0.39699142  1
  N  N37  1  0.10282880  0.13611826  0.13692768  1
  N  N38  1  0.91924855  0.21791314  0.87827462  1
  N  N39  1  0.76162717  0.11957646  0.61625009  1
  N  N40  1  0.57748168  0.22619083  0.33938796  1
  N  N41  1  0.44458744  0.09550473  0.09508499  1
  N  N42  1  0.22539104  0.20370928  0.85691288  1
  N  N43  1  0.10817129  0.08828498  0.62153032  1
  N  N44  1  0.90599045  0.16880744  0.37961914  1
  N  N45  1  0.78948167  0.09550705  0.09715806  1
  N  N46  1  0.52887547  0.21805836  0.87242740  1
  N  N47  1  0.44545026  0.09265724  0.62209500  1
  N  N48  1  0.21081779  0.55632161  0.37641457  1
  N  N49  1  0.11405802  0.42982595  0.08168017  1
  N  N50  1  0.89739664  0.53685717  0.85473587  1
  N  N51  1  0.81052363  0.39994602  0.62912295  1
  N  N52  1  0.51659367  0.56330975  0.38158590  1
  N  N53  1  0.44724119  0.44225073  0.06380844  1
  N  N54  1  0.22173999  0.54300140  0.86165074  1
  N  N55  1  0.10944124  0.42735072  0.62257075  1
  N  N56  1  0.87527111  0.52936588  0.39421333  1
  N  N57  1  0.78216277  0.43794411  0.09241481  1
  N  N58  1  0.56028839  0.54711961  0.85194484  1
  N  N59  1  0.42415200  0.40704256  0.56965444  1
  N  N60  1  0.21724147  0.87210395  0.35674876  1
  N  N61  1  0.10300400  0.74397280  0.12112368  1
  N  N62  1  0.91218986  0.83996006  0.85910388  1
  N  N63  1  0.75900796  0.74313707  0.62904537  1
  N  N64  1  0.53744569  0.86249407  0.39383098  1
  N  N65  1  0.48491793  0.75182252  0.13000975  1
  N  N66  1  0.22075214  0.87666330  0.86084368  1
  N  N67  1  0.14244048  0.74437579  0.62181346  1
  N  N68  1  0.89178386  0.87718291  0.34441205  1
  N  N69  1  0.78141321  0.75900742  0.07658917  1
  N  N70  1  0.55390258  0.87790723  0.86247820  1
  N  N71  1  0.41896536  0.79903190  0.63180221  1
