# generated using pymatgen
data_Gd2Al7N9
_symmetry_space_group_name_H-M   'P 1'
_cell_length_a   9.87989851
_cell_length_b   9.88138476
_cell_length_c   10.40959225
_cell_angle_alpha   90.33932941
_cell_angle_beta   90.30990191
_cell_angle_gamma   60.13288046
_symmetry_Int_Tables_number   1
_chemical_formula_structural   Gd2Al7N9
_chemical_formula_sum   'Gd8 Al28 N36'
_cell_volume   881.26239961
_cell_formula_units_Z   4
loop_
 _symmetry_equiv_pos_site_id
 _symmetry_equiv_pos_as_xyz
  1  'x, y, z'
loop_
 _atom_site_type_symbol
 _atom_site_label
 _atom_site_symmetry_multiplicity
 _atom_site_fract_x
 _atom_site_fract_y
 _atom_site_fract_z
 _atom_site_occupancy
  Al  Al0  1  0.10814553  0.09149344  0.31378314  1
  Al  Al1  1  0.21926547  0.21179345  0.03646401  1
  Al  Al2  1  0.89709096  0.19831119  0.55557865  1
  Al  Al3  1  0.54308046  0.21401709  0.05179319  1
  Al  Al4  1  0.11685177  0.09347030  0.79703155  1
  Al  Al5  1  0.21801777  0.20416981  0.56680667  1
  Al  Al6  1  0.78630641  0.09233208  0.29746399  1
  Al  Al7  1  0.89549386  0.21824958  0.04863202  1
  Al  Al8  1  0.43886234  0.09979285  0.79950724  1
  Al  Al9  1  0.55413090  0.21275676  0.55370778  1
  Al  Al10  1  0.22068995  0.53652711  0.04251427  1
  Al  Al11  1  0.79333563  0.42256856  0.80333526  1
  Al  Al12  1  0.89423255  0.52962957  0.56985374  1
  Al  Al13  1  0.43986859  0.43931468  0.29944641  1
  Al  Al14  1  0.55898227  0.54148054  0.04108784  1
  Al  Al15  1  0.11479643  0.42885465  0.80213121  1
  Al  Al16  1  0.22908229  0.53234643  0.55768089  1
  Al  Al17  1  0.89131823  0.53789792  0.02714733  1
  Al  Al18  1  0.43279658  0.42832977  0.80499228  1
  Al  Al19  1  0.11345335  0.75823577  0.30340039  1
  Al  Al20  1  0.77598169  0.75285564  0.80639999  1
  Al  Al21  1  0.44001987  0.75918723  0.30510215  1
  Al  Al22  1  0.55743474  0.87414457  0.03612635  1
  Al  Al23  1  0.12548127  0.75201855  0.79868151  1
  Al  Al24  1  0.22377662  0.87630080  0.55318960  1
  Al  Al25  1  0.89620085  0.85686340  0.04188807  1
  Al  Al26  1  0.43589909  0.77387649  0.80194660  1
  Al  Al27  1  0.54661185  0.87419656  0.56603829  1
  Gd  Gd28  1  0.77402047  0.10293443  0.82298552  1
  Gd  Gd29  1  0.44181460  0.09394418  0.31404396  1
  Gd  Gd30  1  0.11347001  0.42408743  0.29921511  1
  Gd  Gd31  1  0.77438731  0.41550016  0.30045559  1
  Gd  Gd32  1  0.55220297  0.54273963  0.57147784  1
  Gd  Gd33  1  0.21861273  0.87842878  0.06837576  1
  Gd  Gd34  1  0.89101712  0.86699867  0.56121414  1
  Gd  Gd35  1  0.76805103  0.75827440  0.28979645  1
  N  N36  1  0.20532948  0.19300089  0.38824645  1
  N  N37  1  0.09666357  0.13494000  0.12814655  1
  N  N38  1  0.91495601  0.21631669  0.86932607  1
  N  N39  1  0.76346294  0.12158147  0.60894597  1
  N  N40  1  0.57168241  0.22627713  0.36299097  1
  N  N41  1  0.44024105  0.09381446  0.09297150  1
  N  N42  1  0.22330297  0.20326074  0.84944955  1
  N  N43  1  0.11018437  0.08916562  0.61408238  1
  N  N44  1  0.90543220  0.17198889  0.37305669  1
  N  N45  1  0.78009978  0.09749324  0.09618468  1
  N  N46  1  0.51992530  0.22404394  0.87123682  1
  N  N47  1  0.44820395  0.09658363  0.60807597  1
  N  N48  1  0.23368407  0.54986334  0.37271369  1
  N  N49  1  0.10999661  0.42847372  0.07658464  1
  N  N50  1  0.89430298  0.53619454  0.84712396  1
  N  N51  1  0.81040706  0.40408419  0.61974496  1
  N  N52  1  0.52804470  0.55486892  0.35560791  1
  N  N53  1  0.44052737  0.43386142  0.10838846  1
  N  N54  1  0.22250981  0.54219604  0.85957690  1
  N  N55  1  0.11465320  0.42882775  0.61465190  1
  N  N56  1  0.88666494  0.53704702  0.38866572  1
  N  N57  1  0.77630934  0.43631001  0.08201115  1
  N  N58  1  0.55382291  0.54089296  0.84859755  1
  N  N59  1  0.43031806  0.41114989  0.62428800  1
  N  N60  1  0.22095850  0.87108404  0.34946171  1
  N  N61  1  0.09963759  0.73955043  0.11809533  1
  N  N62  1  0.90937316  0.84165946  0.85210147  1
  N  N63  1  0.75901740  0.74465142  0.62278214  1
  N  N64  1  0.53937252  0.85655449  0.38514918  1
  N  N65  1  0.47677672  0.75065377  0.11585112  1
  N  N66  1  0.21930249  0.87613930  0.85282359  1
  N  N67  1  0.14636947  0.74400306  0.61535694  1
  N  N68  1  0.89659183  0.88035695  0.34492436  1
  N  N69  1  0.77719480  0.75869603  0.07060960  1
  N  N70  1  0.55079248  0.87830222  0.85399284  1
  N  N71  1  0.42258047  0.79575186  0.62372749  1
