# generated using pymatgen
data_Gd2Al7N9
_symmetry_space_group_name_H-M   'P 1'
_cell_length_a   9.86281242
_cell_length_b   9.86941300
_cell_length_c   10.62442429
_cell_angle_alpha   91.30937917
_cell_angle_beta   90.75662663
_cell_angle_gamma   60.25705723
_symmetry_Int_Tables_number   1
_chemical_formula_structural   Gd2Al7N9
_chemical_formula_sum   'Gd8 Al28 N36'
_cell_volume   897.70333296
_cell_formula_units_Z   4
loop_
 _symmetry_equiv_pos_site_id
 _symmetry_equiv_pos_as_xyz
  1  'x, y, z'
loop_
 _atom_site_type_symbol
 _atom_site_label
 _atom_site_symmetry_multiplicity
 _atom_site_fract_x
 _atom_site_fract_y
 _atom_site_fract_z
 _atom_site_occupancy
  Al  Al0  1  0.11315964  0.08686178  0.31819199  1
  Al  Al1  1  0.22838840  0.21558103  0.04788433  1
  Al  Al2  1  0.89364538  0.19497469  0.56309815  1
  Al  Al3  1  0.55911113  0.22455668  0.12067856  1
  Al  Al4  1  0.10914777  0.10714401  0.81255062  1
  Al  Al5  1  0.21351016  0.19755955  0.57335630  1
  Al  Al6  1  0.80298901  0.08461356  0.29147315  1
  Al  Al7  1  0.90159390  0.22657821  0.05639115  1
  Al  Al8  1  0.43350749  0.09412045  0.80402457  1
  Al  Al9  1  0.54081420  0.20769141  0.63085091  1
  Al  Al10  1  0.21806156  0.54087455  0.04953426  1
  Al  Al11  1  0.79293364  0.42588847  0.80684861  1
  Al  Al12  1  0.88945366  0.52694109  0.57342981  1
  Al  Al13  1  0.43127491  0.43761525  0.37025204  1
  Al  Al14  1  0.56896308  0.54883436  0.04594415  1
  Al  Al15  1  0.11300294  0.42613351  0.81604434  1
  Al  Al16  1  0.21663452  0.52213562  0.57557537  1
  Al  Al17  1  0.89021713  0.54491872  0.03261807  1
  Al  Al18  1  0.43973854  0.42987329  0.87667115  1
  Al  Al19  1  0.11238640  0.75696315  0.28600987  1
  Al  Al20  1  0.77710121  0.75494064  0.80873089  1
  Al  Al21  1  0.43397617  0.76282505  0.31138428  1
  Al  Al22  1  0.56228188  0.88345539  0.04796646  1
  Al  Al23  1  0.11806082  0.74525600  0.81418133  1
  Al  Al24  1  0.22146685  0.87276071  0.64256624  1
  Al  Al25  1  0.89682858  0.86042808  0.04453801  1
  Al  Al26  1  0.44982688  0.77008885  0.81696600  1
  Al  Al27  1  0.54788409  0.86523817  0.56990380  1
  Gd  Gd28  1  0.77475695  0.10307162  0.83946178  1
  Gd  Gd29  1  0.45209562  0.10413507  0.34672668  1
  Gd  Gd30  1  0.10263975  0.41132222  0.29526476  1
  Gd  Gd31  1  0.75615058  0.41147892  0.31186743  1
  Gd  Gd32  1  0.54250676  0.53492950  0.59286555  1
  Gd  Gd33  1  0.22421518  0.88650694  0.07669100  1
  Gd  Gd34  1  0.89490080  0.86600141  0.55636251  1
  Gd  Gd35  1  0.76511776  0.74933171  0.29295078  1
  N  N36  1  0.20935372  0.18741251  0.39858712  1
  N  N37  1  0.10012468  0.14753344  0.13553634  1
  N  N38  1  0.90989071  0.22672365  0.87942981  1
  N  N39  1  0.76186878  0.11658604  0.61936771  1
  N  N40  1  0.58594489  0.24162608  0.29605420  1
  N  N41  1  0.44722724  0.10385005  0.10993060  1
  N  N42  1  0.22599748  0.20220785  0.86536116  1
  N  N43  1  0.10380485  0.09127707  0.63243705  1
  N  N44  1  0.91122180  0.16654960  0.38357461  1
  N  N45  1  0.79815248  0.09404275  0.09316665  1
  N  N46  1  0.51572072  0.23102976  0.81051200  1
  N  N47  1  0.43944196  0.08412280  0.61724316  1
  N  N48  1  0.21631952  0.55026879  0.34463717  1
  N  N49  1  0.10902981  0.43413716  0.07676277  1
  N  N50  1  0.89040814  0.54067390  0.85530647  1
  N  N51  1  0.80430356  0.40337457  0.62682078  1
  N  N52  1  0.51652670  0.56723295  0.38078368  1
  N  N53  1  0.45200018  0.43446030  0.05719870  1
  N  N54  1  0.22137681  0.53810790  0.86434428  1
  N  N55  1  0.10907334  0.41978426  0.63065158  1
  N  N56  1  0.88099876  0.53012067  0.39656470  1
  N  N57  1  0.78057919  0.44272066  0.09781396  1
  N  N58  1  0.56088393  0.54388897  0.85453547  1
  N  N59  1  0.42472587  0.38933991  0.54531331  1
  N  N60  1  0.21768896  0.87109512  0.30453418  1
  N  N61  1  0.10152972  0.74786087  0.10383613  1
  N  N62  1  0.90492505  0.84356358  0.85909183  1
  N  N63  1  0.76206966  0.74577717  0.62782242  1
  N  N64  1  0.53743591  0.85979916  0.39171173  1
  N  N65  1  0.48572688  0.75335627  0.12038813  1
  N  N66  1  0.21797741  0.87731317  0.84308637  1
  N  N67  1  0.14703438  0.73019167  0.63303427  1
  N  N68  1  0.89505373  0.87622020  0.34004816  1
  N  N69  1  0.78016427  0.76358412  0.07909611  1
  N  N70  1  0.55404216  0.88267819  0.86735806  1
  N  N71  1  0.43203678  0.78747136  0.64204691  1
