# generated using pymatgen
data_Gd2Al7N9
_symmetry_space_group_name_H-M   'P 1'
_cell_length_a   9.84793469
_cell_length_b   9.93395556
_cell_length_c   10.71513046
_cell_angle_alpha   90.04933692
_cell_angle_beta   90.26581492
_cell_angle_gamma   58.87454250
_symmetry_Int_Tables_number   1
_chemical_formula_structural   Gd2Al7N9
_chemical_formula_sum   'Gd8 Al28 N36'
_cell_volume   897.33012870
_cell_formula_units_Z   4
loop_
 _symmetry_equiv_pos_site_id
 _symmetry_equiv_pos_as_xyz
  1  'x, y, z'
loop_
 _atom_site_type_symbol
 _atom_site_label
 _atom_site_symmetry_multiplicity
 _atom_site_fract_x
 _atom_site_fract_y
 _atom_site_fract_z
 _atom_site_occupancy
  Al  Al0  1  0.11420534  0.08687204  0.40370399  1
  Al  Al1  1  0.21666528  0.20981441  0.15177664  1
  Al  Al2  1  0.89165267  0.21522057  0.65913346  1
  Al  Al3  1  0.54711540  0.21364498  0.14031714  1
  Al  Al4  1  0.11530223  0.10068033  0.90036204  1
  Al  Al5  1  0.22224917  0.19122222  0.66398260  1
  Al  Al6  1  0.79582689  0.08853089  0.31052475  1
  Al  Al7  1  0.90305471  0.20701801  0.13558322  1
  Al  Al8  1  0.43012359  0.09928325  0.90731217  1
  Al  Al9  1  0.52116930  0.21681526  0.65918115  1
  Al  Al10  1  0.21523619  0.54001917  0.14610172  1
  Al  Al11  1  0.78538051  0.43737499  0.82967257  1
  Al  Al12  1  0.88075624  0.54568126  0.60203549  1
  Al  Al13  1  0.44125765  0.43154422  0.39072734  1
  Al  Al14  1  0.56700378  0.52917598  0.05999922  1
  Al  Al15  1  0.10737659  0.42638708  0.83363121  1
  Al  Al16  1  0.21608445  0.53862500  0.65590879  1
  Al  Al17  1  0.89692315  0.52952629  0.06190807  1
  Al  Al18  1  0.41864403  0.43224674  0.90178713  1
  Al  Al19  1  0.13545088  0.76147063  0.41428483  1
  Al  Al20  1  0.77460368  0.75705522  0.84252216  1
  Al  Al21  1  0.44440920  0.76603368  0.41522867  1
  Al  Al22  1  0.55871519  0.85895986  0.13342960  1
  Al  Al23  1  0.11631374  0.75670688  0.89126724  1
  Al  Al24  1  0.22161762  0.88183353  0.65106138  1
  Al  Al25  1  0.88368699  0.86262326  0.05375270  1
  Al  Al26  1  0.43881048  0.77035924  0.89499537  1
  Al  Al27  1  0.54158421  0.87979525  0.66933011  1
  Gd  Gd28  1  0.75762704  0.12683790  0.87779247  1
  Gd  Gd29  1  0.47924626  0.06415729  0.39371213  1
  Gd  Gd30  1  0.16280653  0.40110391  0.42222707  1
  Gd  Gd31  1  0.77075946  0.44081306  0.34076496  1
  Gd  Gd32  1  0.52982332  0.53426151  0.62683870  1
  Gd  Gd33  1  0.22078871  0.86706004  0.15691736  1
  Gd  Gd34  1  0.87560119  0.89322945  0.60937127  1
  Gd  Gd35  1  0.84100315  0.73104443  0.30587434  1
  N  N36  1  0.22860766  0.17222049  0.32940410  1
  N  N37  1  0.10976966  0.11397889  0.07535969  1
  N  N38  1  0.91271635  0.21973406  0.83812228  1
  N  N39  1  0.73954264  0.15236309  0.65043011  1
  N  N40  1  0.56789586  0.22572369  0.31598411  1
  N  N41  1  0.44506324  0.09329690  0.09272426  1
  N  N42  1  0.22162106  0.19946901  0.84212194  1
  N  N43  1  0.10194142  0.10057872  0.59041055  1
  N  N44  1  0.92000354  0.17656677  0.31437284  1
  N  N45  1  0.78475757  0.08552761  0.11182564  1
  N  N46  1  0.49742748  0.23146778  0.83855117  1
  N  N47  1  0.43955086  0.08929287  0.60802956  1
  N  N48  1  0.22752007  0.56732154  0.32310655  1
  N  N49  1  0.10601727  0.43090250  0.12715249  1
  N  N50  1  0.89164845  0.53816954  0.88543825  1
  N  N51  1  0.78895532  0.43263219  0.64741494  1
  N  N52  1  0.52977375  0.55095374  0.41136217  1
  N  N53  1  0.43928481  0.42864735  0.07908066  1
  N  N54  1  0.21544278  0.54776708  0.83303849  1
  N  N55  1  0.10442741  0.42550413  0.64902915  1
  N  N56  1  0.90812884  0.53435756  0.43047126  1
  N  N57  1  0.77817732  0.42994188  0.11583811  1
  N  N58  1  0.55605976  0.53033858  0.87170867  1
  N  N59  1  0.39719761  0.40065694  0.56278551  1
  N  N60  1  0.23047180  0.87244276  0.36832554  1
  N  N61  1  0.10521943  0.74266230  0.06999743  1
  N  N62  1  0.88977867  0.86184196  0.87051496  1
  N  N63  1  0.76440381  0.75276568  0.66113718  1
  N  N64  1  0.57205056  0.82274493  0.31530708  1
  N  N65  1  0.46292348  0.75006575  0.06995224  1
  N  N66  1  0.21773218  0.87588910  0.83883574  1
  N  N67  1  0.15030515  0.74243669  0.59525926  1
  N  N68  1  0.90202123  0.89573071  0.39319179  1
  N  N69  1  0.77884715  0.75689275  0.09400811  1
  N  N70  1  0.54178763  0.88166128  0.84982342  1
  N  N71  1  0.43098325  0.79718970  0.59623065  1
