# generated using pymatgen
data_Gd2Al7N9
_symmetry_space_group_name_H-M   'P 1'
_cell_length_a   9.88203537
_cell_length_b   9.88376611
_cell_length_c   10.75817513
_cell_angle_alpha   91.53050693
_cell_angle_beta   91.43033714
_cell_angle_gamma   59.80801625
_symmetry_Int_Tables_number   1
_chemical_formula_structural   Gd2Al7N9
_chemical_formula_sum   'Gd8 Al28 N36'
_cell_volume   907.82272867
_cell_formula_units_Z   4
loop_
 _symmetry_equiv_pos_site_id
 _symmetry_equiv_pos_as_xyz
  1  'x, y, z'
loop_
 _atom_site_type_symbol
 _atom_site_label
 _atom_site_symmetry_multiplicity
 _atom_site_fract_x
 _atom_site_fract_y
 _atom_site_fract_z
 _atom_site_occupancy
  Al  Al0  1  0.11372852  0.07265977  0.41142321  1
  Al  Al1  1  0.23294876  0.21618222  0.03666231  1
  Al  Al2  1  0.87746419  0.20705350  0.57162273  1
  Al  Al3  1  0.56305981  0.22048128  0.11959812  1
  Al  Al4  1  0.11420503  0.09854046  0.83361890  1
  Al  Al5  1  0.21645167  0.20492701  0.57839614  1
  Al  Al6  1  0.80607363  0.08266617  0.29824385  1
  Al  Al7  1  0.90651775  0.22121832  0.04805821  1
  Al  Al8  1  0.43193027  0.09526345  0.80067811  1
  Al  Al9  1  0.52952631  0.21328171  0.63084325  1
  Al  Al10  1  0.22917458  0.54431193  0.11585165  1
  Al  Al11  1  0.79382863  0.42697537  0.80504436  1
  Al  Al12  1  0.88507995  0.52952171  0.56949455  1
  Al  Al13  1  0.43357903  0.43068074  0.37439176  1
  Al  Al14  1  0.57448774  0.53843098  0.03286137  1
  Al  Al15  1  0.10758756  0.42878005  0.80692029  1
  Al  Al16  1  0.21740110  0.52742789  0.62332821  1
  Al  Al17  1  0.89676785  0.54262668  0.03476064  1
  Al  Al18  1  0.42478488  0.43320653  0.87580744  1
  Al  Al19  1  0.13170215  0.74950729  0.38136332  1
  Al  Al20  1  0.77706757  0.75417004  0.80624588  1
  Al  Al21  1  0.42539436  0.76780381  0.41390692  1
  Al  Al22  1  0.56691080  0.88514174  0.03397021  1
  Al  Al23  1  0.11998373  0.75074706  0.87167445  1
  Al  Al24  1  0.21974074  0.86789979  0.63987303  1
  Al  Al25  1  0.89612506  0.86380958  0.04141032  1
  Al  Al26  1  0.44405578  0.76853667  0.86482007  1
  Al  Al27  1  0.55211011  0.87001972  0.57727847  1
  Gd  Gd28  1  0.76255113  0.11158153  0.84217197  1
  Gd  Gd29  1  0.44725881  0.09737290  0.33004077  1
  Gd  Gd30  1  0.10631997  0.40825261  0.30206573  1
  Gd  Gd31  1  0.75163708  0.41665160  0.31151863  1
  Gd  Gd32  1  0.53584069  0.52683274  0.61086595  1
  Gd  Gd33  1  0.23401010  0.87737815  0.13170497  1
  Gd  Gd34  1  0.88208894  0.87713896  0.57405509  1
  Gd  Gd35  1  0.77417381  0.75471066  0.29664991  1
  N  N36  1  0.21288059  0.18738871  0.40426853  1
  N  N37  1  0.11736731  0.12467781  0.08164078  1
  N  N38  1  0.90451627  0.22633321  0.87025251  1
  N  N39  1  0.74751545  0.13282738  0.62563475  1
  N  N40  1  0.58436289  0.23451948  0.29523359  1
  N  N41  1  0.45294120  0.10025720  0.10008496  1
  N  N42  1  0.22355577  0.20847259  0.85502492  1
  N  N43  1  0.10215284  0.08796900  0.60770670  1
  N  N44  1  0.89927065  0.17632325  0.39244013  1
  N  N45  1  0.80021133  0.09230720  0.09470041  1
  N  N46  1  0.50580307  0.23584059  0.80941913  1
  N  N47  1  0.43772641  0.08488218  0.62092913  1
  N  N48  1  0.23302143  0.55074104  0.29643687  1
  N  N49  1  0.11708806  0.43380046  0.08404669  1
  N  N50  1  0.89134524  0.54113089  0.85903066  1
  N  N51  1  0.79894841  0.41264497  0.62834655  1
  N  N52  1  0.52139439  0.55575335  0.39338417  1
  N  N53  1  0.44957554  0.43331370  0.05377346  1
  N  N54  1  0.22250586  0.54507231  0.80574472  1
  N  N55  1  0.09988655  0.42288969  0.62685587  1
  N  N56  1  0.88178876  0.53172679  0.39343057  1
  N  N57  1  0.78371080  0.43900218  0.09546260  1
  N  N58  1  0.56158837  0.53298276  0.84648795  1
  N  N59  1  0.40640616  0.39240651  0.54251382  1
  N  N60  1  0.22308397  0.87181894  0.34653709  1
  N  N61  1  0.11603162  0.74667300  0.04926301  1
  N  N62  1  0.89812634  0.85017190  0.85183038  1
  N  N63  1  0.76345042  0.74302996  0.62966424  1
  N  N64  1  0.54944712  0.86049420  0.39582701  1
  N  N65  1  0.47389086  0.75729296  0.04488173  1
  N  N66  1  0.21994943  0.87109833  0.82166449  1
  N  N67  1  0.14899671  0.73274823  0.56508138  1
  N  N68  1  0.90466993  0.87570494  0.35725042  1
  N  N69  1  0.78318532  0.76461921  0.08218618  1
  N  N70  1  0.55673911  0.88381262  0.85443943  1
  N  N71  1  0.42411703  0.78636569  0.59520123  1
