# generated using pymatgen
data_Gd2Al7N9
_symmetry_space_group_name_H-M   'P 1'
_cell_length_a   9.79897562
_cell_length_b   9.94036689
_cell_length_c   10.77363417
_cell_angle_alpha   89.89768659
_cell_angle_beta   89.65789004
_cell_angle_gamma   58.96128807
_symmetry_Int_Tables_number   1
_chemical_formula_structural   Gd2Al7N9
_chemical_formula_sum   'Gd8 Al28 N36'
_cell_volume   899.13774298
_cell_formula_units_Z   4
loop_
 _symmetry_equiv_pos_site_id
 _symmetry_equiv_pos_as_xyz
  1  'x, y, z'
loop_
 _atom_site_type_symbol
 _atom_site_label
 _atom_site_symmetry_multiplicity
 _atom_site_fract_x
 _atom_site_fract_y
 _atom_site_fract_z
 _atom_site_occupancy
  Al  Al0  1  0.12041268  0.08410579  0.41125046  1
  Al  Al1  1  0.21413036  0.21214133  0.15764750  1
  Al  Al2  1  0.88523764  0.21474662  0.61504575  1
  Al  Al3  1  0.54861406  0.21496885  0.14061767  1
  Al  Al4  1  0.11854871  0.09753313  0.90427490  1
  Al  Al5  1  0.22421212  0.19055491  0.66571614  1
  Al  Al6  1  0.80054847  0.09200119  0.31051289  1
  Al  Al7  1  0.89042688  0.21899588  0.07428104  1
  Al  Al8  1  0.42650907  0.10183181  0.90913328  1
  Al  Al9  1  0.51955298  0.21837911  0.65884754  1
  Al  Al10  1  0.21515139  0.54087368  0.14894359  1
  Al  Al11  1  0.78636173  0.43106749  0.83800378  1
  Al  Al12  1  0.88227482  0.54026515  0.60525815  1
  Al  Al13  1  0.44668131  0.43124545  0.39165697  1
  Al  Al14  1  0.56053785  0.53484025  0.05987441  1
  Al  Al15  1  0.10644216  0.42785999  0.83166748  1
  Al  Al16  1  0.21757547  0.53921051  0.65621611  1
  Al  Al17  1  0.89497145  0.53398311  0.06184175  1
  Al  Al18  1  0.41836984  0.43372187  0.90188937  1
  Al  Al19  1  0.13722075  0.76070645  0.41403496  1
  Al  Al20  1  0.77452982  0.75482661  0.84364120  1
  Al  Al21  1  0.44970689  0.76332158  0.41546776  1
  Al  Al22  1  0.55585861  0.86240600  0.13507061  1
  Al  Al23  1  0.11640359  0.75504209  0.89322781  1
  Al  Al24  1  0.22245983  0.87993504  0.65400900  1
  Al  Al25  1  0.88264274  0.86444821  0.05482619  1
  Al  Al26  1  0.43673777  0.77233183  0.89680540  1
  Al  Al27  1  0.54199417  0.87895742  0.67095062  1
  Gd  Gd28  1  0.75592212  0.11683281  0.86612880  1
  Gd  Gd29  1  0.48248299  0.06504411  0.39434624  1
  Gd  Gd30  1  0.16184272  0.40317319  0.42281840  1
  Gd  Gd31  1  0.77929307  0.43409122  0.32910109  1
  Gd  Gd32  1  0.53579958  0.53380437  0.62729300  1
  Gd  Gd33  1  0.21502218  0.87095229  0.16062533  1
  Gd  Gd34  1  0.87444431  0.88734180  0.60201993  1
  Gd  Gd35  1  0.84310106  0.72482814  0.30422521  1
  N  N36  1  0.23028896  0.17282299  0.33380120  1
  N  N37  1  0.11418500  0.11332528  0.08161482  1
  N  N38  1  0.89804600  0.22571331  0.89349688  1
  N  N39  1  0.74389959  0.14706125  0.65018036  1
  N  N40  1  0.56931952  0.22701663  0.31468499  1
  N  N41  1  0.44370526  0.09687765  0.09303389  1
  N  N42  1  0.21745433  0.20150687  0.84226433  1
  N  N43  1  0.10900907  0.09640352  0.59803270  1
  N  N44  1  0.90975974  0.18256068  0.36643874  1
  N  N45  1  0.78807512  0.08814294  0.11129913  1
  N  N46  1  0.49301593  0.23420220  0.83724325  1
  N  N47  1  0.44309059  0.08751589  0.60880460  1
  N  N48  1  0.23269838  0.56677536  0.32455685  1
  N  N49  1  0.09907678  0.43582308  0.13781827  1
  N  N50  1  0.89208010  0.53742497  0.88677067  1
  N  N51  1  0.79969720  0.42003193  0.66170325  1
  N  N52  1  0.53981680  0.54735854  0.41374613  1
  N  N53  1  0.43755133  0.42919548  0.07846478  1
  N  N54  1  0.21551185  0.54810051  0.83249690  1
  N  N55  1  0.10740871  0.42415824  0.64898951  1
  N  N56  1  0.90514391  0.53240198  0.43450369  1
  N  N57  1  0.77302196  0.43573881  0.11202585  1
  N  N58  1  0.55127976  0.53586371  0.87263683  1
  N  N59  1  0.40149006  0.40178656  0.56431356  1
  N  N60  1  0.23411870  0.87133130  0.37076331  1
  N  N61  1  0.10496779  0.74190979  0.07122263  1
  N  N62  1  0.89173280  0.85572686  0.87217117  1
  N  N63  1  0.76542607  0.74768100  0.66370573  1
  N  N64  1  0.57159600  0.82639561  0.31515301  1
  N  N65  1  0.45793863  0.75495900  0.07139040  1
  N  N66  1  0.21534062  0.87725771  0.84016976  1
  N  N67  1  0.14818484  0.74334954  0.59511640  1
  N  N68  1  0.90230112  0.89142391  0.38775688  1
  N  N69  1  0.77624502  0.75945818  0.09427432  1
  N  N70  1  0.53963124  0.88432534  0.85057043  1
  N  N71  1  0.43281706  0.79535999  0.59734055  1
