# generated using pymatgen
data_Gd2Al7N9
_symmetry_space_group_name_H-M   'P 1'
_cell_length_a   9.84784925
_cell_length_b   9.86027172
_cell_length_c   10.74327927
_cell_angle_alpha   92.15304285
_cell_angle_beta   91.86953653
_cell_angle_gamma   59.98137051
_symmetry_Int_Tables_number   1
_chemical_formula_structural   Gd2Al7N9
_chemical_formula_sum   'Gd8 Al28 N36'
_cell_volume   902.51418772
_cell_formula_units_Z   4
loop_
 _symmetry_equiv_pos_site_id
 _symmetry_equiv_pos_as_xyz
  1  'x, y, z'
loop_
 _atom_site_type_symbol
 _atom_site_label
 _atom_site_symmetry_multiplicity
 _atom_site_fract_x
 _atom_site_fract_y
 _atom_site_fract_z
 _atom_site_occupancy
  Al  Al0  1  0.11430635  0.07037826  0.40636389  1
  Al  Al1  1  0.23275365  0.21855431  0.03223377  1
  Al  Al2  1  0.87656204  0.20609263  0.57063560  1
  Al  Al3  1  0.56310394  0.22349494  0.11939069  1
  Al  Al4  1  0.11057981  0.10238508  0.80370133  1
  Al  Al5  1  0.21937082  0.20667987  0.57760339  1
  Al  Al6  1  0.80701933  0.07775806  0.29718083  1
  Al  Al7  1  0.91260340  0.22916024  0.05117761  1
  Al  Al8  1  0.43355568  0.09405191  0.80061210  1
  Al  Al9  1  0.53121205  0.21220814  0.63266677  1
  Al  Al10  1  0.22878267  0.54668807  0.11452063  1
  Al  Al11  1  0.79408838  0.42765292  0.80522504  1
  Al  Al12  1  0.88829686  0.52459220  0.56750690  1
  Al  Al13  1  0.42737174  0.42736367  0.37468578  1
  Al  Al14  1  0.57372868  0.54470156  0.03350990  1
  Al  Al15  1  0.10887490  0.43018265  0.81336230  1
  Al  Al16  1  0.21693097  0.52518939  0.62407080  1
  Al  Al17  1  0.89517890  0.55083150  0.02939418  1
  Al  Al18  1  0.42621761  0.43469577  0.87677109  1
  Al  Al19  1  0.12961977  0.74174731  0.37739569  1
  Al  Al20  1  0.77675923  0.75602102  0.80263664  1
  Al  Al21  1  0.42406903  0.76459305  0.41093032  1
  Al  Al22  1  0.56783080  0.88882069  0.03246682  1
  Al  Al23  1  0.12099504  0.75315234  0.87210644  1
  Al  Al24  1  0.22138322  0.86154277  0.63674288  1
  Al  Al25  1  0.89752136  0.86709375  0.04272293  1
  Al  Al26  1  0.44260296  0.77130491  0.86409063  1
  Al  Al27  1  0.55263850  0.86869284  0.57386656  1
  Gd  Gd28  1  0.76518203  0.11358151  0.84530196  1
  Gd  Gd29  1  0.44853962  0.09482991  0.32744033  1
  Gd  Gd30  1  0.09728729  0.38674064  0.28122045  1
  Gd  Gd31  1  0.74497111  0.41032016  0.30925830  1
  Gd  Gd32  1  0.53569099  0.52618591  0.61001266  1
  Gd  Gd33  1  0.23025876  0.89028372  0.13154448  1
  Gd  Gd34  1  0.88217180  0.87684101  0.57251155  1
  Gd  Gd35  1  0.77627263  0.74408325  0.29573984  1
  N  N36  1  0.21491045  0.18403888  0.40562571  1
  N  N37  1  0.11297691  0.15182630  0.11712377  1
  N  N38  1  0.91248193  0.22682810  0.87354644  1
  N  N39  1  0.74903920  0.13195083  0.62832369  1
  N  N40  1  0.58545068  0.23244903  0.29583545  1
  N  N41  1  0.45266054  0.10420255  0.09677960  1
  N  N42  1  0.22410799  0.20351063  0.85314409  1
  N  N43  1  0.10218329  0.08772782  0.61449297  1
  N  N44  1  0.90007162  0.17161833  0.39420225  1
  N  N45  1  0.80354449  0.09591025  0.09666184  1
  N  N46  1  0.50732994  0.23559183  0.81162128  1
  N  N47  1  0.44016066  0.08289184  0.62057506  1
  N  N48  1  0.22640430  0.53931950  0.29424220  1
  N  N49  1  0.11852469  0.44044783  0.06465273  1
  N  N50  1  0.88814054  0.54565792  0.85547078  1
  N  N51  1  0.79895766  0.41094235  0.62837509  1
  N  N52  1  0.51623200  0.55300624  0.39171712  1
  N  N53  1  0.45209971  0.43666952  0.05546576  1
  N  N54  1  0.22418175  0.54684464  0.80636961  1
  N  N55  1  0.10036275  0.42066756  0.63127680  1
  N  N56  1  0.88478786  0.51880529  0.39089706  1
  N  N57  1  0.78377011  0.44830980  0.09653823  1
  N  N58  1  0.56216204  0.53447166  0.84690240  1
  N  N59  1  0.40684154  0.38980785  0.54409389  1
  N  N60  1  0.22071601  0.86695378  0.34389627  1
  N  N61  1  0.11782473  0.75222116  0.05101439  1
  N  N62  1  0.89850057  0.85215353  0.85217849  1
  N  N63  1  0.76454022  0.74150864  0.62536453  1
  N  N64  1  0.54875465  0.85715750  0.39167604  1
  N  N65  1  0.47062632  0.76424688  0.04487227  1
  N  N66  1  0.21936868  0.87263714  0.81892936  1
  N  N67  1  0.14889815  0.72870537  0.56204532  1
  N  N68  1  0.90243516  0.87168602  0.35555386  1
  N  N69  1  0.78305164  0.76975120  0.08216539  1
  N  N70  1  0.55816151  0.88337704  0.85277501  1
  N  N71  1  0.42387455  0.78561637  0.59168915  1
