# generated using pymatgen
data_Gd2Al7N9
_symmetry_space_group_name_H-M   'P 1'
_cell_length_a   9.94812747
_cell_length_b   9.92980081
_cell_length_c   10.56151376
_cell_angle_alpha   89.82931672
_cell_angle_beta   90.49972962
_cell_angle_gamma   59.38332010
_symmetry_Int_Tables_number   1
_chemical_formula_structural   Gd2Al7N9
_chemical_formula_sum   'Gd8 Al28 N36'
_cell_volume   897.78757902
_cell_formula_units_Z   4
loop_
 _symmetry_equiv_pos_site_id
 _symmetry_equiv_pos_as_xyz
  1  'x, y, z'
loop_
 _atom_site_type_symbol
 _atom_site_label
 _atom_site_symmetry_multiplicity
 _atom_site_fract_x
 _atom_site_fract_y
 _atom_site_fract_z
 _atom_site_occupancy
  Al  Al0  1  0.11397318  0.08728360  0.40403377  1
  Al  Al1  1  0.21958551  0.20729755  0.14375310  1
  Al  Al2  1  0.89193215  0.21942729  0.65840508  1
  Al  Al3  1  0.55097983  0.21194494  0.14233774  1
  Al  Al4  1  0.11694967  0.09970442  0.89761975  1
  Al  Al5  1  0.21818714  0.20261536  0.66671907  1
  Al  Al6  1  0.79971462  0.08365755  0.31293373  1
  Al  Al7  1  0.90611133  0.20438412  0.13652027  1
  Al  Al8  1  0.43350550  0.09813945  0.90654655  1
  Al  Al9  1  0.52575741  0.21521139  0.66117484  1
  Al  Al10  1  0.21975158  0.53990934  0.14268619  1
  Al  Al11  1  0.78856948  0.42679700  0.89619032  1
  Al  Al12  1  0.88620030  0.53407343  0.65243579  1
  Al  Al13  1  0.43798457  0.43211071  0.39438558  1
  Al  Al14  1  0.55984426  0.53242752  0.06919988  1
  Al  Al15  1  0.11934648  0.42270114  0.89361382  1
  Al  Al16  1  0.21740092  0.53203084  0.66051704  1
  Al  Al17  1  0.89636060  0.53669590  0.08811422  1
  Al  Al18  1  0.42393787  0.43054647  0.90291941  1
  Al  Al19  1  0.13514481  0.75822226  0.41547535  1
  Al  Al20  1  0.77302640  0.75941237  0.84437506  1
  Al  Al21  1  0.43703193  0.76895925  0.41758662  1
  Al  Al22  1  0.55184520  0.86520494  0.13489750  1
  Al  Al23  1  0.11808047  0.75494415  0.89204876  1
  Al  Al24  1  0.22300257  0.88032944  0.65081469  1
  Al  Al25  1  0.88732769  0.86075574  0.06019920  1
  Al  Al26  1  0.43991110  0.76947449  0.89454895  1
  Al  Al27  1  0.54004662  0.88177007  0.66855782  1
  Gd  Gd28  1  0.76190640  0.12302114  0.87780110  1
  Gd  Gd29  1  0.46068474  0.08245282  0.39553268  1
  Gd  Gd30  1  0.13948102  0.41595179  0.41354968  1
  Gd  Gd31  1  0.77328145  0.41961173  0.37871153  1
  Gd  Gd32  1  0.53775138  0.53168130  0.63267119  1
  Gd  Gd33  1  0.22289589  0.86754688  0.15907298  1
  Gd  Gd34  1  0.88263976  0.89062504  0.61412145  1
  Gd  Gd35  1  0.79765661  0.76257876  0.32416739  1
  N  N36  1  0.21907415  0.18243836  0.32383402  1
  N  N37  1  0.10917676  0.11304160  0.07436810  1
  N  N38  1  0.91253733  0.22536975  0.83744355  1
  N  N39  1  0.74331509  0.14987850  0.65221633  1
  N  N40  1  0.57471596  0.22377217  0.32005366  1
  N  N41  1  0.44588933  0.09362410  0.09349567  1
  N  N42  1  0.22351566  0.20223486  0.84698197  1
  N  N43  1  0.10410523  0.10068550  0.59389044  1
  N  N44  1  0.92408690  0.17019231  0.31190849  1
  N  N45  1  0.78517937  0.08356875  0.11276782  1
  N  N46  1  0.50460461  0.22877235  0.84335223  1
  N  N47  1  0.43702697  0.09239141  0.61323704  1
  N  N48  1  0.23153619  0.56193583  0.32066731  1
  N  N49  1  0.12317486  0.42245171  0.08269710  1
  N  N50  1  0.89058448  0.54078242  0.87900427  1
  N  N51  1  0.79637484  0.42322175  0.59902238  1
  N  N52  1  0.52023760  0.55731448  0.40866737  1
  N  N53  1  0.44137907  0.42809632  0.08299070  1
  N  N54  1  0.21869219  0.54286818  0.84048480  1
  N  N55  1  0.10161243  0.42863523  0.63356071  1
  N  N56  1  0.91304394  0.52131010  0.33677385  1
  N  N57  1  0.78211166  0.42110992  0.08611568  1
  N  N58  1  0.55668268  0.52999367  0.87385817  1
  N  N59  1  0.40314567  0.40193532  0.57128448  1
  N  N60  1  0.22618540  0.87404476  0.37231325  1
  N  N61  1  0.10594900  0.74429016  0.07227174  1
  N  N62  1  0.89221597  0.85850293  0.87220808  1
  N  N63  1  0.76214298  0.75183494  0.65576731  1
  N  N64  1  0.54170155  0.84615137  0.31801165  1
  N  N65  1  0.46364488  0.74985289  0.07212699  1
  N  N66  1  0.21893954  0.87580966  0.84101234  1
  N  N67  1  0.15240575  0.73808197  0.60007876  1
  N  N68  1  0.91106887  0.89298843  0.39870730  1
  N  N69  1  0.77698324  0.76098918  0.10538904  1
  N  N70  1  0.54539315  0.88038848  0.85197596  1
  N  N71  1  0.43065826  0.79566863  0.60114160  1
