# generated using pymatgen
data_Gd2Al7N9
_symmetry_space_group_name_H-M   'P 1'
_cell_length_a   9.84916087
_cell_length_b   9.89156018
_cell_length_c   10.60389082
_cell_angle_alpha   91.33894361
_cell_angle_beta   90.99830781
_cell_angle_gamma   60.15588313
_symmetry_Int_Tables_number   1
_chemical_formula_structural   Gd2Al7N9
_chemical_formula_sum   'Gd8 Al28 N36'
_cell_volume   895.80123181
_cell_formula_units_Z   4
loop_
 _symmetry_equiv_pos_site_id
 _symmetry_equiv_pos_as_xyz
  1  'x, y, z'
loop_
 _atom_site_type_symbol
 _atom_site_label
 _atom_site_symmetry_multiplicity
 _atom_site_fract_x
 _atom_site_fract_y
 _atom_site_fract_z
 _atom_site_occupancy
  Al  Al0  1  0.11265093  0.08922052  0.31802340  1
  Al  Al1  1  0.23169908  0.21749684  0.04795456  1
  Al  Al2  1  0.89117922  0.19567970  0.56315071  1
  Al  Al3  1  0.56166179  0.22157763  0.12051286  1
  Al  Al4  1  0.10865460  0.10695296  0.81198300  1
  Al  Al5  1  0.21053149  0.19805977  0.57483936  1
  Al  Al6  1  0.80466288  0.08453342  0.29097466  1
  Al  Al7  1  0.90211748  0.22896055  0.05706778  1
  Al  Al8  1  0.43464244  0.09206590  0.80381442  1
  Al  Al9  1  0.53626812  0.20988512  0.62884676  1
  Al  Al10  1  0.23255468  0.53767204  0.10511175  1
  Al  Al11  1  0.79038871  0.42717365  0.80607262  1
  Al  Al12  1  0.88799465  0.52469705  0.57394784  1
  Al  Al13  1  0.42684401  0.43885875  0.36832288  1
  Al  Al14  1  0.57039220  0.54840687  0.04443506  1
  Al  Al15  1  0.11047179  0.42252882  0.81832871  1
  Al  Al16  1  0.22047093  0.52194830  0.63083848  1
  Al  Al17  1  0.89346577  0.54516360  0.03321536  1
  Al  Al18  1  0.43398766  0.43000456  0.87710815  1
  Al  Al19  1  0.11668957  0.76227494  0.30577589  1
  Al  Al20  1  0.77560991  0.75390946  0.80754789  1
  Al  Al21  1  0.43594640  0.76237033  0.31041826  1
  Al  Al22  1  0.56480901  0.88253764  0.04876255  1
  Al  Al23  1  0.11787342  0.74620423  0.86268221  1
  Al  Al24  1  0.21610877  0.87017779  0.64431543  1
  Al  Al25  1  0.89371008  0.86408964  0.04314071  1
  Al  Al26  1  0.44905323  0.76949898  0.81696011  1
  Al  Al27  1  0.54656400  0.86282424  0.57109469  1
  Gd  Gd28  1  0.77453779  0.10511007  0.83563566  1
  Gd  Gd29  1  0.45464727  0.10493088  0.35438207  1
  Gd  Gd30  1  0.10257062  0.40645357  0.29525657  1
  Gd  Gd31  1  0.75234327  0.41267800  0.31400260  1
  Gd  Gd32  1  0.53233538  0.53693514  0.59362337  1
  Gd  Gd33  1  0.22819471  0.89352410  0.07651342  1
  Gd  Gd34  1  0.89357811  0.86422240  0.56056087  1
  Gd  Gd35  1  0.76589065  0.74894906  0.29411271  1
  N  N36  1  0.21074365  0.18582420  0.39940680  1
  N  N37  1  0.10010018  0.15463602  0.13850151  1
  N  N38  1  0.90989833  0.22825844  0.88017121  1
  N  N39  1  0.75716719  0.11996576  0.61653872  1
  N  N40  1  0.58716544  0.24230999  0.29614124  1
  N  N41  1  0.45008550  0.10197409  0.11129230  1
  N  N42  1  0.22750295  0.19920711  0.86667504  1
  N  N43  1  0.10165483  0.09079705  0.63290183  1
  N  N44  1  0.91172900  0.16684817  0.38302362  1
  N  N45  1  0.80027684  0.09328080  0.09420051  1
  N  N46  1  0.51532778  0.23004773  0.81027309  1
  N  N47  1  0.43922023  0.08239659  0.61688133  1
  N  N48  1  0.23114049  0.54595950  0.28676304  1
  N  N49  1  0.11474559  0.43617585  0.07250682  1
  N  N50  1  0.88870406  0.54089653  0.85657912  1
  N  N51  1  0.79742711  0.40509219  0.62520140  1
  N  N52  1  0.51148150  0.56900280  0.38221497  1
  N  N53  1  0.45284681  0.43238612  0.05543020  1
  N  N54  1  0.22791059  0.53376272  0.81741598  1
  N  N55  1  0.10348083  0.41496246  0.63253467  1
  N  N56  1  0.88251548  0.52894568  0.39565819  1
  N  N57  1  0.78189674  0.44381909  0.10000912  1
  N  N58  1  0.55974011  0.54389335  0.85570873  1
  N  N59  1  0.40851432  0.39214177  0.54085158  1
  N  N60  1  0.21831578  0.87371964  0.29924065  1
  N  N61  1  0.11217012  0.74735920  0.05925502  1
  N  N62  1  0.89757460  0.84733210  0.85581902  1
  N  N63  1  0.76069627  0.74207929  0.62764826  1
  N  N64  1  0.53750637  0.85943946  0.39207106  1
  N  N65  1  0.48911311  0.75174144  0.12182795  1
  N  N66  1  0.21693323  0.87685603  0.84303792  1
  N  N67  1  0.14785186  0.73308852  0.60099472  1
  N  N68  1  0.90030266  0.87361985  0.33759356  1
  N  N69  1  0.78351272  0.76291955  0.08130965  1
  N  N70  1  0.55381079  0.88118310  0.86837433  1
  N  N71  1  0.42883716  0.78813200  0.64288288  1
