# generated using pymatgen
data_Gd2Al7N9
_symmetry_space_group_name_H-M   'P 1'
_cell_length_a   9.90985067
_cell_length_b   9.90754360
_cell_length_c   10.58713929
_cell_angle_alpha   91.06174053
_cell_angle_beta   91.24059834
_cell_angle_gamma   59.83208208
_symmetry_Int_Tables_number   1
_chemical_formula_structural   Gd2Al7N9
_chemical_formula_sum   'Gd8 Al28 N36'
_cell_volume   898.43404569
_cell_formula_units_Z   4
loop_
 _symmetry_equiv_pos_site_id
 _symmetry_equiv_pos_as_xyz
  1  'x, y, z'
loop_
 _atom_site_type_symbol
 _atom_site_label
 _atom_site_symmetry_multiplicity
 _atom_site_fract_x
 _atom_site_fract_y
 _atom_site_fract_z
 _atom_site_occupancy
  Al  Al0  1  0.11060721  0.09326066  0.31869756  1
  Al  Al1  1  0.23014704  0.21499570  0.04932568  1
  Al  Al2  1  0.89267318  0.19806469  0.56232919  1
  Al  Al3  1  0.55928354  0.22069993  0.11975749  1
  Al  Al4  1  0.11034754  0.10173587  0.81162025  1
  Al  Al5  1  0.21023688  0.19714261  0.57272968  1
  Al  Al6  1  0.80540146  0.08475332  0.29528823  1
  Al  Al7  1  0.90491416  0.22459640  0.05721820  1
  Al  Al8  1  0.43092331  0.09552374  0.80153904  1
  Al  Al9  1  0.53319798  0.21038543  0.62953601  1
  Al  Al10  1  0.22843252  0.54267742  0.11359115  1
  Al  Al11  1  0.79840510  0.42161822  0.80530376  1
  Al  Al12  1  0.88720152  0.52744625  0.56930742  1
  Al  Al13  1  0.43131559  0.43643450  0.37062714  1
  Al  Al14  1  0.57319842  0.53885071  0.02814144  1
  Al  Al15  1  0.10999661  0.42409186  0.80924893  1
  Al  Al16  1  0.21965635  0.52409076  0.61920043  1
  Al  Al17  1  0.89410110  0.54351639  0.03569738  1
  Al  Al18  1  0.42637805  0.43070326  0.87322148  1
  Al  Al19  1  0.12910297  0.75738272  0.37305941  1
  Al  Al20  1  0.77743513  0.75395340  0.80552830  1
  Al  Al21  1  0.41948718  0.77256406  0.38452943  1
  Al  Al22  1  0.56527490  0.88424131  0.03380749  1
  Al  Al23  1  0.11666446  0.74730287  0.86841053  1
  Al  Al24  1  0.21986008  0.86625501  0.64381563  1
  Al  Al25  1  0.89281262  0.86284039  0.04117234  1
  Al  Al26  1  0.44892350  0.76724957  0.83825108  1
  Al  Al27  1  0.55010992  0.86381459  0.58287587  1
  Gd  Gd28  1  0.76603028  0.11385084  0.84236180  1
  Gd  Gd29  1  0.45340801  0.10520039  0.35369174  1
  Gd  Gd30  1  0.10521756  0.41485902  0.30347157  1
  Gd  Gd31  1  0.74901592  0.42017213  0.31159597  1
  Gd  Gd32  1  0.54153371  0.52142135  0.60872701  1
  Gd  Gd33  1  0.23120590  0.87563311  0.09600610  1
  Gd  Gd34  1  0.88676827  0.87471611  0.57784043  1
  Gd  Gd35  1  0.76734217  0.76071484  0.29972178  1
  N  N36  1  0.21133630  0.18641685  0.39742600  1
  N  N37  1  0.10372447  0.14344227  0.13608937  1
  N  N38  1  0.91373265  0.22369967  0.88013014  1
  N  N39  1  0.75155901  0.13288857  0.62027344  1
  N  N40  1  0.58648776  0.24167934  0.29508886  1
  N  N41  1  0.45160128  0.09823932  0.10858245  1
  N  N42  1  0.22437446  0.20158438  0.86512683  1
  N  N43  1  0.10367705  0.08920583  0.63042215  1
  N  N44  1  0.90957625  0.17362130  0.38110658  1
  N  N45  1  0.79931442  0.09044380  0.09390237  1
  N  N46  1  0.50845356  0.23232504  0.80924939  1
  N  N47  1  0.43665768  0.08446822  0.61567382  1
  N  N48  1  0.23163731  0.55436925  0.29517666  1
  N  N49  1  0.11512504  0.43428945  0.08302604  1
  N  N50  1  0.89193837  0.53999295  0.85739146  1
  N  N51  1  0.80500819  0.40512980  0.62430702  1
  N  N52  1  0.51591698  0.56397762  0.39290366  1
  N  N53  1  0.44680783  0.43387408  0.05279277  1
  N  N54  1  0.22310560  0.54190248  0.80345755  1
  N  N55  1  0.10321180  0.41737504  0.62424116  1
  N  N56  1  0.87861415  0.53483390  0.39100308  1
  N  N57  1  0.77911792  0.44205253  0.09599801  1
  N  N58  1  0.56803962  0.52228087  0.84345595  1
  N  N59  1  0.40862159  0.38902843  0.53898497  1
  N  N60  1  0.22122454  0.87328108  0.31893559  1
  N  N61  1  0.10978390  0.74212441  0.04730970  1
  N  N62  1  0.89612180  0.85203361  0.84666123  1
  N  N63  1  0.76536260  0.74083415  0.62638845  1
  N  N64  1  0.54128259  0.86073601  0.40090554  1
  N  N65  1  0.47706429  0.75446831  0.03782779  1
  N  N66  1  0.21262461  0.87285523  0.83380137  1
  N  N67  1  0.15471957  0.73293158  0.56057451  1
  N  N68  1  0.90137896  0.87866484  0.35685039  1
  N  N69  1  0.78152894  0.76361336  0.08283533  1
  N  N70  1  0.56089944  0.88620352  0.85331351  1
  N  N71  1  0.43271928  0.78032006  0.64005652  1
