# generated using pymatgen
data_Gd2Al7N9
_symmetry_space_group_name_H-M   'P 1'
_cell_length_a   9.79725944
_cell_length_b   9.90258650
_cell_length_c   10.79847598
_cell_angle_alpha   90.67273031
_cell_angle_beta   90.45160979
_cell_angle_gamma   59.21771188
_symmetry_Int_Tables_number   1
_chemical_formula_structural   Gd2Al7N9
_chemical_formula_sum   'Gd8 Al28 N36'
_cell_volume   899.98991306
_cell_formula_units_Z   4
loop_
 _symmetry_equiv_pos_site_id
 _symmetry_equiv_pos_as_xyz
  1  'x, y, z'
loop_
 _atom_site_type_symbol
 _atom_site_label
 _atom_site_symmetry_multiplicity
 _atom_site_fract_x
 _atom_site_fract_y
 _atom_site_fract_z
 _atom_site_occupancy
  Al  Al0  1  0.12029954  0.08433932  0.41721931  1
  Al  Al1  1  0.21483477  0.21388880  0.15549403  1
  Al  Al2  1  0.87884625  0.21027509  0.58328004  1
  Al  Al3  1  0.55437942  0.21775733  0.14040347  1
  Al  Al4  1  0.12004072  0.09657689  0.90525527  1
  Al  Al5  1  0.21996287  0.18978486  0.66565926  1
  Al  Al6  1  0.79876743  0.09480984  0.31786202  1
  Al  Al7  1  0.89251647  0.21877920  0.07247666  1
  Al  Al8  1  0.42656311  0.10733870  0.90560629  1
  Al  Al9  1  0.51770946  0.21559242  0.65548252  1
  Al  Al10  1  0.21869214  0.54243546  0.14773362  1
  Al  Al11  1  0.79271525  0.42415387  0.83053355  1
  Al  Al12  1  0.87927485  0.53690044  0.60530774  1
  Al  Al13  1  0.44351617  0.43266258  0.39222713  1
  Al  Al14  1  0.56938038  0.53289265  0.05686717  1
  Al  Al15  1  0.10683724  0.42831580  0.83170510  1
  Al  Al16  1  0.21525855  0.53854232  0.65575482  1
  Al  Al17  1  0.89982308  0.53159338  0.06111291  1
  Al  Al18  1  0.42244419  0.43279516  0.90098924  1
  Al  Al19  1  0.13411387  0.76088447  0.41164560  1
  Al  Al20  1  0.77782199  0.75335871  0.84639415  1
  Al  Al21  1  0.44550274  0.76631744  0.42409178  1
  Al  Al22  1  0.55925526  0.87074785  0.11064885  1
  Al  Al23  1  0.11911537  0.75444855  0.89520483  1
  Al  Al24  1  0.21743054  0.87974999  0.65614643  1
  Al  Al25  1  0.88929990  0.86916709  0.05813270  1
  Al  Al26  1  0.43870651  0.76943976  0.89202650  1
  Al  Al27  1  0.54056980  0.87786249  0.67468893  1
  Gd  Gd28  1  0.76303785  0.11394264  0.85265753  1
  Gd  Gd29  1  0.47396271  0.07260695  0.39414206  1
  Gd  Gd30  1  0.15437488  0.41012415  0.42012406  1
  Gd  Gd31  1  0.77243557  0.43558451  0.33447052  1
  Gd  Gd32  1  0.53472173  0.52974429  0.63048556  1
  Gd  Gd33  1  0.23113893  0.86686022  0.16261702  1
  Gd  Gd34  1  0.87052548  0.87972601  0.59507748  1
  Gd  Gd35  1  0.82573907  0.73233062  0.30297653  1
  N  N36  1  0.22038740  0.17781280  0.33222605  1
  N  N37  1  0.11677887  0.11027440  0.08335924  1
  N  N38  1  0.89967429  0.22557594  0.89721589  1
  N  N39  1  0.74171479  0.13980885  0.64095196  1
  N  N40  1  0.56978418  0.22937716  0.31491614  1
  N  N41  1  0.44554356  0.10166362  0.08923591  1
  N  N42  1  0.21710306  0.20240940  0.84261551  1
  N  N43  1  0.10862844  0.09343254  0.60020392  1
  N  N44  1  0.89679817  0.18854375  0.40274544  1
  N  N45  1  0.79336898  0.09185240  0.11845625  1
  N  N46  1  0.49799250  0.23361125  0.83443858  1
  N  N47  1  0.43921034  0.08437860  0.60959666  1
  N  N48  1  0.23417577  0.56603518  0.32307259  1
  N  N49  1  0.10559185  0.43475147  0.13178202  1
  N  N50  1  0.89337109  0.53480219  0.88612380  1
  N  N51  1  0.80043481  0.41058519  0.65487490  1
  N  N52  1  0.53580253  0.55013983  0.41764588  1
  N  N53  1  0.44282761  0.43096847  0.07736625  1
  N  N54  1  0.21825907  0.54719495  0.83214727  1
  N  N55  1  0.10443213  0.42364901  0.64841669  1
  N  N56  1  0.89849721  0.53888199  0.43424801  1
  N  N57  1  0.77881619  0.43508998  0.11784603  1
  N  N58  1  0.55714782  0.53186226  0.86978042  1
  N  N59  1  0.39724142  0.39970529  0.56226600  1
  N  N60  1  0.23055289  0.87330854  0.37361752  1
  N  N61  1  0.11187538  0.74456408  0.07270234  1
  N  N62  1  0.89532755  0.85477839  0.87571661  1
  N  N63  1  0.76267397  0.74355185  0.66800069  1
  N  N64  1  0.56373701  0.83216628  0.32328350  1
  N  N65  1  0.46655116  0.75269083  0.06544576  1
  N  N66  1  0.21564885  0.87647443  0.84091939  1
  N  N67  1  0.14295446  0.74228208  0.59322323  1
  N  N68  1  0.90168972  0.89003682  0.38296976  1
  N  N69  1  0.78135872  0.76137755  0.09108748  1
  N  N70  1  0.54196480  0.88571843  0.85582730  1
  N  N71  1  0.42945689  0.79147178  0.60649938  1
