# generated using pymatgen
data_Gd2Al7N9
_symmetry_space_group_name_H-M   'P 1'
_cell_length_a   9.85253533
_cell_length_b   9.86502196
_cell_length_c   10.74180741
_cell_angle_alpha   91.83709836
_cell_angle_beta   91.74702451
_cell_angle_gamma   59.95736304
_symmetry_Int_Tables_number   1
_chemical_formula_structural   Gd2Al7N9
_chemical_formula_sum   'Gd8 Al28 N36'
_cell_volume   903.19921918
_cell_formula_units_Z   4
loop_
 _symmetry_equiv_pos_site_id
 _symmetry_equiv_pos_as_xyz
  1  'x, y, z'
loop_
 _atom_site_type_symbol
 _atom_site_label
 _atom_site_symmetry_multiplicity
 _atom_site_fract_x
 _atom_site_fract_y
 _atom_site_fract_z
 _atom_site_occupancy
  Al  Al0  1  0.11262239  0.07600206  0.37821387  1
  Al  Al1  1  0.23152791  0.21728584  0.03290652  1
  Al  Al2  1  0.88153298  0.20405580  0.56650821  1
  Al  Al3  1  0.56292817  0.22259032  0.11530656  1
  Al  Al4  1  0.11073516  0.10207244  0.80262214  1
  Al  Al5  1  0.21575977  0.20326869  0.57407817  1
  Al  Al6  1  0.80578601  0.07938135  0.29281431  1
  Al  Al7  1  0.91165805  0.22697710  0.04996223  1
  Al  Al8  1  0.43256428  0.09452753  0.79765104  1
  Al  Al9  1  0.53093488  0.21207248  0.62832444  1
  Al  Al10  1  0.22888944  0.54545727  0.11054327  1
  Al  Al11  1  0.79532906  0.42610847  0.80183986  1
  Al  Al12  1  0.88779956  0.52561775  0.56481308  1
  Al  Al13  1  0.42867211  0.42907369  0.37082624  1
  Al  Al14  1  0.57445700  0.54198632  0.02899449  1
  Al  Al15  1  0.10910720  0.42842957  0.80837581  1
  Al  Al16  1  0.21716628  0.52507610  0.61960143  1
  Al  Al17  1  0.89513568  0.54872511  0.02696701  1
  Al  Al18  1  0.42605235  0.43366819  0.87224394  1
  Al  Al19  1  0.12967205  0.74447896  0.37370074  1
  Al  Al20  1  0.77681862  0.75551205  0.79954304  1
  Al  Al21  1  0.42338996  0.76688011  0.40731722  1
  Al  Al22  1  0.56804791  0.88737361  0.02889639  1
  Al  Al23  1  0.12071989  0.75161420  0.86750229  1
  Al  Al24  1  0.22008328  0.86474832  0.63358058  1
  Al  Al25  1  0.89686851  0.86596276  0.03824664  1
  Al  Al26  1  0.44386687  0.76967290  0.85966545  1
  Al  Al27  1  0.55175544  0.86972448  0.57126188  1
  Gd  Gd28  1  0.76584633  0.11344851  0.84002092  1
  Gd  Gd29  1  0.44821394  0.09688583  0.32495042  1
  Gd  Gd30  1  0.09882857  0.39468015  0.28254378  1
  Gd  Gd31  1  0.74568775  0.41350312  0.30634283  1
  Gd  Gd32  1  0.53636523  0.52619690  0.60620595  1
  Gd  Gd33  1  0.23247731  0.88425814  0.12240349  1
  Gd  Gd34  1  0.88221792  0.87701983  0.56899751  1
  Gd  Gd35  1  0.77473517  0.74791635  0.29238999  1
  N  N36  1  0.21376994  0.18606015  0.40163442  1
  N  N37  1  0.11198996  0.14817558  0.11979165  1
  N  N38  1  0.91293573  0.22611166  0.87292529  1
  N  N39  1  0.74951093  0.13238103  0.62312508  1
  N  N40  1  0.58490752  0.23418056  0.29166465  1
  N  N41  1  0.45300676  0.10219660  0.09489829  1
  N  N42  1  0.22411058  0.20327255  0.85357757  1
  N  N43  1  0.10134273  0.09015846  0.61869231  1
  N  N44  1  0.90040009  0.17253696  0.38881265  1
  N  N45  1  0.80278880  0.09432650  0.09308046  1
  N  N46  1  0.50783665  0.23478152  0.80751684  1
  N  N47  1  0.43818336  0.08391745  0.61732993  1
  N  N48  1  0.22773900  0.54257363  0.29089118  1
  N  N49  1  0.11769284  0.43866070  0.06589138  1
  N  N50  1  0.88912321  0.54431095  0.85257863  1
  N  N51  1  0.79988961  0.41006609  0.62456782  1
  N  N52  1  0.51660965  0.55515285  0.38800652  1
  N  N53  1  0.45109072  0.43561087  0.05081344  1
  N  N54  1  0.22370051  0.54558510  0.80211314  1
  N  N55  1  0.10090894  0.41965556  0.62662597  1
  N  N56  1  0.88349874  0.52301685  0.38809684  1
  N  N57  1  0.78316946  0.44623294  0.09314111  1
  N  N58  1  0.56289908  0.53290083  0.84262833  1
  N  N59  1  0.40726521  0.39067282  0.53988402  1
  N  N60  1  0.22214458  0.86704036  0.33553445  1
  N  N61  1  0.11668980  0.74959556  0.04601254  1
  N  N62  1  0.89808666  0.85203019  0.84785516  1
  N  N63  1  0.76401059  0.74189727  0.62251113  1
  N  N64  1  0.54814848  0.85939981  0.38908557  1
  N  N65  1  0.47320603  0.76095567  0.04032422  1
  N  N66  1  0.22037219  0.87089319  0.81738910  1
  N  N67  1  0.14915487  0.73016574  0.55822629  1
  N  N68  1  0.90257584  0.87327710  0.35187586  1
  N  N69  1  0.78323509  0.76799705  0.07838087  1
  N  N70  1  0.55811932  0.88316194  0.84923625  1
  N  N71  1  0.42302459  0.78636228  0.58814366  1
