# generated using pymatgen
data_Gd2Al7N9
_symmetry_space_group_name_H-M   'P 1'
_cell_length_a   9.91106352
_cell_length_b   9.90744445
_cell_length_c   10.58838111
_cell_angle_alpha   91.04372772
_cell_angle_beta   91.27578575
_cell_angle_gamma   59.81148402
_symmetry_Int_Tables_number   1
_chemical_formula_structural   Gd2Al7N9
_chemical_formula_sum   'Gd8 Al28 N36'
_cell_volume   898.44598434
_cell_formula_units_Z   4
loop_
 _symmetry_equiv_pos_site_id
 _symmetry_equiv_pos_as_xyz
  1  'x, y, z'
loop_
 _atom_site_type_symbol
 _atom_site_label
 _atom_site_symmetry_multiplicity
 _atom_site_fract_x
 _atom_site_fract_y
 _atom_site_fract_z
 _atom_site_occupancy
  Al  Al0  1  0.11050447  0.09320716  0.31991287  1
  Al  Al1  1  0.23005491  0.21437092  0.04937187  1
  Al  Al2  1  0.89236014  0.19847651  0.56223595  1
  Al  Al3  1  0.55950690  0.22045840  0.11941460  1
  Al  Al4  1  0.11073950  0.10134465  0.81151361  1
  Al  Al5  1  0.21003037  0.19732924  0.57275440  1
  Al  Al6  1  0.80508491  0.08510916  0.29525072  1
  Al  Al7  1  0.90539816  0.22362773  0.05735091  1
  Al  Al8  1  0.43052609  0.09588497  0.80146781  1
  Al  Al9  1  0.53274889  0.21061397  0.62940535  1
  Al  Al10  1  0.22833679  0.54253639  0.11344175  1
  Al  Al11  1  0.79891429  0.42140618  0.80515432  1
  Al  Al12  1  0.88705187  0.52765990  0.56925862  1
  Al  Al13  1  0.43150541  0.43660541  0.37040239  1
  Al  Al14  1  0.57360299  0.53825932  0.02804000  1
  Al  Al15  1  0.10997345  0.42400953  0.80913201  1
  Al  Al16  1  0.21922640  0.52420907  0.61922295  1
  Al  Al17  1  0.89423195  0.54318511  0.03564172  1
  Al  Al18  1  0.42598782  0.43071951  0.87310655  1
  Al  Al19  1  0.12912366  0.75743801  0.37346378  1
  Al  Al20  1  0.77792332  0.75369113  0.80559263  1
  Al  Al21  1  0.41839285  0.77383309  0.39709043  1
  Al  Al22  1  0.56533569  0.88414058  0.03297892  1
  Al  Al23  1  0.11727518  0.74753313  0.86833852  1
  Al  Al24  1  0.21892838  0.86671799  0.64252841  1
  Al  Al25  1  0.89310137  0.86297211  0.04104943  1
  Al  Al26  1  0.44854503  0.76657219  0.84140333  1
  Al  Al27  1  0.55133656  0.86533013  0.58270192  1
  Gd  Gd28  1  0.76617571  0.11385659  0.84205783  1
  Gd  Gd29  1  0.45287046  0.10524378  0.35248147  1
  Gd  Gd30  1  0.10517776  0.41556895  0.30410675  1
  Gd  Gd31  1  0.74840210  0.42114939  0.31162350  1
  Gd  Gd32  1  0.54188902  0.51995637  0.60866973  1
  Gd  Gd33  1  0.23378659  0.87287368  0.10119550  1
  Gd  Gd34  1  0.88607500  0.87522758  0.57709103  1
  Gd  Gd35  1  0.76700125  0.76101980  0.29912091  1
  N  N36  1  0.21091317  0.18698409  0.39764090  1
  N  N37  1  0.10459071  0.14145774  0.13606546  1
  N  N38  1  0.91407411  0.22329285  0.88017763  1
  N  N39  1  0.75103017  0.13355309  0.62014898  1
  N  N40  1  0.58619200  0.24157287  0.29473944  1
  N  N41  1  0.45192405  0.09775195  0.10767806  1
  N  N42  1  0.22425227  0.20160111  0.86516986  1
  N  N43  1  0.10303177  0.08976598  0.63045692  1
  N  N44  1  0.90895816  0.17419844  0.38110149  1
  N  N45  1  0.79913621  0.09049921  0.09369805  1
  N  N46  1  0.50853272  0.23229258  0.80937484  1
  N  N47  1  0.43616684  0.08516139  0.61611779  1
  N  N48  1  0.23168642  0.55486244  0.29483065  1
  N  N49  1  0.11517820  0.43385324  0.08340723  1
  N  N50  1  0.89217585  0.53977461  0.85743675  1
  N  N51  1  0.80509775  0.40528514  0.62441905  1
  N  N52  1  0.51619467  0.56360892  0.39298648  1
  N  N53  1  0.44692743  0.43391540  0.05249589  1
  N  N54  1  0.22285459  0.54193943  0.80357228  1
  N  N55  1  0.10304198  0.41742216  0.62431551  1
  N  N56  1  0.87846250  0.53535098  0.39110504  1
  N  N57  1  0.77942605  0.44155103  0.09563884  1
  N  N58  1  0.56745312  0.52331880  0.84275638  1
  N  N59  1  0.40801989  0.38915499  0.53877275  1
  N  N60  1  0.22261374  0.87320806  0.32270484  1
  N  N61  1  0.11032848  0.74254372  0.04722650  1
  N  N62  1  0.89638859  0.85215792  0.84678028  1
  N  N63  1  0.76576483  0.74082160  0.62682855  1
  N  N64  1  0.54240087  0.86169676  0.40070127  1
  N  N65  1  0.47719152  0.75416490  0.03618865  1
  N  N66  1  0.21483789  0.87145671  0.83165462  1
  N  N67  1  0.15342452  0.73290279  0.56078476  1
  N  N68  1  0.90142603  0.87875675  0.35631893  1
  N  N69  1  0.78146711  0.76367594  0.08187664  1
  N  N70  1  0.56009450  0.88541012  0.85164877  1
  N  N71  1  0.43057598  0.78084525  0.62812400  1
