# generated using pymatgen
data_Gd2Al7N9
_symmetry_space_group_name_H-M   'P 1'
_cell_length_a   9.94479787
_cell_length_b   9.92379745
_cell_length_c   10.54723463
_cell_angle_alpha   89.82193580
_cell_angle_beta   90.50032653
_cell_angle_gamma   59.41481450
_symmetry_Int_Tables_number   1
_chemical_formula_structural   Gd2Al7N9
_chemical_formula_sum   'Gd8 Al28 N36'
_cell_volume   896.02183021
_cell_formula_units_Z   4
loop_
 _symmetry_equiv_pos_site_id
 _symmetry_equiv_pos_as_xyz
  1  'x, y, z'
loop_
 _atom_site_type_symbol
 _atom_site_label
 _atom_site_symmetry_multiplicity
 _atom_site_fract_x
 _atom_site_fract_y
 _atom_site_fract_z
 _atom_site_occupancy
  Al  Al0  1  0.11409397  0.08680316  0.40458191  1
  Al  Al1  1  0.22016850  0.20705636  0.14349849  1
  Al  Al2  1  0.89210920  0.22021238  0.65813185  1
  Al  Al3  1  0.55106928  0.21189555  0.14233205  1
  Al  Al4  1  0.11687487  0.10005775  0.89743400  1
  Al  Al5  1  0.21808674  0.20362559  0.66614854  1
  Al  Al6  1  0.79973923  0.08351304  0.31312688  1
  Al  Al7  1  0.90592114  0.20412350  0.13658277  1
  Al  Al8  1  0.43303983  0.09863191  0.90619486  1
  Al  Al9  1  0.52607455  0.21517147  0.66134767  1
  Al  Al10  1  0.22010754  0.53958263  0.14241258  1
  Al  Al11  1  0.79046587  0.42762935  0.89840754  1
  Al  Al12  1  0.88741936  0.53269736  0.66591044  1
  Al  Al13  1  0.43791755  0.43162112  0.39483731  1
  Al  Al14  1  0.55998119  0.53233751  0.06907369  1
  Al  Al15  1  0.11693297  0.42406558  0.89533260  1
  Al  Al16  1  0.21741862  0.53145941  0.65989320  1
  Al  Al17  1  0.89929911  0.53198704  0.11537011  1
  Al  Al18  1  0.42363130  0.43074771  0.90271424  1
  Al  Al19  1  0.13527318  0.75799197  0.41560878  1
  Al  Al20  1  0.77248747  0.76025867  0.84570863  1
  Al  Al21  1  0.43685691  0.76870119  0.41760742  1
  Al  Al22  1  0.55202843  0.86531777  0.13433764  1
  Al  Al23  1  0.11811739  0.75472245  0.89199575  1
  Al  Al24  1  0.22315275  0.88011945  0.65102603  1
  Al  Al25  1  0.88748842  0.86024105  0.06065233  1
  Al  Al26  1  0.44003279  0.76920081  0.89444086  1
  Al  Al27  1  0.54061074  0.88160805  0.66829614  1
  Gd  Gd28  1  0.76203155  0.12363662  0.87805206  1
  Gd  Gd29  1  0.45996921  0.08362539  0.39633360  1
  Gd  Gd30  1  0.13190110  0.41952039  0.41063418  1
  Gd  Gd31  1  0.77423935  0.41980079  0.37942938  1
  Gd  Gd32  1  0.53945366  0.53094861  0.63315555  1
  Gd  Gd33  1  0.22312992  0.86739337  0.15848003  1
  Gd  Gd34  1  0.88277664  0.89082054  0.61502567  1
  Gd  Gd35  1  0.79516723  0.76317260  0.32697269  1
  N  N36  1  0.21848511  0.18382111  0.32479855  1
  N  N37  1  0.10918090  0.11316129  0.07476115  1
  N  N38  1  0.91243645  0.22594034  0.83754654  1
  N  N39  1  0.74335529  0.15072098  0.65187401  1
  N  N40  1  0.57508675  0.22333665  0.32026526  1
  N  N41  1  0.44566892  0.09380484  0.09360675  1
  N  N42  1  0.22303282  0.20306512  0.84683751  1
  N  N43  1  0.10436563  0.10041592  0.59386075  1
  N  N44  1  0.92358356  0.17080847  0.31269799  1
  N  N45  1  0.78545983  0.08363643  0.11303210  1
  N  N46  1  0.50492659  0.22874233  0.84353251  1
  N  N47  1  0.43709298  0.09247723  0.61354931  1
  N  N48  1  0.23126009  0.56056628  0.32134219  1
  N  N49  1  0.12305139  0.42231521  0.08210015  1
  N  N50  1  0.89092888  0.53954054  0.86470971  1
  N  N51  1  0.79875739  0.42443948  0.59743302  1
  N  N52  1  0.52137959  0.55646731  0.40760199  1
  N  N53  1  0.44134003  0.42808941  0.08319089  1
  N  N54  1  0.21826844  0.54273051  0.84038395  1
  N  N55  1  0.10143443  0.42901884  0.63029400  1
  N  N56  1  0.91323622  0.51814158  0.30896305  1
  N  N57  1  0.78241922  0.42074308  0.08551269  1
  N  N58  1  0.55681509  0.53003909  0.87386340  1
  N  N59  1  0.40401989  0.40185571  0.57147065  1
  N  N60  1  0.22622703  0.87380789  0.37194720  1
  N  N61  1  0.10615311  0.74405269  0.07255090  1
  N  N62  1  0.89228864  0.85887997  0.87236724  1
  N  N63  1  0.76173769  0.75312385  0.65381964  1
  N  N64  1  0.54074073  0.84706347  0.31809738  1
  N  N65  1  0.46373743  0.74972291  0.07229303  1
  N  N66  1  0.21889494  0.87588563  0.84124113  1
  N  N67  1  0.15251150  0.73797016  0.59995879  1
  N  N68  1  0.91128681  0.89186993  0.39804211  1
  N  N69  1  0.77670455  0.76133386  0.10598155  1
  N  N70  1  0.54515749  0.88058575  0.85218317  1
  N  N71  1  0.43080506  0.79525619  0.60112051  1
