# generated using pymatgen
data_Gd2Al7N9
_symmetry_space_group_name_H-M   'P 1'
_cell_length_a   9.86074226
_cell_length_b   9.86826601
_cell_length_c   10.50815118
_cell_angle_alpha   90.86865770
_cell_angle_beta   90.85705967
_cell_angle_gamma   60.47295442
_symmetry_Int_Tables_number   1
_chemical_formula_structural   Gd2Al7N9
_chemical_formula_sum   'Gd8 Al28 N36'
_cell_volume   889.59329764
_cell_formula_units_Z   4
loop_
 _symmetry_equiv_pos_site_id
 _symmetry_equiv_pos_as_xyz
  1  'x, y, z'
loop_
 _atom_site_type_symbol
 _atom_site_label
 _atom_site_symmetry_multiplicity
 _atom_site_fract_x
 _atom_site_fract_y
 _atom_site_fract_z
 _atom_site_occupancy
  Al  Al0  1  0.10830891  0.09174727  0.32285395  1
  Al  Al1  1  0.22499528  0.21391158  0.04386368  1
  Al  Al2  1  0.89338222  0.19677406  0.56278557  1
  Al  Al3  1  0.55658935  0.22337789  0.10966940  1
  Al  Al4  1  0.11772667  0.09333392  0.80359738  1
  Al  Al5  1  0.21618865  0.20194872  0.57363826  1
  Al  Al6  1  0.79590708  0.08633743  0.29105665  1
  Al  Al7  1  0.90437710  0.22072855  0.05527758  1
  Al  Al8  1  0.43544904  0.09411353  0.81049261  1
  Al  Al9  1  0.54147858  0.20974609  0.63480494  1
  Al  Al10  1  0.21719598  0.54278321  0.04658507  1
  Al  Al11  1  0.79976183  0.42106276  0.80873175  1
  Al  Al12  1  0.88962541  0.52770161  0.57317001  1
  Al  Al13  1  0.43486186  0.43169917  0.37817452  1
  Al  Al14  1  0.56785074  0.54984559  0.04439173  1
  Al  Al15  1  0.11623177  0.42835634  0.80715417  1
  Al  Al16  1  0.21433288  0.53327093  0.55803895  1
  Al  Al17  1  0.89502869  0.53977909  0.03239057  1
  Al  Al18  1  0.44012080  0.43197215  0.87498919  1
  Al  Al19  1  0.10911652  0.75843890  0.30464890  1
  Al  Al20  1  0.77895038  0.75157586  0.81114048  1
  Al  Al21  1  0.43677219  0.76034730  0.32024293  1
  Al  Al22  1  0.56258457  0.87775635  0.04461185  1
  Al  Al23  1  0.12605675  0.75069867  0.80240344  1
  Al  Al24  1  0.22192450  0.87449944  0.55938321  1
  Al  Al25  1  0.90168967  0.85496784  0.04656007  1
  Al  Al26  1  0.43506305  0.77863478  0.80818701  1
  Al  Al27  1  0.54470711  0.87178398  0.57289431  1
  Gd  Gd28  1  0.78160560  0.09834619  0.84014132  1
  Gd  Gd29  1  0.44597861  0.09973937  0.32734873  1
  Gd  Gd30  1  0.10142888  0.41890262  0.30122044  1
  Gd  Gd31  1  0.75291548  0.41273880  0.30781738  1
  Gd  Gd32  1  0.54769577  0.53749286  0.59851846  1
  Gd  Gd33  1  0.22545221  0.87984176  0.07600269  1
  Gd  Gd34  1  0.88612988  0.87052537  0.56224130  1
  Gd  Gd35  1  0.76246408  0.75116581  0.29379190  1
  N  N36  1  0.20882886  0.19139859  0.39657060  1
  N  N37  1  0.10340497  0.13691337  0.13782576  1
  N  N38  1  0.91891421  0.21930495  0.87735362  1
  N  N39  1  0.76009808  0.12060098  0.62064411  1
  N  N40  1  0.57718589  0.23932302  0.29287781  1
  N  N41  1  0.44684545  0.09899948  0.09876329  1
  N  N42  1  0.22376670  0.20328277  0.85973725  1
  N  N43  1  0.10734961  0.08769198  0.62144232  1
  N  N44  1  0.90488910  0.16969057  0.38063324  1
  N  N45  1  0.79701356  0.09157879  0.09308788  1
  N  N46  1  0.52235664  0.22599515  0.82557360  1
  N  N47  1  0.44008791  0.08849320  0.62211730  1
  N  N48  1  0.21203859  0.55523834  0.37313594  1
  N  N49  1  0.11340516  0.43070451  0.08147700  1
  N  N50  1  0.89700549  0.53681786  0.85422890  1
  N  N51  1  0.80926460  0.40148226  0.62792337  1
  N  N52  1  0.51705875  0.56290953  0.38128089  1
  N  N53  1  0.44865800  0.43942769  0.05857956  1
  N  N54  1  0.22123256  0.54311528  0.86169441  1
  N  N55  1  0.11027411  0.42636501  0.62233273  1
  N  N56  1  0.87618230  0.53024103  0.39403198  1
  N  N57  1  0.78197793  0.43827954  0.09191116  1
  N  N58  1  0.55987049  0.54678013  0.85136314  1
  N  N59  1  0.42799488  0.39620971  0.55731925  1
  N  N60  1  0.21693887  0.87187592  0.35667287  1
  N  N61  1  0.10405892  0.74347461  0.12103517  1
  N  N62  1  0.91274278  0.83806609  0.85835380  1
  N  N63  1  0.75856151  0.74410234  0.62893940  1
  N  N64  1  0.53718449  0.86227287  0.39324912  1
  N  N65  1  0.48451438  0.75193182  0.12959943  1
  N  N66  1  0.22026432  0.87625748  0.86046387  1
  N  N67  1  0.14403978  0.74151569  0.62047512  1
  N  N68  1  0.89052545  0.87893581  0.34449653  1
  N  N69  1  0.78161547  0.75920157  0.07676832  1
  N  N70  1  0.55312115  0.87743517  0.86409691  1
  N  N71  1  0.41981076  0.79554032  0.63136124  1
