# generated using pymatgen
data_Gd2Al7N9
_symmetry_space_group_name_H-M   'P 1'
_cell_length_a   9.86139486
_cell_length_b   9.86193922
_cell_length_c   10.53105338
_cell_angle_alpha   91.07220683
_cell_angle_beta   90.81630469
_cell_angle_gamma   60.32384086
_symmetry_Int_Tables_number   1
_chemical_formula_structural   Gd2Al7N9
_chemical_formula_sum   'Gd8 Al28 N36'
_cell_volume   889.66785698
_cell_formula_units_Z   4
loop_
 _symmetry_equiv_pos_site_id
 _symmetry_equiv_pos_as_xyz
  1  'x, y, z'
loop_
 _atom_site_type_symbol
 _atom_site_label
 _atom_site_symmetry_multiplicity
 _atom_site_fract_x
 _atom_site_fract_y
 _atom_site_fract_z
 _atom_site_occupancy
  Al  Al0  1  0.11030714  0.09091289  0.32256169  1
  Al  Al1  1  0.22833370  0.21283906  0.04596477  1
  Al  Al2  1  0.89344285  0.19587702  0.56335909  1
  Al  Al3  1  0.55686064  0.22475010  0.11714979  1
  Al  Al4  1  0.11684004  0.09258294  0.80392439  1
  Al  Al5  1  0.21349384  0.20146071  0.57314202  1
  Al  Al6  1  0.79965643  0.08647245  0.29155560  1
  Al  Al7  1  0.90516100  0.22128649  0.05488223  1
  Al  Al8  1  0.43299644  0.09392732  0.80558950  1
  Al  Al9  1  0.54055301  0.20951928  0.63431207  1
  Al  Al10  1  0.21670068  0.54279280  0.04632423  1
  Al  Al11  1  0.79924768  0.42108994  0.80761774  1
  Al  Al12  1  0.88943669  0.52777725  0.57274210  1
  Al  Al13  1  0.43500160  0.43451911  0.37556683  1
  Al  Al14  1  0.56811801  0.54939984  0.04368821  1
  Al  Al15  1  0.11606023  0.42793735  0.80768377  1
  Al  Al16  1  0.21404465  0.53080764  0.55534586  1
  Al  Al17  1  0.89438863  0.54033451  0.03177786  1
  Al  Al18  1  0.43853493  0.43179478  0.87439444  1
  Al  Al19  1  0.10882643  0.75881858  0.30436056  1
  Al  Al20  1  0.77791496  0.75230655  0.81183796  1
  Al  Al21  1  0.43690524  0.76137111  0.31868878  1
  Al  Al22  1  0.56078225  0.88160263  0.04664197  1
  Al  Al23  1  0.12551331  0.75071544  0.80155386  1
  Al  Al24  1  0.22272561  0.87244325  0.55865625  1
  Al  Al25  1  0.90180610  0.85559513  0.04592541  1
  Al  Al26  1  0.43516666  0.77801023  0.80826858  1
  Al  Al27  1  0.54608862  0.86693978  0.57208437  1
  Gd  Gd28  1  0.77588381  0.10124175  0.84308063  1
  Gd  Gd29  1  0.45192629  0.10405750  0.34506504  1
  Gd  Gd30  1  0.10265456  0.41676824  0.29896638  1
  Gd  Gd31  1  0.75411358  0.41336871  0.30865659  1
  Gd  Gd32  1  0.54622694  0.53367428  0.59889146  1
  Gd  Gd33  1  0.22481925  0.88018283  0.07489004  1
  Gd  Gd34  1  0.88604710  0.87021237  0.56388043  1
  Gd  Gd35  1  0.76354445  0.75182872  0.29246060  1
  N  N36  1  0.20951163  0.19081781  0.39646220  1
  N  N37  1  0.10378589  0.13757614  0.13798765  1
  N  N38  1  0.91704123  0.21916470  0.87662705  1
  N  N39  1  0.76019853  0.12088036  0.62251175  1
  N  N40  1  0.58253718  0.24265102  0.29434625  1
  N  N41  1  0.44795119  0.10141285  0.10707705  1
  N  N42  1  0.22376486  0.20209098  0.86083533  1
  N  N43  1  0.10756376  0.08632361  0.62190506  1
  N  N44  1  0.90700830  0.17021841  0.38157986  1
  N  N45  1  0.79871859  0.09135488  0.09356247  1
  N  N46  1  0.51596657  0.22975891  0.81582420  1
  N  N47  1  0.44004377  0.08594986  0.61724695  1
  N  N48  1  0.21198029  0.55474324  0.37055175  1
  N  N49  1  0.11279706  0.43121300  0.08027605  1
  N  N50  1  0.89610626  0.53692223  0.85404293  1
  N  N51  1  0.80844976  0.40202206  0.62698265  1
  N  N52  1  0.51752692  0.56479586  0.38219601  1
  N  N53  1  0.44979627  0.43702520  0.05715927  1
  N  N54  1  0.21974060  0.54405857  0.86219400  1
  N  N55  1  0.11027577  0.42522063  0.62284916  1
  N  N56  1  0.87802399  0.53149640  0.39388809  1
  N  N57  1  0.78194509  0.43900872  0.09234219  1
  N  N58  1  0.55947525  0.54593815  0.85103929  1
  N  N59  1  0.42768160  0.39143395  0.55077779  1
  N  N60  1  0.21724757  0.87121487  0.35700326  1
  N  N61  1  0.10376472  0.74397552  0.12105279  1
  N  N62  1  0.91129560  0.83996934  0.85740673  1
  N  N63  1  0.75848282  0.74385859  0.62999027  1
  N  N64  1  0.53844729  0.86117481  0.39258163  1
  N  N65  1  0.48355635  0.75249666  0.12859382  1
  N  N66  1  0.21990134  0.87556963  0.85984411  1
  N  N67  1  0.14535224  0.73883723  0.61967913  1
  N  N68  1  0.89016129  0.88009905  0.34612810  1
  N  N69  1  0.78102126  0.76063836  0.07574879  1
  N  N70  1  0.55109484  0.87979997  0.86506115  1
  N  N71  1  0.42069086  0.79247097  0.63154351  1
