# generated using pymatgen
data_Gd2Al7N9
_symmetry_space_group_name_H-M   'P 1'
_cell_length_a   9.88332365
_cell_length_b   9.88383527
_cell_length_c   10.76369019
_cell_angle_alpha   91.52238938
_cell_angle_beta   91.41736543
_cell_angle_gamma   59.80250757
_symmetry_Int_Tables_number   1
_chemical_formula_structural   Gd2Al7N9
_chemical_formula_sum   'Gd8 Al28 N36'
_cell_volume   908.36767268
_cell_formula_units_Z   4
loop_
 _symmetry_equiv_pos_site_id
 _symmetry_equiv_pos_as_xyz
  1  'x, y, z'
loop_
 _atom_site_type_symbol
 _atom_site_label
 _atom_site_symmetry_multiplicity
 _atom_site_fract_x
 _atom_site_fract_y
 _atom_site_fract_z
 _atom_site_occupancy
  Al  Al0  1  0.11362050  0.07238294  0.41240940  1
  Al  Al1  1  0.23429985  0.21685028  0.03664324  1
  Al  Al2  1  0.87803573  0.20679330  0.57127845  1
  Al  Al3  1  0.56308287  0.22051121  0.11973378  1
  Al  Al4  1  0.11591777  0.09736703  0.84842936  1
  Al  Al5  1  0.21583803  0.20425073  0.57808380  1
  Al  Al6  1  0.80590270  0.08289494  0.29824506  1
  Al  Al7  1  0.90444702  0.22163381  0.04789068  1
  Al  Al8  1  0.43179200  0.09530791  0.80023300  1
  Al  Al9  1  0.52945895  0.21329405  0.63061002  1
  Al  Al10  1  0.22928490  0.54415826  0.11608383  1
  Al  Al11  1  0.79396855  0.42680718  0.80462811  1
  Al  Al12  1  0.88493558  0.52961074  0.56954920  1
  Al  Al13  1  0.43366988  0.43080995  0.37444587  1
  Al  Al14  1  0.57462439  0.53819818  0.03272935  1
  Al  Al15  1  0.10760644  0.42848042  0.80630679  1
  Al  Al16  1  0.21735262  0.52756686  0.62320514  1
  Al  Al17  1  0.89681107  0.54248874  0.03483114  1
  Al  Al18  1  0.42481632  0.43310180  0.87566329  1
  Al  Al19  1  0.13184841  0.74988292  0.38152303  1
  Al  Al20  1  0.77715957  0.75408359  0.80627321  1
  Al  Al21  1  0.42502318  0.76811282  0.41412702  1
  Al  Al22  1  0.56696518  0.88502740  0.03395836  1
  Al  Al23  1  0.12005451  0.75053831  0.87158661  1
  Al  Al24  1  0.21886936  0.87002299  0.64047064  1
  Al  Al25  1  0.89611158  0.86374201  0.04125436  1
  Al  Al26  1  0.44427145  0.76827492  0.86463600  1
  Al  Al27  1  0.55209553  0.86991256  0.57733370  1
  Gd  Gd28  1  0.76261858  0.11134733  0.84132637  1
  Gd  Gd29  1  0.44766134  0.09746606  0.33069198  1
  Gd  Gd30  1  0.10648821  0.40964010  0.30334529  1
  Gd  Gd31  1  0.75132720  0.41726995  0.31184041  1
  Gd  Gd32  1  0.53556650  0.52703484  0.61084315  1
  Gd  Gd33  1  0.23446098  0.87638894  0.13164666  1
  Gd  Gd34  1  0.88225215  0.87703933  0.57384824  1
  Gd  Gd35  1  0.77396517  0.75495780  0.29669358  1
  N  N36  1  0.21290760  0.18752511  0.40301676  1
  N  N37  1  0.11824326  0.12157829  0.07237138  1
  N  N38  1  0.90297782  0.22697233  0.87020612  1
  N  N39  1  0.74750918  0.13281867  0.62517768  1
  N  N40  1  0.58422065  0.23481971  0.29509388  1
  N  N41  1  0.45293302  0.10015769  0.10043782  1
  N  N42  1  0.22410690  0.20918735  0.85521110  1
  N  N43  1  0.10231813  0.08712196  0.60262889  1
  N  N44  1  0.89898138  0.17686043  0.39116573  1
  N  N45  1  0.80018406  0.09227521  0.09472089  1
  N  N46  1  0.50588639  0.23578271  0.80918480  1
  N  N47  1  0.43754614  0.08495117  0.62064426  1
  N  N48  1  0.23330532  0.55125562  0.29643012  1
  N  N49  1  0.11694958  0.43331502  0.08516866  1
  N  N50  1  0.89154147  0.54089293  0.85912745  1
  N  N51  1  0.79882966  0.41266364  0.62814313  1
  N  N52  1  0.52111971  0.55604738  0.39363650  1
  N  N53  1  0.44950781  0.43319920  0.05365805  1
  N  N54  1  0.22249388  0.54494915  0.80566678  1
  N  N55  1  0.09992936  0.42276209  0.62647975  1
  N  N56  1  0.88145402  0.53226379  0.39365951  1
  N  N57  1  0.78392388  0.43877293  0.09580549  1
  N  N58  1  0.56159008  0.53302404  0.84655199  1
  N  N59  1  0.40630707  0.39241976  0.54235336  1
  N  N60  1  0.22314109  0.87199827  0.34581098  1
  N  N61  1  0.11619291  0.74636224  0.04926314  1
  N  N62  1  0.89827285  0.84992157  0.85206235  1
  N  N63  1  0.76344667  0.74307968  0.62985804  1
  N  N64  1  0.54945116  0.86035456  0.39599340  1
  N  N65  1  0.47400369  0.75705668  0.04492538  1
  N  N66  1  0.21981749  0.87149453  0.82226460  1
  N  N67  1  0.14911573  0.73301722  0.56527431  1
  N  N68  1  0.90464021  0.87578192  0.35721985  1
  N  N69  1  0.78322289  0.76451122  0.08217480  1
  N  N70  1  0.55666681  0.88390047  0.85455854  1
  N  N71  1  0.42387733  0.78653909  0.59555321  1
