# generated using pymatgen
data_Gd5Al31N36
_symmetry_space_group_name_H-M   'P 1'
_cell_length_a   9.69809697
_cell_length_b   9.70991334
_cell_length_c   10.61292414
_cell_angle_alpha   89.60372615
_cell_angle_beta   89.75810911
_cell_angle_gamma   59.66403003
_symmetry_Int_Tables_number   1
_chemical_formula_structural   Gd5Al31N36
_chemical_formula_sum   'Gd5 Al31 N36'
_cell_volume   862.53507135
_cell_formula_units_Z   1
loop_
 _symmetry_equiv_pos_site_id
 _symmetry_equiv_pos_as_xyz
  1  'x, y, z'
loop_
 _atom_site_type_symbol
 _atom_site_label
 _atom_site_symmetry_multiplicity
 _atom_site_fract_x
 _atom_site_fract_y
 _atom_site_fract_z
 _atom_site_occupancy
  Al  Al0  1  0.11023681  0.10469965  0.39307385  1
  Al  Al1  1  0.21353344  0.20506764  0.15004500  1
  Al  Al2  1  0.78073905  0.09322880  0.91810136  1
  Al  Al3  1  0.44101173  0.09644341  0.32813307  1
  Al  Al4  1  0.56166053  0.19442562  0.15039049  1
  Al  Al5  1  0.10937121  0.10223493  0.91592163  1
  Al  Al6  1  0.22423425  0.20422370  0.65159487  1
  Al  Al7  1  0.76982032  0.10090117  0.39237140  1
  Al  Al8  1  0.89773565  0.19700508  0.15530796  1
  Al  Al9  1  0.45625282  0.08952119  0.83042316  1
  Al  Al10  1  0.55395697  0.21291150  0.64646732  1
  Al  Al11  1  0.10727034  0.42862050  0.41360193  1
  Al  Al12  1  0.79200482  0.41779409  0.91639131  1
  Al  Al13  1  0.88009068  0.54376707  0.64988399  1
  Al  Al14  1  0.43670427  0.42254561  0.40707683  1
  Al  Al15  1  0.11033850  0.42175996  0.89307036  1
  Al  Al16  1  0.22617718  0.53977886  0.65051658  1
  Al  Al17  1  0.78474572  0.42934591  0.39292816  1
  Al  Al18  1  0.89351765  0.53120118  0.15306077  1
  Al  Al19  1  0.45277861  0.41052954  0.89692259  1
  Al  Al20  1  0.54905674  0.55145385  0.56315003  1
  Al  Al21  1  0.10751423  0.75982633  0.39907306  1
  Al  Al22  1  0.22050027  0.87842150  0.09128238  1
  Al  Al23  1  0.79042673  0.75612785  0.91911075  1
  Al  Al24  1  0.43381230  0.77950304  0.32906920  1
  Al  Al25  1  0.55005769  0.88398402  0.08727353  1
  Al  Al26  1  0.10779111  0.75999422  0.91459891  1
  Al  Al27  1  0.23413467  0.86900335  0.56220309  1
  Al  Al28  1  0.77883481  0.75746685  0.39474444  1
  Al  Al29  1  0.88653795  0.87317830  0.15776268  1
  Al  Al30  1  0.54372096  0.88117085  0.56615632  1
  Gd  Gd31  1  0.88885885  0.21063591  0.65454911  1
  Gd  Gd32  1  0.21526313  0.52399910  0.15501607  1
  Gd  Gd33  1  0.55539241  0.52728227  0.12835066  1
  Gd  Gd34  1  0.88114416  0.87170779  0.65566042  1
  Gd  Gd35  1  0.45225719  0.75757809  0.82777109  1
  N  N36  1  0.21127618  0.22020429  0.33674055  1
  N  N37  1  0.11029489  0.09850387  0.10016625  1
  N  N38  1  0.89383073  0.20068354  0.86898929  1
  N  N39  1  0.75144326  0.11134233  0.56754438  1
  N  N40  1  0.55154173  0.21534594  0.33469067  1
  N  N41  1  0.44298389  0.09130164  0.14698276  1
  N  N42  1  0.22024433  0.20193245  0.83729216  1
  N  N43  1  0.13707048  0.09203426  0.57430884  1
  N  N44  1  0.88774106  0.20760443  0.34040943  1
  N  N45  1  0.77891949  0.09208898  0.10174281  1
  N  N46  1  0.57285285  0.20026032  0.83037875  1
  N  N47  1  0.45216339  0.08643011  0.64299788  1
  N  N48  1  0.21757644  0.53692011  0.36719954  1
  N  N49  1  0.09529859  0.40841548  0.07144146  1
  N  N50  1  0.88369508  0.54216251  0.83791406  1
  N  N51  1  0.77112809  0.45093796  0.57274218  1
  N  N52  1  0.54764726  0.54532980  0.37168323  1
  N  N53  1  0.44788967  0.38441857  0.07049934  1
  N  N54  1  0.22321223  0.53806645  0.84095311  1
  N  N55  1  0.10854453  0.42826238  0.59802602  1
  N  N56  1  0.89345949  0.53874076  0.33646956  1
  N  N57  1  0.81008643  0.40822915  0.09764775  1
  N  N58  1  0.57282124  0.51233083  0.89573779  1
  N  N59  1  0.44330890  0.42829893  0.58924633  1
  N  N60  1  0.21756937  0.87657848  0.37831123  1
  N  N61  1  0.09977904  0.77727799  0.10162193  1
  N  N62  1  0.89070547  0.87110704  0.87041344  1
  N  N63  1  0.76844823  0.74644028  0.57563933  1
  N  N64  1  0.54545926  0.88396624  0.38592340  1
  N  N65  1  0.43064703  0.79300710  0.14912980  1
  N  N66  1  0.20835510  0.87980996  0.90521362  1
  N  N67  1  0.13118888  0.75108635  0.58386491  1
  N  N68  1  0.88434129  0.87411804  0.34323942  1
  N  N69  1  0.78642478  0.75196421  0.10284505  1
  N  N70  1  0.56663868  0.89075987  0.90797878  1
  N  N71  1  0.44501248  0.76305606  0.61262951  1
