# generated using pymatgen
data_Gd5Al31N36
_symmetry_space_group_name_H-M   'P 1'
_cell_length_a   9.71305634
_cell_length_b   9.71628515
_cell_length_c   10.59488151
_cell_angle_alpha   89.51718038
_cell_angle_beta   89.69615508
_cell_angle_gamma   59.66643651
_symmetry_Int_Tables_number   1
_chemical_formula_structural   Gd5Al31N36
_chemical_formula_sum   'Gd5 Al31 N36'
_cell_volume   862.97371367
_cell_formula_units_Z   1
loop_
 _symmetry_equiv_pos_site_id
 _symmetry_equiv_pos_as_xyz
  1  'x, y, z'
loop_
 _atom_site_type_symbol
 _atom_site_label
 _atom_site_symmetry_multiplicity
 _atom_site_fract_x
 _atom_site_fract_y
 _atom_site_fract_z
 _atom_site_occupancy
  Al  Al0  1  0.11074574  0.10540667  0.39441491  1
  Al  Al1  1  0.21355963  0.20478169  0.15034375  1
  Al  Al2  1  0.78152649  0.09254858  0.91783693  1
  Al  Al3  1  0.44086591  0.09715283  0.32832338  1
  Al  Al4  1  0.56176484  0.19471876  0.15025064  1
  Al  Al5  1  0.10911655  0.10095390  0.91745844  1
  Al  Al6  1  0.22459388  0.20318008  0.65103582  1
  Al  Al7  1  0.76764506  0.10314442  0.39282749  1
  Al  Al8  1  0.89812424  0.19658990  0.15530825  1
  Al  Al9  1  0.45674714  0.08882718  0.83030287  1
  Al  Al10  1  0.55352231  0.21327736  0.64599292  1
  Al  Al11  1  0.10722364  0.43042607  0.41318798  1
  Al  Al12  1  0.79201113  0.41749852  0.91618410  1
  Al  Al13  1  0.88022625  0.54314246  0.64952673  1
  Al  Al14  1  0.43530051  0.42434786  0.40661887  1
  Al  Al15  1  0.11006029  0.41915310  0.89311158  1
  Al  Al16  1  0.22629182  0.53940418  0.64910903  1
  Al  Al17  1  0.78504618  0.42911521  0.39321556  1
  Al  Al18  1  0.89353426  0.53083725  0.15319416  1
  Al  Al19  1  0.45559973  0.40868623  0.89664406  1
  Al  Al20  1  0.54907354  0.55132477  0.56382870  1
  Al  Al21  1  0.10691655  0.76731429  0.35890280  1
  Al  Al22  1  0.21896046  0.87824671  0.09575778  1
  Al  Al23  1  0.79128938  0.75469976  0.91899553  1
  Al  Al24  1  0.43508188  0.77972264  0.32982625  1
  Al  Al25  1  0.55001992  0.88410464  0.08741856  1
  Al  Al26  1  0.11279491  0.75600973  0.88836894  1
  Al  Al27  1  0.23215500  0.86595651  0.56247263  1
  Al  Al28  1  0.77792706  0.75750927  0.39538797  1
  Al  Al29  1  0.88160987  0.87632892  0.15925393  1
  Al  Al30  1  0.54300601  0.88082456  0.56616365  1
  Gd  Gd31  1  0.88980866  0.20968153  0.65433563  1
  Gd  Gd32  1  0.21656379  0.52189450  0.15090788  1
  Gd  Gd33  1  0.55547034  0.52790966  0.12962150  1
  Gd  Gd34  1  0.87858754  0.87290970  0.65159443  1
  Gd  Gd35  1  0.45092490  0.75849600  0.82795736  1
  N  N36  1  0.21134493  0.22098944  0.33692781  1
  N  N37  1  0.11060527  0.09889016  0.10029758  1
  N  N38  1  0.89447417  0.19974497  0.86936560  1
  N  N39  1  0.74997758  0.11453528  0.56739024  1
  N  N40  1  0.55027235  0.21702563  0.33429650  1
  N  N41  1  0.44296214  0.09188829  0.14649669  1
  N  N42  1  0.22087351  0.19933428  0.83753761  1
  N  N43  1  0.13778347  0.09082778  0.57486659  1
  N  N44  1  0.88827235  0.20723256  0.34041753  1
  N  N45  1  0.77832168  0.09246793  0.10067494  1
  N  N46  1  0.57388261  0.19888244  0.83034402  1
  N  N47  1  0.45231125  0.08642325  0.64275388  1
  N  N48  1  0.21670050  0.53929002  0.36558700  1
  N  N49  1  0.09422141  0.40755834  0.07104981  1
  N  N50  1  0.88450216  0.54123855  0.83789532  1
  N  N51  1  0.77121003  0.45021255  0.57303610  1
  N  N52  1  0.54803235  0.54552330  0.37159781  1
  N  N53  1  0.45048186  0.38423681  0.06991813  1
  N  N54  1  0.22607265  0.53230524  0.84262100  1
  N  N55  1  0.10892257  0.42778079  0.59797462  1
  N  N56  1  0.89336211  0.53896970  0.33644721  1
  N  N57  1  0.80953246  0.40834199  0.09759762  1
  N  N58  1  0.57314626  0.51287737  0.89386589  1
  N  N59  1  0.44288783  0.42817978  0.58878264  1
  N  N60  1  0.21915838  0.87735204  0.37995800  1
  N  N61  1  0.10221718  0.78333511  0.14245845  1
  N  N62  1  0.89323022  0.86879452  0.87107080  1
  N  N63  1  0.76712919  0.74500457  0.57546511  1
  N  N64  1  0.54515033  0.88467128  0.38572083  1
  N  N65  1  0.43098878  0.79355198  0.14942599  1
  N  N66  1  0.20702527  0.87569601  0.91193689  1
  N  N67  1  0.13251706  0.75350136  0.60408209  1
  N  N68  1  0.87645248  0.87896527  0.34509825  1
  N  N69  1  0.78695694  0.75183180  0.10258183  1
  N  N70  1  0.56760219  0.88963555  0.90755542  1
  N  N71  1  0.44480502  0.76311947  0.61255995  1
