# generated using pymatgen
data_Gd5Al31N36
_symmetry_space_group_name_H-M   'P 1'
_cell_length_a   9.69164737
_cell_length_b   9.69039099
_cell_length_c   10.29510668
_cell_angle_alpha   89.59643348
_cell_angle_beta   89.68685964
_cell_angle_gamma   59.85676126
_symmetry_Int_Tables_number   1
_chemical_formula_structural   Gd5Al31N36
_chemical_formula_sum   'Gd5 Al31 N36'
_cell_volume   836.10318210
_cell_formula_units_Z   1
loop_
 _symmetry_equiv_pos_site_id
 _symmetry_equiv_pos_as_xyz
  1  'x, y, z'
loop_
 _atom_site_type_symbol
 _atom_site_label
 _atom_site_symmetry_multiplicity
 _atom_site_fract_x
 _atom_site_fract_y
 _atom_site_fract_z
 _atom_site_occupancy
  Al  Al0  1  0.11809506  0.09417497  0.39222568  1
  Al  Al1  1  0.22283071  0.20135446  0.14615192  1
  Al  Al2  1  0.77352510  0.09684362  0.91687032  1
  Al  Al3  1  0.44276808  0.09811121  0.39765488  1
  Al  Al4  1  0.55516594  0.19844251  0.14836196  1
  Al  Al5  1  0.10622430  0.09814429  0.90895856  1
  Al  Al6  1  0.22966490  0.20090515  0.64716718  1
  Al  Al7  1  0.77183224  0.09788403  0.38734295  1
  Al  Al8  1  0.89449927  0.20295279  0.14838163  1
  Al  Al9  1  0.44930480  0.09645785  0.89707850  1
  Al  Al10  1  0.54964397  0.20442257  0.64792452  1
  Al  Al11  1  0.11106536  0.42593712  0.40650022  1
  Al  Al12  1  0.78317048  0.42328256  0.90383797  1
  Al  Al13  1  0.88327732  0.54114460  0.64892693  1
  Al  Al14  1  0.44319620  0.42424710  0.41561658  1
  Al  Al15  1  0.10735215  0.42389835  0.89144022  1
  Al  Al16  1  0.22477724  0.53755677  0.64995417  1
  Al  Al17  1  0.78134577  0.42943397  0.40408476  1
  Al  Al18  1  0.89203672  0.53186236  0.14894101  1
  Al  Al19  1  0.45153961  0.41477566  0.88570491  1
  Al  Al20  1  0.55831470  0.53454983  0.64140538  1
  Al  Al21  1  0.11712061  0.75868514  0.40107033  1
  Al  Al22  1  0.21871751  0.88320865  0.15585261  1
  Al  Al23  1  0.77917431  0.76231053  0.90907646  1
  Al  Al24  1  0.44281726  0.76562059  0.41143642  1
  Al  Al25  1  0.55204576  0.87889593  0.15469223  1
  Al  Al26  1  0.10139481  0.77389645  0.90342631  1
  Al  Al27  1  0.22360153  0.87393922  0.64118966  1
  Al  Al28  1  0.77683450  0.75693585  0.39192938  1
  Al  Al29  1  0.88747490  0.87601646  0.14990662  1
  Al  Al30  1  0.55668461  0.87593290  0.64178711  1
  Gd  Gd31  1  0.89479872  0.19959441  0.65263205  1
  Gd  Gd32  1  0.21770818  0.53426017  0.14339920  1
  Gd  Gd33  1  0.55443192  0.53623646  0.15787871  1
  Gd  Gd34  1  0.88423617  0.86762766  0.65113110  1
  Gd  Gd35  1  0.43946653  0.76728767  0.88073131  1
  N  N36  1  0.22375162  0.20972519  0.33518838  1
  N  N37  1  0.11350636  0.09462009  0.09611822  1
  N  N38  1  0.88737265  0.20380884  0.87176811  1
  N  N39  1  0.74872610  0.10807198  0.56819857  1
  N  N40  1  0.54826442  0.21207333  0.33522515  1
  N  N41  1  0.44541358  0.09303895  0.08767987  1
  N  N42  1  0.22469643  0.19971754  0.83718443  1
  N  N43  1  0.14334490  0.08210280  0.57368671  1
  N  N44  1  0.89050781  0.20725070  0.34139534  1
  N  N45  1  0.77488030  0.09618398  0.10408148  1
  N  N46  1  0.56189804  0.19763200  0.83478316  1
  N  N47  1  0.44384622  0.09677358  0.58539675  1
  N  N48  1  0.22457149  0.53479840  0.36286301  1
  N  N49  1  0.09750179  0.40935872  0.07493509  1
  N  N50  1  0.88462109  0.54324993  0.83798719  1
  N  N51  1  0.77244709  0.44565013  0.58568207  1
  N  N52  1  0.55275701  0.53991049  0.37628285  1
  N  N53  1  0.45969335  0.39644483  0.06666186  1
  N  N54  1  0.21774715  0.54388888  0.84358471  1
  N  N55  1  0.10876757  0.42721519  0.59623944  1
  N  N56  1  0.89354754  0.53509591  0.33679280  1
  N  N57  1  0.79858751  0.41767114  0.08805204  1
  N  N58  1  0.57465852  0.50769305  0.83052296  1
  N  N59  1  0.44325928  0.42342254  0.60074335  1
  N  N60  1  0.22508831  0.87073643  0.34248002  1
  N  N61  1  0.10192403  0.79143179  0.08782878  1
  N  N62  1  0.88308687  0.87648792  0.87094495  1
  N  N63  1  0.76399987  0.74601385  0.57426414  1
  N  N64  1  0.55272804  0.87538424  0.34282659  1
  N  N65  1  0.43064483  0.79002570  0.09783894  1
  N  N66  1  0.18077770  0.89766997  0.82389828  1
  N  N67  1  0.13778711  0.74912607  0.58324306  1
  N  N68  1  0.89205972  0.86845920  0.34169867  1
  N  N69  1  0.77713701  0.75785795  0.09820127  1
  N  N70  1  0.57653580  0.88704527  0.82705964  1
  N  N71  1  0.44536806  0.76304832  0.60441414  1
