# generated using pymatgen
data_Gd5Al31N36
_symmetry_space_group_name_H-M   'P 1'
_cell_length_a   9.70608385
_cell_length_b   9.69856956
_cell_length_c   10.48115912
_cell_angle_alpha   89.80358839
_cell_angle_beta   89.44197403
_cell_angle_gamma   60.21184934
_symmetry_Int_Tables_number   1
_chemical_formula_structural   Gd5Al31N36
_chemical_formula_sum   'Gd5 Al31 N36'
_cell_volume   856.23632583
_cell_formula_units_Z   1
loop_
 _symmetry_equiv_pos_site_id
 _symmetry_equiv_pos_as_xyz
  1  'x, y, z'
loop_
 _atom_site_type_symbol
 _atom_site_label
 _atom_site_symmetry_multiplicity
 _atom_site_fract_x
 _atom_site_fract_y
 _atom_site_fract_z
 _atom_site_occupancy
  Al  Al0  1  0.11407031  0.09562984  0.30870399  1
  Al  Al1  1  0.22100607  0.20272293  0.06028682  1
  Al  Al2  1  0.79273029  0.08559504  0.88725061  1
  Al  Al3  1  0.43542391  0.10021597  0.30182909  1
  Al  Al4  1  0.55057868  0.20156971  0.05816900  1
  Al  Al5  1  0.12446699  0.08582588  0.81639560  1
  Al  Al6  1  0.23227794  0.19836741  0.56059487  1
  Al  Al7  1  0.76409297  0.10244039  0.36677179  1
  Al  Al8  1  0.89269792  0.20208240  0.12851039  1
  Al  Al9  1  0.45339766  0.09585164  0.81018692  1
  Al  Al10  1  0.53700011  0.21280813  0.54778967  1
  Al  Al11  1  0.11114531  0.42304452  0.31690706  1
  Al  Al12  1  0.79987575  0.41093376  0.88132017  1
  Al  Al13  1  0.87278220  0.54536024  0.62272787  1
  Al  Al14  1  0.43217363  0.42510631  0.31053978  1
  Al  Al15  1  0.11902489  0.41995753  0.79601498  1
  Al  Al16  1  0.22642072  0.53525023  0.56156584  1
  Al  Al17  1  0.77523006  0.43430821  0.36834871  1
  Al  Al18  1  0.89295007  0.53324636  0.13210751  1
  Al  Al19  1  0.45871964  0.41405216  0.79739074  1
  Al  Al20  1  0.54220765  0.54539281  0.53804451  1
  Al  Al21  1  0.10829624  0.76779487  0.31708338  1
  Al  Al22  1  0.21013788  0.88794609  0.06676638  1
  Al  Al23  1  0.79393760  0.75650522  0.88836855  1
  Al  Al24  1  0.43089455  0.77803007  0.30854534  1
  Al  Al25  1  0.55057487  0.88472868  0.06330009  1
  Al  Al26  1  0.12298536  0.75656137  0.80416846  1
  Al  Al27  1  0.23358349  0.86836982  0.55316230  1
  Al  Al28  1  0.77094178  0.75784891  0.36990743  1
  Al  Al29  1  0.87901039  0.88107207  0.13811249  1
  Al  Al30  1  0.54190193  0.87933219  0.54270034  1
  Gd  Gd31  1  0.89106916  0.21105069  0.61050499  1
  Gd  Gd32  1  0.20925100  0.54676507  0.05391910  1
  Gd  Gd33  1  0.56116516  0.53638139  0.08595321  1
  Gd  Gd34  1  0.88078382  0.87035241  0.61196183  1
  Gd  Gd35  1  0.45394090  0.75722157  0.80251383  1
  N  N36  1  0.21843478  0.20485480  0.37519789  1
  N  N37  1  0.11640601  0.09611467  0.12523870  1
  N  N38  1  0.89773577  0.19671468  0.82892902  1
  N  N39  1  0.75312031  0.10996124  0.54555813  1
  N  N40  1  0.53380210  0.21224448  0.36431698  1
  N  N41  1  0.44170306  0.09728769  0.11869370  1
  N  N42  1  0.22638396  0.20570159  0.87166651  1
  N  N43  1  0.15917848  0.06741072  0.63217199  1
  N  N44  1  0.87906757  0.21220413  0.31869105  1
  N  N45  1  0.78005180  0.09363341  0.07479289  1
  N  N46  1  0.55835197  0.20423454  0.86912949  1
  N  N47  1  0.44995018  0.09168254  0.62076208  1
  N  N48  1  0.21188875  0.54476928  0.37234702  1
  N  N49  1  0.11331783  0.40539802  0.13467848  1
  N  N50  1  0.88413978  0.54214906  0.81180963  1
  N  N51  1  0.76242014  0.45535045  0.54795926  1
  N  N52  1  0.54112422  0.54559979  0.34661032  1
  N  N53  1  0.44611230  0.39936293  0.13368974  1
  N  N54  1  0.22965596  0.53099272  0.83766674  1
  N  N55  1  0.11167570  0.42157466  0.61139907  1
  N  N56  1  0.87832182  0.54467179  0.31343830  1
  N  N57  1  0.82169914  0.40518496  0.06174300  1
  N  N58  1  0.57450626  0.50601936  0.86474924  1
  N  N59  1  0.44821094  0.42440860  0.60870064  1
  N  N60  1  0.21235903  0.88178935  0.37189228  1
  N  N61  1  0.10171983  0.79017923  0.13805545  1
  N  N62  1  0.89671552  0.86750733  0.83200158  1
  N  N63  1  0.76195611  0.74526170  0.55128637  1
  N  N64  1  0.54162696  0.88536621  0.35885815  1
  N  N65  1  0.42538280  0.79788391  0.12439398  1
  N  N66  1  0.20266606  0.87797225  0.88517729  1
  N  N67  1  0.14850595  0.74655606  0.62026433  1
  N  N68  1  0.87373153  0.87812993  0.32689227  1
  N  N69  1  0.79125713  0.75190470  0.07486791  1
  N  N70  1  0.56942980  0.88844197  0.88051710  1
  N  N71  1  0.44951153  0.75688112  0.58693295  1
