# generated using pymatgen
data_Gd5Al31N36
_symmetry_space_group_name_H-M   'P 1'
_cell_length_a   9.70722164
_cell_length_b   9.71193596
_cell_length_c   10.27581622
_cell_angle_alpha   89.63540043
_cell_angle_beta   89.96677734
_cell_angle_gamma   59.81676076
_symmetry_Int_Tables_number   1
_chemical_formula_structural   Gd5Al31N36
_chemical_formula_sum   'Gd5 Al31 N36'
_cell_volume   837.39828015
_cell_formula_units_Z   1
loop_
 _symmetry_equiv_pos_site_id
 _symmetry_equiv_pos_as_xyz
  1  'x, y, z'
loop_
 _atom_site_type_symbol
 _atom_site_label
 _atom_site_symmetry_multiplicity
 _atom_site_fract_x
 _atom_site_fract_y
 _atom_site_fract_z
 _atom_site_occupancy
  Al  Al0  1  0.11865238  0.09443896  0.38918524  1
  Al  Al1  1  0.22218631  0.20171386  0.14479789  1
  Al  Al2  1  0.77415291  0.09648967  0.91530561  1
  Al  Al3  1  0.44289931  0.09828996  0.39549897  1
  Al  Al4  1  0.55628395  0.19783301  0.14680091  1
  Al  Al5  1  0.10564271  0.09878949  0.90814660  1
  Al  Al6  1  0.22986682  0.20158581  0.64618617  1
  Al  Al7  1  0.77178715  0.09767390  0.38659069  1
  Al  Al8  1  0.89290764  0.20362152  0.14784750  1
  Al  Al9  1  0.44891612  0.09735597  0.89550552  1
  Al  Al10  1  0.54989731  0.20465881  0.64664006  1
  Al  Al11  1  0.11099616  0.42583382  0.40582373  1
  Al  Al12  1  0.78263577  0.42348348  0.90201155  1
  Al  Al13  1  0.88283388  0.54158654  0.64733601  1
  Al  Al14  1  0.44379573  0.42392136  0.41327833  1
  Al  Al15  1  0.10640243  0.42449287  0.88998124  1
  Al  Al16  1  0.22515709  0.53731948  0.64885395  1
  Al  Al17  1  0.78163804  0.42895151  0.40159713  1
  Al  Al18  1  0.89153637  0.53200751  0.14734005  1
  Al  Al19  1  0.45169292  0.41441223  0.88431490  1
  Al  Al20  1  0.55936017  0.53312367  0.63954802  1
  Al  Al21  1  0.11704784  0.75776957  0.39852584  1
  Al  Al22  1  0.21790413  0.88298898  0.15062590  1
  Al  Al23  1  0.77825713  0.76310409  0.90738404  1
  Al  Al24  1  0.44599807  0.76382134  0.40730709  1
  Al  Al25  1  0.55087627  0.87972077  0.15130956  1
  Al  Al26  1  0.10169251  0.77285516  0.90373532  1
  Al  Al27  1  0.22497389  0.87355361  0.63155927  1
  Al  Al28  1  0.77727917  0.75665339  0.39017922  1
  Al  Al29  1  0.88653862  0.87515151  0.14940474  1
  Al  Al30  1  0.55766415  0.87719383  0.63898658  1
  Gd  Gd31  1  0.89586232  0.19942396  0.65070286  1
  Gd  Gd32  1  0.21979075  0.53068454  0.14283294  1
  Gd  Gd33  1  0.55325840  0.53890662  0.15281383  1
  Gd  Gd34  1  0.88516185  0.86747069  0.65042056  1
  Gd  Gd35  1  0.43974722  0.76813540  0.87356549  1
  N  N36  1  0.22379571  0.21039368  0.33362661  1
  N  N37  1  0.11139170  0.09610388  0.09605562  1
  N  N38  1  0.88669892  0.20449604  0.87001140  1
  N  N39  1  0.74888817  0.10806987  0.56776879  1
  N  N40  1  0.54848393  0.21166938  0.33382083  1
  N  N41  1  0.44461440  0.09426715  0.08628412  1
  N  N42  1  0.22394134  0.20056894  0.83624081  1
  N  N43  1  0.14339960  0.08382166  0.57132334  1
  N  N44  1  0.89034193  0.20689205  0.34062952  1
  N  N45  1  0.77554768  0.09512237  0.10290265  1
  N  N46  1  0.56169827  0.19792408  0.83364850  1
  N  N47  1  0.44353150  0.09777661  0.58344017  1
  N  N48  1  0.22440755  0.53397287  0.36226556  1
  N  N49  1  0.09643190  0.40955608  0.07360797  1
  N  N50  1  0.88329844  0.54401761  0.83660896  1
  N  N51  1  0.77252885  0.44566680  0.58366469  1
  N  N52  1  0.55356506  0.53876660  0.37184415  1
  N  N53  1  0.46120260  0.39557064  0.06541578  1
  N  N54  1  0.21763490  0.54322410  0.84273805  1
  N  N55  1  0.10852681  0.42762601  0.59564138  1
  N  N56  1  0.89361080  0.53492252  0.33552923  1
  N  N57  1  0.79812341  0.41771797  0.08676307  1
  N  N58  1  0.57419653  0.50703535  0.82875082  1
  N  N59  1  0.44349056  0.42355702  0.59878387  1
  N  N60  1  0.22631195  0.86996611  0.34252576  1
  N  N61  1  0.10139014  0.78807613  0.08929915  1
  N  N62  1  0.88327993  0.87596161  0.87058552  1
  N  N63  1  0.76456350  0.74638141  0.57268877  1
  N  N64  1  0.55328049  0.87529318  0.33997665  1
  N  N65  1  0.42871688  0.79268655  0.09175867  1
  N  N66  1  0.18056864  0.89737663  0.82504999  1
  N  N67  1  0.13750982  0.74847183  0.58134550  1
  N  N68  1  0.89133208  0.86862395  0.34109263  1
  N  N69  1  0.77578250  0.75797481  0.09668171  1
  N  N70  1  0.57654483  0.88936036  0.82428934  1
  N  N71  1  0.44779994  0.76208576  0.60126971  1
