# generated using pymatgen
data_Gd5Al31N36
_symmetry_space_group_name_H-M   'P 1'
_cell_length_a   9.69183594
_cell_length_b   9.70581820
_cell_length_c   10.52316307
_cell_angle_alpha   89.55407744
_cell_angle_beta   89.10872378
_cell_angle_gamma   60.13489627
_symmetry_Int_Tables_number   1
_chemical_formula_structural   Gd5Al31N36
_chemical_formula_sum   'Gd5 Al31 N36'
_cell_volume   858.32413721
_cell_formula_units_Z   1
loop_
 _symmetry_equiv_pos_site_id
 _symmetry_equiv_pos_as_xyz
  1  'x, y, z'
loop_
 _atom_site_type_symbol
 _atom_site_label
 _atom_site_symmetry_multiplicity
 _atom_site_fract_x
 _atom_site_fract_y
 _atom_site_fract_z
 _atom_site_occupancy
  Al  Al0  1  0.11249412  0.09869557  0.33634125  1
  Al  Al1  1  0.22497541  0.19848225  0.08024455  1
  Al  Al2  1  0.79482759  0.08189619  0.91977343  1
  Al  Al3  1  0.43375957  0.10221942  0.32892762  1
  Al  Al4  1  0.55042078  0.20142847  0.08576335  1
  Al  Al5  1  0.12630984  0.08033805  0.84224326  1
  Al  Al6  1  0.23158092  0.19461885  0.58989122  1
  Al  Al7  1  0.76445746  0.10173908  0.39543899  1
  Al  Al8  1  0.89136004  0.20200415  0.15683863  1
  Al  Al9  1  0.45630834  0.09043895  0.83548139  1
  Al  Al10  1  0.53608272  0.21229976  0.57442339  1
  Al  Al11  1  0.10335637  0.43496713  0.41355158  1
  Al  Al12  1  0.79910546  0.40835703  0.91486475  1
  Al  Al13  1  0.87706243  0.54231419  0.65049657  1
  Al  Al14  1  0.43096045  0.42579212  0.33915449  1
  Al  Al15  1  0.10981040  0.41904791  0.88845967  1
  Al  Al16  1  0.22804538  0.53731387  0.60783939  1
  Al  Al17  1  0.78000158  0.43164027  0.39290324  1
  Al  Al18  1  0.90273240  0.53048525  0.15529813  1
  Al  Al19  1  0.46243622  0.40897156  0.82588885  1
  Al  Al20  1  0.54322253  0.54634811  0.56164748  1
  Al  Al21  1  0.10704573  0.77052942  0.34436160  1
  Al  Al22  1  0.20896406  0.89278061  0.09535935  1
  Al  Al23  1  0.79424531  0.75349728  0.91991957  1
  Al  Al24  1  0.42890540  0.78059792  0.33635289  1
  Al  Al25  1  0.54966504  0.88517926  0.09166924  1
  Al  Al26  1  0.12210035  0.75647640  0.83290404  1
  Al  Al27  1  0.22943635  0.87048252  0.57982442  1
  Al  Al28  1  0.77355306  0.75629481  0.39477910  1
  Al  Al29  1  0.87706917  0.88198732  0.16645898  1
  Al  Al30  1  0.54247890  0.87706040  0.56722017  1
  Gd  Gd31  1  0.88131499  0.21566810  0.64679349  1
  Gd  Gd32  1  0.22083674  0.55691310  0.07911914  1
  Gd  Gd33  1  0.56141256  0.53851245  0.11909420  1
  Gd  Gd34  1  0.87500187  0.87093914  0.64543590  1
  Gd  Gd35  1  0.45721809  0.75202535  0.82910329  1
  N  N36  1  0.21895275  0.20447558  0.40178112  1
  N  N37  1  0.11576850  0.10161809  0.15337172  1
  N  N38  1  0.89976830  0.19377764  0.86394943  1
  N  N39  1  0.75334813  0.10817373  0.57341098  1
  N  N40  1  0.53299283  0.21268509  0.39295450  1
  N  N41  1  0.43985534  0.09903699  0.14603665  1
  N  N42  1  0.23571208  0.18821934  0.89334705  1
  N  N43  1  0.15049619  0.07001160  0.65801275  1
  N  N44  1  0.87806618  0.21125177  0.34469789  1
  N  N45  1  0.77918125  0.09354045  0.10315673  1
  N  N46  1  0.56013965  0.19959482  0.89668199  1
  N  N47  1  0.45014483  0.08918948  0.64706515  1
  N  N48  1  0.21495447  0.55099973  0.40011443  1
  N  N49  1  0.10096925  0.42078064  0.07666624  1
  N  N50  1  0.88549485  0.53694090  0.83859806  1
  N  N51  1  0.76437885  0.45533027  0.57184036  1
  N  N52  1  0.54343345  0.54636106  0.37220671  1
  N  N53  1  0.44980617  0.39628401  0.16364763  1
  N  N54  1  0.23041621  0.52767393  0.85847949  1
  N  N55  1  0.10323905  0.42878738  0.60176714  1
  N  N56  1  0.89435617  0.53681392  0.33734282  1
  N  N57  1  0.81878246  0.40688741  0.09523928  1
  N  N58  1  0.57449615  0.50250963  0.89686654  1
  N  N59  1  0.45296757  0.42275992  0.63845053  1
  N  N60  1  0.21038461  0.88457499  0.39963273  1
  N  N61  1  0.09816602  0.79775627  0.16651749  1
  N  N62  1  0.89754128  0.86440588  0.86492907  1
  N  N63  1  0.76310324  0.74252111  0.57616174  1
  N  N64  1  0.54278115  0.88479932  0.38464626  1
  N  N65  1  0.42271606  0.80095141  0.15338024  1
  N  N66  1  0.20563900  0.87333791  0.91390933  1
  N  N67  1  0.14331985  0.75193501  0.65147778  1
  N  N68  1  0.87221177  0.87915073  0.35347032  1
  N  N69  1  0.78716739  0.75365705  0.10562937  1
  N  N70  1  0.57095384  0.88374621  0.90817232  1
  N  N71  1  0.44680521  0.75754104  0.61321559  1
