# generated using pymatgen
data_Gd5Al31N36
_symmetry_space_group_name_H-M   'P 1'
_cell_length_a   9.71865298
_cell_length_b   9.75179045
_cell_length_c   10.43075313
_cell_angle_alpha   89.60282742
_cell_angle_beta   89.62610624
_cell_angle_gamma   59.81510374
_symmetry_Int_Tables_number   1
_chemical_formula_structural   Gd5Al31N36
_chemical_formula_sum   'Gd5 Al31 N36'
_cell_volume   854.49877485
_cell_formula_units_Z   1
loop_
 _symmetry_equiv_pos_site_id
 _symmetry_equiv_pos_as_xyz
  1  'x, y, z'
loop_
 _atom_site_type_symbol
 _atom_site_label
 _atom_site_symmetry_multiplicity
 _atom_site_fract_x
 _atom_site_fract_y
 _atom_site_fract_z
 _atom_site_occupancy
  Al  Al0  1  0.11189980  0.10259647  0.39166132  1
  Al  Al1  1  0.22082211  0.20297678  0.14879538  1
  Al  Al2  1  0.77785395  0.09517289  0.91763352  1
  Al  Al3  1  0.43637294  0.10873459  0.39323833  1
  Al  Al4  1  0.55589728  0.19409061  0.15164124  1
  Al  Al5  1  0.10897179  0.10496720  0.91314735  1
  Al  Al6  1  0.23035968  0.20148183  0.65103956  1
  Al  Al7  1  0.77099917  0.09773233  0.39201082  1
  Al  Al8  1  0.89777632  0.19789206  0.15464918  1
  Al  Al9  1  0.45039252  0.09687541  0.90412504  1
  Al  Al10  1  0.54829434  0.20823318  0.64756194  1
  Al  Al11  1  0.10880378  0.42648761  0.41353389  1
  Al  Al12  1  0.79216852  0.41848576  0.91386033  1
  Al  Al13  1  0.88054505  0.54282792  0.64948418  1
  Al  Al14  1  0.43793838  0.42129667  0.40686148  1
  Al  Al15  1  0.11049490  0.42381339  0.89137973  1
  Al  Al16  1  0.22609641  0.53964286  0.65152348  1
  Al  Al17  1  0.78522524  0.42850386  0.39202491  1
  Al  Al18  1  0.89663039  0.52802614  0.15146905  1
  Al  Al19  1  0.45061226  0.41246511  0.89552416  1
  Al  Al20  1  0.54958981  0.54864011  0.56556274  1
  Al  Al21  1  0.10823598  0.75807667  0.40307215  1
  Al  Al22  1  0.21902857  0.88198425  0.08893146  1
  Al  Al23  1  0.78465358  0.75940907  0.91820163  1
  Al  Al24  1  0.43113856  0.77490509  0.33258200  1
  Al  Al25  1  0.55627230  0.87849116  0.13066573  1
  Al  Al26  1  0.10649297  0.76484591  0.91209356  1
  Al  Al27  1  0.23155155  0.87110678  0.56581891  1
  Al  Al28  1  0.78396988  0.75386060  0.38814238  1
  Al  Al29  1  0.88817321  0.87604108  0.15502005  1
  Al  Al30  1  0.55006887  0.87421834  0.56545978  1
  Gd  Gd31  1  0.88710917  0.21002220  0.65116983  1
  Gd  Gd32  1  0.21190299  0.53028126  0.15344134  1
  Gd  Gd33  1  0.55566838  0.52764292  0.12516078  1
  Gd  Gd34  1  0.87810812  0.86993198  0.65750271  1
  Gd  Gd35  1  0.45267083  0.75798347  0.82699953  1
  N  N36  1  0.21917698  0.21519880  0.33595772  1
  N  N37  1  0.11099531  0.10052236  0.10128708  1
  N  N38  1  0.89282002  0.20173229  0.86805179  1
  N  N39  1  0.74922206  0.10810210  0.57031282  1
  N  N40  1  0.54967762  0.21115720  0.33530288  1
  N  N41  1  0.44169437  0.09573988  0.09516772  1
  N  N42  1  0.22806552  0.20090157  0.83838216  1
  N  N43  1  0.13695142  0.09188329  0.57670732  1
  N  N44  1  0.88838225  0.20654211  0.34294779  1
  N  N45  1  0.77568933  0.09539759  0.10409964  1
  N  N46  1  0.56302865  0.19853916  0.83389661  1
  N  N47  1  0.44143350  0.10202240  0.58104462  1
  N  N48  1  0.21874180  0.53578936  0.36912049  1
  N  N49  1  0.09765779  0.40786222  0.07222336  1
  N  N50  1  0.88564712  0.54185038  0.83869502  1
  N  N51  1  0.76994990  0.45165654  0.57390951  1
  N  N52  1  0.54847387  0.54203611  0.37098738  1
  N  N53  1  0.44581598  0.38697703  0.07382178  1
  N  N54  1  0.22169015  0.54156621  0.84260942  1
  N  N55  1  0.10827064  0.42775847  0.59985826  1
  N  N56  1  0.89770421  0.53420730  0.33589404  1
  N  N57  1  0.81061709  0.40803864  0.09792326  1
  N  N58  1  0.57434529  0.50931689  0.89250154  1
  N  N59  1  0.44429372  0.42677658  0.59224259  1
  N  N60  1  0.21572286  0.87602427  0.37930655  1
  N  N61  1  0.09905647  0.78120175  0.09808353  1
  N  N62  1  0.88939576  0.87336729  0.87396633  1
  N  N63  1  0.76968179  0.74348844  0.57004394  1
  N  N64  1  0.55244402  0.88055308  0.36337160  1
  N  N65  1  0.42678505  0.79127694  0.15001619  1
  N  N66  1  0.20585297  0.88541186  0.89991439  1
  N  N67  1  0.13054426  0.75153194  0.58825766  1
  N  N68  1  0.88856629  0.87194366  0.34298771  1
  N  N69  1  0.78473963  0.75316042  0.10677819  1
  N  N70  1  0.57555651  0.88363478  0.87780341  1
  N  N71  1  0.44559910  0.76338267  0.60609162  1
