# generated using pymatgen
data_Gd5Al31N36
_symmetry_space_group_name_H-M   'P 1'
_cell_length_a   9.68599657
_cell_length_b   9.68478904
_cell_length_c   10.29642470
_cell_angle_alpha   89.89979860
_cell_angle_beta   90.00729752
_cell_angle_gamma   59.89536677
_symmetry_Int_Tables_number   1
_chemical_formula_structural   Gd5Al31N36
_chemical_formula_sum   'Gd5 Al31 N36'
_cell_volume   835.58711056
_cell_formula_units_Z   1
loop_
 _symmetry_equiv_pos_site_id
 _symmetry_equiv_pos_as_xyz
  1  'x, y, z'
loop_
 _atom_site_type_symbol
 _atom_site_label
 _atom_site_symmetry_multiplicity
 _atom_site_fract_x
 _atom_site_fract_y
 _atom_site_fract_z
 _atom_site_occupancy
  Al  Al0  1  0.11055021  0.09676456  0.28805994  1
  Al  Al1  1  0.22193209  0.20289098  0.05045169  1
  Al  Al2  1  0.77115161  0.09829405  0.80917656  1
  Al  Al3  1  0.44436316  0.09689104  0.29696961  1
  Al  Al4  1  0.55491717  0.19925556  0.04710145  1
  Al  Al5  1  0.11480960  0.09348178  0.80713583  1
  Al  Al6  1  0.23185566  0.19833801  0.54991981  1
  Al  Al7  1  0.77452711  0.09565008  0.28257474  1
  Al  Al8  1  0.89430485  0.20307114  0.04574807  1
  Al  Al9  1  0.44697075  0.09967429  0.80062843  1
  Al  Al10  1  0.55100056  0.20408327  0.54742269  1
  Al  Al11  1  0.10736699  0.42478704  0.30552751  1
  Al  Al12  1  0.77822438  0.42785399  0.79554256  1
  Al  Al13  1  0.88022275  0.54202310  0.54871032  1
  Al  Al14  1  0.44595725  0.41924569  0.30723624  1
  Al  Al15  1  0.11014776  0.42529250  0.78914698  1
  Al  Al16  1  0.22656139  0.53638022  0.54853112  1
  Al  Al17  1  0.78474488  0.42458306  0.29242133  1
  Al  Al18  1  0.89304563  0.53198133  0.04778334  1
  Al  Al19  1  0.44790601  0.42089897  0.78177311  1
  Al  Al20  1  0.55661557  0.53758228  0.53294137  1
  Al  Al21  1  0.10655024  0.76862817  0.29412135  1
  Al  Al22  1  0.21330888  0.88623760  0.05416899  1
  Al  Al23  1  0.77753739  0.76041916  0.80732888  1
  Al  Al24  1  0.44025165  0.77150136  0.30665829  1
  Al  Al25  1  0.55313835  0.88321843  0.05445158  1
  Al  Al26  1  0.11383166  0.76195292  0.79599111  1
  Al  Al27  1  0.23089637  0.86892618  0.53652422  1
  Al  Al28  1  0.77847664  0.75992763  0.28843680  1
  Al  Al29  1  0.88744704  0.87539642  0.04633625  1
  Al  Al30  1  0.55542370  0.87317303  0.53688104  1
  Gd  Gd31  1  0.89848049  0.20057535  0.55223232  1
  Gd  Gd32  1  0.21722837  0.53585131  0.04706040  1
  Gd  Gd33  1  0.55331676  0.54181319  0.05815048  1
  Gd  Gd34  1  0.88659818  0.86563696  0.55216499  1
  Gd  Gd35  1  0.44122145  0.77210243  0.78063632  1
  N  N36  1  0.22284896  0.20165105  0.36098847  1
  N  N37  1  0.10958962  0.09989898  0.10328943  1
  N  N38  1  0.89083516  0.20694707  0.85222977  1
  N  N39  1  0.74958694  0.10809918  0.62782529  1
  N  N40  1  0.56041687  0.19812636  0.36087637  1
  N  N41  1  0.44182781  0.09903538  0.11043187  1
  N  N42  1  0.22415890  0.20800117  0.86000177  1
  N  N43  1  0.15372657  0.06905648  0.62330052  1
  N  N44  1  0.88818475  0.20236682  0.33332615  1
  N  N45  1  0.77538538  0.09577959  0.09374887  1
  N  N46  1  0.54891107  0.21188605  0.86022184  1
  N  N47  1  0.44767162  0.09118219  0.60866768  1
  N  N48  1  0.21722053  0.54246124  0.35571558  1
  N  N49  1  0.09862840  0.41126705  0.12120414  1
  N  N50  1  0.89201298  0.53578234  0.85887694  1
  N  N51  1  0.76311405  0.45016943  0.60982275  1
  N  N52  1  0.55890648  0.53581217  0.34260853  1
  N  N53  1  0.45552065  0.39573441  0.12816446  1
  N  N54  1  0.22436447  0.53450763  0.82703395  1
  N  N55  1  0.10693228  0.42576759  0.60074673  1
  N  N56  1  0.88490114  0.54233284  0.36029366  1
  N  N57  1  0.80382462  0.41370742  0.10950700  1
  N  N58  1  0.56215145  0.51790426  0.84037898  1
  N  N59  1  0.44736754  0.42433123  0.59242843  1
  N  N60  1  0.21274042  0.88064170  0.35283720  1
  N  N61  1  0.09838925  0.78851825  0.11266816  1
  N  N62  1  0.89282406  0.86807042  0.85294422  1
  N  N63  1  0.75590525  0.74891411  0.62212635  1
  N  N64  1  0.56136646  0.87662956  0.35139326  1
  N  N65  1  0.42603946  0.79857769  0.11874473  1
  N  N66  1  0.19882728  0.88219513  0.87140365  1
  N  N67  1  0.14393323  0.75088556  0.61161895  1
  N  N68  1  0.88378093  0.87534208  0.33351709  1
  N  N69  1  0.78078201  0.75596645  0.10199437  1
  N  N70  1  0.56705923  0.88974315  0.87102396  1
  N  N71  1  0.44929864  0.75794081  0.56098356  1
