# generated using pymatgen
data_Gd5Al31N36
_symmetry_space_group_name_H-M   'P 1'
_cell_length_a   9.74228798
_cell_length_b   9.70916529
_cell_length_c   10.38358067
_cell_angle_alpha   89.79341177
_cell_angle_beta   89.61021717
_cell_angle_gamma   60.24745063
_symmetry_Int_Tables_number   1
_chemical_formula_structural   Gd5Al31N36
_chemical_formula_sum   'Gd5 Al31 N36'
_cell_volume   852.68392928
_cell_formula_units_Z   1
loop_
 _symmetry_equiv_pos_site_id
 _symmetry_equiv_pos_as_xyz
  1  'x, y, z'
loop_
 _atom_site_type_symbol
 _atom_site_label
 _atom_site_symmetry_multiplicity
 _atom_site_fract_x
 _atom_site_fract_y
 _atom_site_fract_z
 _atom_site_occupancy
  Al  Al0  1  0.11812226  0.09474880  0.30951558  1
  Al  Al1  1  0.22249560  0.20252238  0.06038861  1
  Al  Al2  1  0.77147568  0.09849724  0.81563187  1
  Al  Al3  1  0.43968197  0.09985191  0.30548632  1
  Al  Al4  1  0.55528254  0.19908222  0.05906590  1
  Al  Al5  1  0.11908592  0.08899011  0.81414737  1
  Al  Al6  1  0.23121801  0.19957388  0.56163290  1
  Al  Al7  1  0.76494137  0.09634917  0.30778913  1
  Al  Al8  1  0.89613958  0.20398310  0.12623735  1
  Al  Al9  1  0.44863949  0.09729973  0.81047373  1
  Al  Al10  1  0.54395567  0.20772966  0.55852688  1
  Al  Al11  1  0.11239945  0.42351509  0.31738877  1
  Al  Al12  1  0.79827889  0.40956682  0.87727793  1
  Al  Al13  1  0.87233332  0.54361503  0.62477064  1
  Al  Al14  1  0.43774947  0.42180579  0.31689663  1
  Al  Al15  1  0.11704938  0.42118327  0.79775028  1
  Al  Al16  1  0.22634101  0.53553088  0.56270231  1
  Al  Al17  1  0.77483309  0.43759464  0.36883422  1
  Al  Al18  1  0.89382041  0.53412101  0.13031787  1
  Al  Al19  1  0.45454716  0.41730446  0.79759952  1
  Al  Al20  1  0.54292444  0.54475605  0.54102542  1
  Al  Al21  1  0.10422529  0.77016234  0.31493618  1
  Al  Al22  1  0.21136834  0.88834649  0.06606863  1
  Al  Al23  1  0.78908696  0.75597094  0.88267996  1
  Al  Al24  1  0.43195874  0.77762730  0.31009752  1
  Al  Al25  1  0.55007525  0.88533667  0.06389293  1
  Al  Al26  1  0.11826548  0.75990776  0.80723041  1
  Al  Al27  1  0.23508546  0.86690116  0.55401003  1
  Al  Al28  1  0.77166392  0.75833095  0.37002411  1
  Al  Al29  1  0.88818165  0.87911498  0.08527486  1
  Al  Al30  1  0.54156428  0.88000541  0.54561168  1
  Gd  Gd31  1  0.89634117  0.20092097  0.58659773  1
  Gd  Gd32  1  0.21679340  0.54131695  0.05746750  1
  Gd  Gd33  1  0.56246075  0.53501388  0.08723106  1
  Gd  Gd34  1  0.88972529  0.86595638  0.58561840  1
  Gd  Gd35  1  0.44959163  0.75878375  0.80375306  1
  N  N36  1  0.22207655  0.20510882  0.37468603  1
  N  N37  1  0.11714082  0.09628464  0.12557785  1
  N  N38  1  0.89702695  0.20006215  0.82225749  1
  N  N39  1  0.73710109  0.11222832  0.63464071  1
  N  N40  1  0.55111477  0.20363599  0.37356039  1
  N  N41  1  0.44261130  0.09783785  0.12049317  1
  N  N42  1  0.22448724  0.20638940  0.87159051  1
  N  N43  1  0.15878224  0.06714266  0.63074466  1
  N  N44  1  0.88361610  0.21158887  0.32765427  1
  N  N45  1  0.77125633  0.09805894  0.11869263  1
  N  N46  1  0.55257842  0.20742882  0.87316031  1
  N  N47  1  0.44441021  0.09312213  0.62052315  1
  N  N48  1  0.21444034  0.54399588  0.37100071  1
  N  N49  1  0.11299855  0.40573981  0.13367074  1
  N  N50  1  0.88316896  0.54204016  0.81274742  1
  N  N51  1  0.76237652  0.45274081  0.55102072  1
  N  N52  1  0.54346661  0.54564763  0.34774638  1
  N  N53  1  0.45151664  0.39496275  0.13919246  1
  N  N54  1  0.22748023  0.53214081  0.83988067  1
  N  N55  1  0.11005904  0.42325605  0.61104182  1
  N  N56  1  0.87974357  0.54543580  0.31389920  1
  N  N57  1  0.82133746  0.40600512  0.06128769  1
  N  N58  1  0.57220028  0.50670363  0.86490533  1
  N  N59  1  0.44534844  0.42608534  0.60731888  1
  N  N60  1  0.21342395  0.88054841  0.37059372  1
  N  N61  1  0.09880235  0.79133209  0.13393155  1
  N  N62  1  0.89632449  0.86957297  0.84898933  1
  N  N63  1  0.75938004  0.74459280  0.55648402  1
  N  N64  1  0.54387570  0.88458938  0.35934984  1
  N  N65  1  0.42551383  0.79728971  0.12417800  1
  N  N66  1  0.20071369  0.88087084  0.88493882  1
  N  N67  1  0.15120490  0.74572136  0.62463078  1
  N  N68  1  0.88098296  0.87739113  0.35386460  1
  N  N69  1  0.78881797  0.75166392  0.07259333  1
  N  N70  1  0.56622349  0.88983637  0.87935549  1
  N  N71  1  0.44956895  0.75676393  0.58644865  1
