# generated using pymatgen
data_Gd5Al31N36
_symmetry_space_group_name_H-M   'P 1'
_cell_length_a   9.74168059
_cell_length_b   9.70980781
_cell_length_c   10.37225992
_cell_angle_alpha   89.90807858
_cell_angle_beta   89.59809749
_cell_angle_gamma   60.20615036
_symmetry_Int_Tables_number   1
_chemical_formula_structural   Gd5Al31N36
_chemical_formula_sum   'Gd5 Al31 N36'
_cell_volume   851.40316098
_cell_formula_units_Z   1
loop_
 _symmetry_equiv_pos_site_id
 _symmetry_equiv_pos_as_xyz
  1  'x, y, z'
loop_
 _atom_site_type_symbol
 _atom_site_label
 _atom_site_symmetry_multiplicity
 _atom_site_fract_x
 _atom_site_fract_y
 _atom_site_fract_z
 _atom_site_occupancy
  Al  Al0  1  0.11733499  0.09520821  0.30925714  1
  Al  Al1  1  0.22285312  0.20225067  0.06071038  1
  Al  Al2  1  0.77072760  0.09878614  0.81786862  1
  Al  Al3  1  0.43948957  0.10034161  0.30599907  1
  Al  Al4  1  0.55553023  0.19897144  0.05949582  1
  Al  Al5  1  0.11936003  0.08903841  0.81394323  1
  Al  Al6  1  0.23009122  0.20010660  0.56168443  1
  Al  Al7  1  0.76595274  0.09437251  0.30360616  1
  Al  Al8  1  0.89624910  0.20403441  0.12533081  1
  Al  Al9  1  0.44853127  0.09708044  0.81054870  1
  Al  Al10  1  0.54489575  0.20595718  0.55928154  1
  Al  Al11  1  0.11209479  0.42394809  0.31767417  1
  Al  Al12  1  0.79862449  0.40873855  0.87831441  1
  Al  Al13  1  0.87270883  0.54346571  0.62608335  1
  Al  Al14  1  0.43850241  0.42141040  0.31786283  1
  Al  Al15  1  0.11812614  0.42053232  0.79879198  1
  Al  Al16  1  0.22627789  0.53572076  0.56337099  1
  Al  Al17  1  0.77544052  0.43725625  0.36884989  1
  Al  Al18  1  0.89341396  0.53523259  0.13016555  1
  Al  Al19  1  0.45462270  0.41731779  0.79804592  1
  Al  Al20  1  0.54317537  0.54463883  0.54053179  1
  Al  Al21  1  0.10176933  0.77190830  0.31067617  1
  Al  Al22  1  0.21286870  0.88822582  0.06605182  1
  Al  Al23  1  0.78725089  0.75342637  0.88374872  1
  Al  Al24  1  0.43138491  0.77759054  0.31191363  1
  Al  Al25  1  0.55084801  0.88502515  0.06533348  1
  Al  Al26  1  0.11892725  0.75992353  0.80974946  1
  Al  Al27  1  0.23294949  0.86741335  0.55380830  1
  Al  Al28  1  0.77086502  0.76029496  0.36554256  1
  Al  Al29  1  0.89183913  0.88151182  0.06185232  1
  Al  Al30  1  0.54200492  0.88009338  0.54596702  1
  Gd  Gd31  1  0.89401327  0.20029558  0.58715379  1
  Gd  Gd32  1  0.21784233  0.54000562  0.05904752  1
  Gd  Gd33  1  0.56192761  0.53583270  0.08755290  1
  Gd  Gd34  1  0.89165502  0.86537708  0.57868034  1
  Gd  Gd35  1  0.45055113  0.75809708  0.80186348  1
  N  N36  1  0.22163793  0.20544342  0.37481218  1
  N  N37  1  0.11732242  0.09650038  0.12519241  1
  N  N38  1  0.89714072  0.19911189  0.82323395  1
  N  N39  1  0.73742663  0.10780991  0.63801840  1
  N  N40  1  0.55268864  0.20257429  0.37374186  1
  N  N41  1  0.44255233  0.09821166  0.12100206  1
  N  N42  1  0.22477150  0.20602310  0.87165718  1
  N  N43  1  0.15635509  0.06843216  0.62993363  1
  N  N44  1  0.88314480  0.21139566  0.32687349  1
  N  N45  1  0.77282407  0.09711466  0.11513670  1
  N  N46  1  0.55146503  0.20791246  0.87370345  1
  N  N47  1  0.44310622  0.09343060  0.62058487  1
  N  N48  1  0.21372336  0.54532483  0.37071058  1
  N  N49  1  0.11260934  0.40557015  0.13394028  1
  N  N50  1  0.88452000  0.54036465  0.81435699  1
  N  N51  1  0.76282197  0.45249985  0.55164447  1
  N  N52  1  0.54406386  0.54530206  0.34803249  1
  N  N53  1  0.45275569  0.39450280  0.14024767  1
  N  N54  1  0.22779045  0.53209738  0.84129938  1
  N  N55  1  0.11028082  0.42369257  0.61186432  1
  N  N56  1  0.87960856  0.54591393  0.31445626  1
  N  N57  1  0.82075562  0.40658542  0.06205737  1
  N  N58  1  0.57268434  0.50666904  0.86451768  1
  N  N59  1  0.44608871  0.42544168  0.60724141  1
  N  N60  1  0.21130231  0.88087704  0.37008748  1
  N  N61  1  0.09729189  0.79271661  0.12999166  1
  N  N62  1  0.89763996  0.87037993  0.86487625  1
  N  N63  1  0.75873285  0.74596993  0.56128925  1
  N  N64  1  0.54416927  0.88480709  0.35969053  1
  N  N65  1  0.42564319  0.79779921  0.12596869  1
  N  N66  1  0.20270855  0.88108572  0.88445555  1
  N  N67  1  0.15031671  0.74597096  0.62782363  1
  N  N68  1  0.88078356  0.87833779  0.35549279  1
  N  N69  1  0.78784936  0.75247671  0.07364021  1
  N  N70  1  0.56567113  0.88971707  0.87953484  1
  N  N71  1  0.44792365  0.75763796  0.58393213  1
