# generated using pymatgen
data_Gd5Al31N36
_symmetry_space_group_name_H-M   'P 1'
_cell_length_a   9.68825964
_cell_length_b   9.71002342
_cell_length_c   10.54510616
_cell_angle_alpha   89.48470813
_cell_angle_beta   89.09891504
_cell_angle_gamma   60.00520181
_symmetry_Int_Tables_number   1
_chemical_formula_structural   Gd5Al31N36
_chemical_formula_sum   'Gd5 Al31 N36'
_cell_volume   859.04579318
_cell_formula_units_Z   1
loop_
 _symmetry_equiv_pos_site_id
 _symmetry_equiv_pos_as_xyz
  1  'x, y, z'
loop_
 _atom_site_type_symbol
 _atom_site_label
 _atom_site_symmetry_multiplicity
 _atom_site_fract_x
 _atom_site_fract_y
 _atom_site_fract_z
 _atom_site_occupancy
  Al  Al0  1  0.11229329  0.09836770  0.30965192  1
  Al  Al1  1  0.22488761  0.19704587  0.05433642  1
  Al  Al2  1  0.79545714  0.08193784  0.89413994  1
  Al  Al3  1  0.43430184  0.10191323  0.30265630  1
  Al  Al4  1  0.54984501  0.20162003  0.05903905  1
  Al  Al5  1  0.12717648  0.08017924  0.81652650  1
  Al  Al6  1  0.23157781  0.19518082  0.56351752  1
  Al  Al7  1  0.76481588  0.10165266  0.37045001  1
  Al  Al8  1  0.88992955  0.20253083  0.13073575  1
  Al  Al9  1  0.45694829  0.09085317  0.80959046  1
  Al  Al10  1  0.53594800  0.21271054  0.54897351  1
  Al  Al11  1  0.10212269  0.43340414  0.38587846  1
  Al  Al12  1  0.79975269  0.40869045  0.88844390  1
  Al  Al13  1  0.87875492  0.54200288  0.62392494  1
  Al  Al14  1  0.43365755  0.42495693  0.31317646  1
  Al  Al15  1  0.11113407  0.41921958  0.86421604  1
  Al  Al16  1  0.22796768  0.54022430  0.56707796  1
  Al  Al17  1  0.77924095  0.43159535  0.36667121  1
  Al  Al18  1  0.90002250  0.53052038  0.12944996  1
  Al  Al19  1  0.45925662  0.41134342  0.79954035  1
  Al  Al20  1  0.54371564  0.54665130  0.53622114  1
  Al  Al21  1  0.10626122  0.77298134  0.31870982  1
  Al  Al22  1  0.20920213  0.89239620  0.06866781  1
  Al  Al23  1  0.79579366  0.75339537  0.89443694  1
  Al  Al24  1  0.42978389  0.77998456  0.31008687  1
  Al  Al25  1  0.55040578  0.88493269  0.06566796  1
  Al  Al26  1  0.12501061  0.75327473  0.80738949  1
  Al  Al27  1  0.22906821  0.87118873  0.55422225  1
  Al  Al28  1  0.77395950  0.75638977  0.36927407  1
  Al  Al29  1  0.87669648  0.88280553  0.14087926  1
  Al  Al30  1  0.54280739  0.87735187  0.54083813  1
  Gd  Gd31  1  0.88044023  0.21650599  0.62255010  1
  Gd  Gd32  1  0.21661452  0.55587494  0.05900876  1
  Gd  Gd33  1  0.55728239  0.53971657  0.08821787  1
  Gd  Gd34  1  0.87460438  0.87123892  0.62176024  1
  Gd  Gd35  1  0.45857112  0.75323044  0.80182388  1
  N  N36  1  0.21908745  0.20367875  0.37497347  1
  N  N37  1  0.11496040  0.10121157  0.12698829  1
  N  N38  1  0.90075182  0.19366396  0.83912199  1
  N  N39  1  0.75385102  0.10833505  0.54798703  1
  N  N40  1  0.53308556  0.21230307  0.36769266  1
  N  N41  1  0.44006995  0.09884102  0.12003972  1
  N  N42  1  0.23651677  0.18805619  0.86766450  1
  N  N43  1  0.15018722  0.07089912  0.63226646  1
  N  N44  1  0.87760300  0.21126892  0.31818330  1
  N  N45  1  0.77857145  0.09379716  0.07689290  1
  N  N46  1  0.56024612  0.20050738  0.87009092  1
  N  N47  1  0.45048240  0.08906746  0.62119807  1
  N  N48  1  0.21505407  0.55119237  0.37398439  1
  N  N49  1  0.09860084  0.41863216  0.05193363  1
  N  N50  1  0.88717051  0.53668186  0.81236356  1
  N  N51  1  0.76534621  0.45539004  0.54546269  1
  N  N52  1  0.54324941  0.54640039  0.34676454  1
  N  N53  1  0.44963289  0.39562245  0.13848238  1
  N  N54  1  0.23166571  0.52823507  0.84114840  1
  N  N55  1  0.10400703  0.42950404  0.57301429  1
  N  N56  1  0.89335943  0.53701660  0.31089820  1
  N  N57  1  0.81508062  0.40829986  0.06935865  1
  N  N58  1  0.57540713  0.50278411  0.86736200  1
  N  N59  1  0.45034549  0.42453347  0.61104332  1
  N  N60  1  0.21073110  0.88474298  0.37420057  1
  N  N61  1  0.09798363  0.79922642  0.14161064  1
  N  N62  1  0.89939457  0.86397314  0.83988840  1
  N  N63  1  0.76394444  0.74277399  0.55017553  1
  N  N64  1  0.54319360  0.88452814  0.35867506  1
  N  N65  1  0.42320914  0.80120147  0.12777668  1
  N  N66  1  0.20727167  0.87255983  0.88731436  1
  N  N67  1  0.14382627  0.75049015  0.62467617  1
  N  N68  1  0.87205141  0.87945262  0.32757875  1
  N  N69  1  0.78829055  0.75353444  0.07975360  1
  N  N70  1  0.57222849  0.88400144  0.88260357  1
  N  N71  1  0.44698750  0.75817385  0.58690763  1
