# generated using pymatgen
data_Gd5Al31N36
_symmetry_space_group_name_H-M   'P 1'
_cell_length_a   9.67742631
_cell_length_b   9.70323617
_cell_length_c   10.62912541
_cell_angle_alpha   89.17765464
_cell_angle_beta   89.03304176
_cell_angle_gamma   59.83879489
_symmetry_Int_Tables_number   1
_chemical_formula_structural   Gd5Al31N36
_chemical_formula_sum   'Gd5 Al31 N36'
_cell_volume   862.82952510
_cell_formula_units_Z   1
loop_
 _symmetry_equiv_pos_site_id
 _symmetry_equiv_pos_as_xyz
  1  'x, y, z'
loop_
 _atom_site_type_symbol
 _atom_site_label
 _atom_site_symmetry_multiplicity
 _atom_site_fract_x
 _atom_site_fract_y
 _atom_site_fract_z
 _atom_site_occupancy
  Al  Al0  1  0.10766044  0.09661713  0.34675372  1
  Al  Al1  1  0.21805472  0.21256866  0.15109069  1
  Al  Al2  1  0.79380973  0.08226165  0.92210470  1
  Al  Al3  1  0.44415996  0.09755676  0.32704857  1
  Al  Al4  1  0.54978168  0.20237797  0.08485909  1
  Al  Al5  1  0.11667034  0.09259184  0.90133232  1
  Al  Al6  1  0.22870699  0.20005215  0.65994221  1
  Al  Al7  1  0.76758899  0.10064752  0.39698461  1
  Al  Al8  1  0.88732322  0.20339370  0.15236942  1
  Al  Al9  1  0.46442817  0.08932807  0.83668643  1
  Al  Al10  1  0.53900384  0.21086698  0.57519798  1
  Al  Al11  1  0.10692350  0.42457191  0.40984651  1
  Al  Al12  1  0.79502530  0.41577455  0.91489605  1
  Al  Al13  1  0.88111864  0.53872518  0.64720535  1
  Al  Al14  1  0.43399281  0.42439228  0.33940437  1
  Al  Al15  1  0.11132392  0.41779763  0.89241984  1
  Al  Al16  1  0.22845550  0.53882096  0.59017907  1
  Al  Al17  1  0.78112661  0.42890394  0.39280948  1
  Al  Al18  1  0.89787178  0.53184682  0.15547142  1
  Al  Al19  1  0.45706035  0.41417831  0.82451100  1
  Al  Al20  1  0.54638069  0.54339640  0.56258554  1
  Al  Al21  1  0.10681120  0.76810506  0.34314377  1
  Al  Al22  1  0.21369392  0.88395553  0.09873334  1
  Al  Al23  1  0.79577573  0.75409183  0.91906138  1
  Al  Al24  1  0.43324310  0.77646647  0.33619756  1
  Al  Al25  1  0.55086654  0.88422634  0.09016407  1
  Al  Al26  1  0.12425179  0.75503125  0.83141857  1
  Al  Al27  1  0.22855591  0.87072663  0.57281313  1
  Al  Al28  1  0.77525441  0.75418226  0.39650928  1
  Al  Al29  1  0.87569757  0.88240249  0.16755049  1
  Al  Al30  1  0.54158264  0.87769524  0.56613039  1
  Gd  Gd31  1  0.88642260  0.21216281  0.65753642  1
  Gd  Gd32  1  0.21468773  0.55491880  0.08274576  1
  Gd  Gd33  1  0.55269570  0.54145104  0.11137702  1
  Gd  Gd34  1  0.87357410  0.87111229  0.64670450  1
  Gd  Gd35  1  0.45352156  0.75914965  0.82353411  1
  N  N36  1  0.21255491  0.21732287  0.33656949  1
  N  N37  1  0.11008736  0.10036352  0.12533005  1
  N  N38  1  0.89791054  0.19756577  0.87436567  1
  N  N39  1  0.75867141  0.10913556  0.57244052  1
  N  N40  1  0.53480538  0.21135923  0.39538316  1
  N  N41  1  0.44877463  0.09428164  0.14568193  1
  N  N42  1  0.22872550  0.19902267  0.84616835  1
  N  N43  1  0.14250285  0.07865981  0.61749546  1
  N  N44  1  0.87870500  0.20952324  0.33710180  1
  N  N45  1  0.77785343  0.09291517  0.10251700  1
  N  N46  1  0.55956635  0.20367650  0.89792227  1
  N  N47  1  0.46148259  0.08257180  0.65085204  1
  N  N48  1  0.21565667  0.54853857  0.40099243  1
  N  N49  1  0.09946453  0.41289792  0.07615236  1
  N  N50  1  0.88710620  0.53813377  0.83716725  1
  N  N51  1  0.76926693  0.44969051  0.57066335  1
  N  N52  1  0.54509431  0.54342645  0.37353662  1
  N  N53  1  0.44696407  0.39562332  0.16558264  1
  N  N54  1  0.22954534  0.53010675  0.86799836  1
  N  N55  1  0.10988353  0.42099903  0.59570635  1
  N  N56  1  0.89314357  0.53680702  0.33623566  1
  N  N57  1  0.81010070  0.41309523  0.09518174  1
  N  N58  1  0.57132675  0.50823886  0.89148630  1
  N  N59  1  0.45055639  0.42292587  0.63765337  1
  N  N60  1  0.21353327  0.87805342  0.39286168  1
  N  N61  1  0.09805560  0.79510361  0.16794657  1
  N  N62  1  0.89743592  0.86699292  0.86354051  1
  N  N63  1  0.76520735  0.74048025  0.57506594  1
  N  N64  1  0.54311283  0.88398106  0.38607714  1
  N  N65  1  0.42555712  0.80067769  0.15657659  1
  N  N66  1  0.20808274  0.86955413  0.91716760  1
  N  N67  1  0.14412751  0.74988127  0.64940037  1
  N  N68  1  0.87173121  0.87861737  0.35264250  1
  N  N69  1  0.79034056  0.75293767  0.10315925  1
  N  N70  1  0.57032736  0.88412033  0.90969285  1
  N  N71  1  0.44676417  0.75666790  0.61040584  1
