# generated using pymatgen
data_Gd5Al31N36
_symmetry_space_group_name_H-M   'P 1'
_cell_length_a   9.69785564
_cell_length_b   9.69080065
_cell_length_c   10.38494315
_cell_angle_alpha   90.18283208
_cell_angle_beta   90.05777890
_cell_angle_gamma   60.26644644
_symmetry_Int_Tables_number   1
_chemical_formula_structural   Gd5Al31N36
_chemical_formula_sum   'Gd5 Al31 N36'
_cell_volume   847.47638803
_cell_formula_units_Z   1
loop_
 _symmetry_equiv_pos_site_id
 _symmetry_equiv_pos_as_xyz
  1  'x, y, z'
loop_
 _atom_site_type_symbol
 _atom_site_label
 _atom_site_symmetry_multiplicity
 _atom_site_fract_x
 _atom_site_fract_y
 _atom_site_fract_z
 _atom_site_occupancy
  Al  Al0  1  0.10603479  0.10119794  0.30514043  1
  Al  Al1  1  0.22458043  0.20034609  0.06344973  1
  Al  Al2  1  0.77162153  0.09210955  0.82053723  1
  Al  Al3  1  0.44225220  0.09906260  0.30953031  1
  Al  Al4  1  0.55594155  0.19777115  0.06013222  1
  Al  Al5  1  0.12161420  0.08633665  0.81753082  1
  Al  Al6  1  0.22960768  0.20003706  0.56128701  1
  Al  Al7  1  0.77275537  0.10205499  0.29874935  1
  Al  Al8  1  0.90385588  0.18947373  0.05869821  1
  Al  Al9  1  0.44753257  0.09705089  0.81216245  1
  Al  Al10  1  0.54808226  0.20506296  0.56052015  1
  Al  Al11  1  0.11371645  0.42358342  0.31985118  1
  Al  Al12  1  0.79526140  0.41679125  0.88037741  1
  Al  Al13  1  0.87457521  0.54077699  0.63289194  1
  Al  Al14  1  0.43985838  0.42060413  0.31847151  1
  Al  Al15  1  0.12130256  0.41760154  0.79993585  1
  Al  Al16  1  0.22590892  0.53683642  0.56381536  1
  Al  Al17  1  0.77803450  0.43811181  0.37163666  1
  Al  Al18  1  0.89564562  0.52964901  0.13208621  1
  Al  Al19  1  0.45548824  0.41707412  0.79827861  1
  Al  Al20  1  0.54141175  0.54713528  0.53956789  1
  Al  Al21  1  0.10407305  0.77155161  0.30749698  1
  Al  Al22  1  0.21520780  0.88424221  0.06696069  1
  Al  Al23  1  0.77498702  0.76443643  0.82241065  1
  Al  Al24  1  0.43247010  0.77933810  0.31625445  1
  Al  Al25  1  0.55247397  0.88376827  0.06563931  1
  Al  Al26  1  0.11493470  0.76014091  0.80834740  1
  Al  Al27  1  0.22737389  0.87153923  0.55225967  1
  Al  Al28  1  0.76954331  0.77328885  0.29914753  1
  Al  Al29  1  0.88743236  0.87565948  0.06052067  1
  Al  Al30  1  0.54878681  0.87628311  0.55168237  1
  Gd  Gd31  1  0.89239607  0.20297406  0.58075969  1
  Gd  Gd32  1  0.21910544  0.53730530  0.05642683  1
  Gd  Gd33  1  0.56278428  0.53599953  0.09205440  1
  Gd  Gd34  1  0.88493808  0.86154557  0.56266430  1
  Gd  Gd35  1  0.45065275  0.75787414  0.79967199  1
  N  N36  1  0.22250115  0.20332176  0.37454521  1
  N  N37  1  0.11300599  0.09639018  0.12055394  1
  N  N38  1  0.89939718  0.19074522  0.85885554  1
  N  N39  1  0.74523487  0.10203425  0.64062570  1
  N  N40  1  0.55703022  0.20206751  0.37460207  1
  N  N41  1  0.44375267  0.09679495  0.12408029  1
  N  N42  1  0.22651135  0.20442868  0.87383232  1
  N  N43  1  0.15115386  0.07227884  0.63449704  1
  N  N44  1  0.88491170  0.20973127  0.35211556  1
  N  N45  1  0.77592330  0.09631913  0.10986896  1
  N  N46  1  0.55135808  0.20755818  0.87386833  1
  N  N47  1  0.44306760  0.09447928  0.62158712  1
  N  N48  1  0.21543709  0.54580413  0.37192019  1
  N  N49  1  0.11415026  0.40441720  0.13580099  1
  N  N50  1  0.89373230  0.53049525  0.82049585  1
  N  N51  1  0.76020139  0.45972332  0.55543730  1
  N  N52  1  0.54530668  0.54548440  0.34863660  1
  N  N53  1  0.45342202  0.39341433  0.14091050  1
  N  N54  1  0.22941097  0.53195494  0.83858237  1
  N  N55  1  0.10991439  0.42455745  0.61182160  1
  N  N56  1  0.88269569  0.54686269  0.32007391  1
  N  N57  1  0.81918524  0.40790652  0.06281991  1
  N  N58  1  0.57232106  0.50798510  0.86517975  1
  N  N59  1  0.44763175  0.42580006  0.60804350  1
  N  N60  1  0.20967098  0.88410211  0.36830038  1
  N  N61  1  0.09771865  0.78885155  0.12701111  1
  N  N62  1  0.89513332  0.86493430  0.86885254  1
  N  N63  1  0.74389690  0.76045279  0.63868123  1
  N  N64  1  0.55599462  0.88013511  0.36647316  1
  N  N65  1  0.42612654  0.79878837  0.13001158  1
  N  N66  1  0.20420877  0.87735779  0.88435532  1
  N  N67  1  0.14013578  0.75200190  0.62549562  1
  N  N68  1  0.88066542  0.88096097  0.34650271  1
  N  N69  1  0.77707535  0.76207684  0.11292894  1
  N  N70  1  0.56565341  0.88925965  0.88439440  1
  N  N71  1  0.44322162  0.76097115  0.58066240  1
