# generated using pymatgen
data_Gd5Al31N36
_symmetry_space_group_name_H-M   'P 1'
_cell_length_a   9.69425704
_cell_length_b   9.71211089
_cell_length_c   10.51114367
_cell_angle_alpha   89.53081600
_cell_angle_beta   89.24952927
_cell_angle_gamma   60.02781293
_symmetry_Int_Tables_number   1
_chemical_formula_structural   Gd5Al31N36
_chemical_formula_sum   'Gd5 Al31 N36'
_cell_volume   857.22015955
_cell_formula_units_Z   1
loop_
 _symmetry_equiv_pos_site_id
 _symmetry_equiv_pos_as_xyz
  1  'x, y, z'
loop_
 _atom_site_type_symbol
 _atom_site_label
 _atom_site_symmetry_multiplicity
 _atom_site_fract_x
 _atom_site_fract_y
 _atom_site_fract_z
 _atom_site_occupancy
  Al  Al0  1  0.11197670  0.09828030  0.30801904  1
  Al  Al1  1  0.22161743  0.20293241  0.05436182  1
  Al  Al2  1  0.79597566  0.08191588  0.89384890  1
  Al  Al3  1  0.43318586  0.10267170  0.30077167  1
  Al  Al4  1  0.54993014  0.20159909  0.05907956  1
  Al  Al5  1  0.12727832  0.08076992  0.81653502  1
  Al  Al6  1  0.23253800  0.19323553  0.56320006  1
  Al  Al7  1  0.76463937  0.10175062  0.36831916  1
  Al  Al8  1  0.89102085  0.20273375  0.12891746  1
  Al  Al9  1  0.45770385  0.09118991  0.80942840  1
  Al  Al10  1  0.53589696  0.21269109  0.54715891  1
  Al  Al11  1  0.10289513  0.43247356  0.37553253  1
  Al  Al12  1  0.80209833  0.40885126  0.88803468  1
  Al  Al13  1  0.87228130  0.54484092  0.62224651  1
  Al  Al14  1  0.43147239  0.42533872  0.31122370  1
  Al  Al15  1  0.11816885  0.41773427  0.81451481  1
  Al  Al16  1  0.22869772  0.54034861  0.56856006  1
  Al  Al17  1  0.77693876  0.43180632  0.36665404  1
  Al  Al18  1  0.90023951  0.53071354  0.13338300  1
  Al  Al19  1  0.46314438  0.41028244  0.79688608  1
  Al  Al20  1  0.54221669  0.54695331  0.53520209  1
  Al  Al21  1  0.10656142  0.77088940  0.31803478  1
  Al  Al22  1  0.20972364  0.88994607  0.06828230  1
  Al  Al23  1  0.79699793  0.75257855  0.89465774  1
  Al  Al24  1  0.42921112  0.77994513  0.30863276  1
  Al  Al25  1  0.55052662  0.88477391  0.06513069  1
  Al  Al26  1  0.12515662  0.75546558  0.80473422  1
  Al  Al27  1  0.22865542  0.87148983  0.55270550  1
  Al  Al28  1  0.77154050  0.75849028  0.36896357  1
  Al  Al29  1  0.87830213  0.88101228  0.13982706  1
  Al  Al30  1  0.54111619  0.87831805  0.54028798  1
  Gd  Gd31  1  0.88118584  0.21550073  0.62117646  1
  Gd  Gd32  1  0.21489802  0.55206258  0.05066394  1
  Gd  Gd33  1  0.55768349  0.53917877  0.08710818  1
  Gd  Gd34  1  0.87339881  0.87223793  0.62083668  1
  Gd  Gd35  1  0.45915595  0.75340629  0.80134195  1
  N  N36  1  0.21769032  0.20469417  0.37661414  1
  N  N37  1  0.11577008  0.09914293  0.12467068  1
  N  N38  1  0.90128472  0.19363215  0.83847393  1
  N  N39  1  0.75329175  0.10876001  0.54659220  1
  N  N40  1  0.53262229  0.21237418  0.36564547  1
  N  N41  1  0.44031522  0.09816118  0.11814862  1
  N  N42  1  0.23308504  0.19531984  0.86498933  1
  N  N43  1  0.15078335  0.07011387  0.63187305  1
  N  N44  1  0.87765788  0.21167731  0.31743828  1
  N  N45  1  0.77920464  0.09329218  0.07690169  1
  N  N46  1  0.56120699  0.20071213  0.86901309  1
  N  N47  1  0.45074388  0.08922129  0.62055800  1
  N  N48  1  0.21387701  0.54965741  0.37801009  1
  N  N49  1  0.10712924  0.41511043  0.08687481  1
  N  N50  1  0.88610505  0.53838635  0.81040019  1
  N  N51  1  0.76318850  0.45498543  0.54578060  1
  N  N52  1  0.54146508  0.54655406  0.34582930  1
  N  N53  1  0.44848089  0.39705938  0.13611755  1
  N  N54  1  0.23270548  0.52779834  0.83135108  1
  N  N55  1  0.10717906  0.42571528  0.59070268  1
  N  N56  1  0.88771552  0.53987855  0.31575397  1
  N  N57  1  0.81664568  0.40881133  0.06828934  1
  N  N58  1  0.57734384  0.50260191  0.86545911  1
  N  N59  1  0.45155259  0.42390290  0.60924147  1
  N  N60  1  0.21048078  0.88448476  0.37238862  1
  N  N61  1  0.10013184  0.79416427  0.14033138  1
  N  N62  1  0.90056676  0.86341609  0.83986047  1
  N  N63  1  0.76164919  0.74467170  0.55008827  1
  N  N64  1  0.54116034  0.88596196  0.35791483  1
  N  N65  1  0.42393232  0.80026907  0.12627030  1
  N  N66  1  0.20805310  0.87272631  0.88601431  1
  N  N67  1  0.14207101  0.75239594  0.62219054  1
  N  N68  1  0.87227070  0.87906147  0.32717166  1
  N  N69  1  0.78821059  0.75295660  0.07998949  1
  N  N70  1  0.57290712  0.88441251  0.88153661  1
  N  N71  1  0.44628955  0.75828629  0.58602495  1
