# generated using pymatgen
data_Gd5Al31N36
_symmetry_space_group_name_H-M   'P 1'
_cell_length_a   9.68467769
_cell_length_b   9.68484847
_cell_length_c   10.29719717
_cell_angle_alpha   89.88162564
_cell_angle_beta   89.97347194
_cell_angle_gamma   59.91639196
_symmetry_Int_Tables_number   1
_chemical_formula_structural   Gd5Al31N36
_chemical_formula_sum   'Gd5 Al31 N36'
_cell_volume   835.71872794
_cell_formula_units_Z   1
loop_
 _symmetry_equiv_pos_site_id
 _symmetry_equiv_pos_as_xyz
  1  'x, y, z'
loop_
 _atom_site_type_symbol
 _atom_site_label
 _atom_site_symmetry_multiplicity
 _atom_site_fract_x
 _atom_site_fract_y
 _atom_site_fract_z
 _atom_site_occupancy
  Al  Al0  1  0.11038818  0.09683084  0.30189727  1
  Al  Al1  1  0.22200390  0.20284606  0.06431943  1
  Al  Al2  1  0.77133736  0.09796856  0.82290212  1
  Al  Al3  1  0.44414622  0.09707295  0.31080730  1
  Al  Al4  1  0.55498273  0.19923924  0.06085413  1
  Al  Al5  1  0.11512169  0.09306117  0.82091404  1
  Al  Al6  1  0.23174576  0.19835686  0.56381833  1
  Al  Al7  1  0.77434352  0.09575766  0.29646636  1
  Al  Al8  1  0.89438005  0.20292390  0.05961562  1
  Al  Al9  1  0.44708382  0.09934716  0.81448232  1
  Al  Al10  1  0.55100045  0.20405184  0.56123140  1
  Al  Al11  1  0.10720131  0.42491689  0.31961417  1
  Al  Al12  1  0.77834552  0.42742943  0.80978624  1
  Al  Al13  1  0.87993485  0.54216960  0.56320109  1
  Al  Al14  1  0.44579580  0.41929795  0.32099884  1
  Al  Al15  1  0.11031762  0.42500916  0.80321852  1
  Al  Al16  1  0.22655965  0.53629917  0.56246789  1
  Al  Al17  1  0.78469775  0.42461367  0.30644957  1
  Al  Al18  1  0.89321881  0.53188748  0.06199910  1
  Al  Al19  1  0.44808819  0.42051870  0.79575492  1
  Al  Al20  1  0.55643946  0.53758624  0.54669613  1
  Al  Al21  1  0.10637266  0.76878042  0.30799291  1
  Al  Al22  1  0.21342985  0.88618942  0.06793486  1
  Al  Al23  1  0.77762678  0.76027772  0.82152692  1
  Al  Al24  1  0.43997904  0.77170561  0.32063927  1
  Al  Al25  1  0.55306742  0.88326262  0.06846010  1
  Al  Al26  1  0.11406608  0.76165431  0.80983406  1
  Al  Al27  1  0.23071696  0.86895594  0.55046753  1
  Al  Al28  1  0.77826601  0.76004827  0.30247529  1
  Al  Al29  1  0.88746372  0.87541841  0.06029905  1
  Al  Al30  1  0.55516606  0.87334083  0.55075917  1
  Gd  Gd31  1  0.89837582  0.20081845  0.56611251  1
  Gd  Gd32  1  0.21730534  0.53595626  0.06097457  1
  Gd  Gd33  1  0.55350063  0.54189613  0.07238617  1
  Gd  Gd34  1  0.88659297  0.86546261  0.56604031  1
  Gd  Gd35  1  0.44196841  0.77126263  0.79445032  1
  N  N36  1  0.22264284  0.20177000  0.37491468  1
  N  N37  1  0.10962284  0.09980951  0.11710732  1
  N  N38  1  0.89111014  0.20648688  0.86610700  1
  N  N39  1  0.74967680  0.10793392  0.64152152  1
  N  N40  1  0.56018806  0.19829598  0.37469710  1
  N  N41  1  0.44181748  0.09907401  0.12430177  1
  N  N42  1  0.22430690  0.20772006  0.87388415  1
  N  N43  1  0.15354308  0.06907196  0.63707719  1
  N  N44  1  0.88802217  0.20243211  0.34725599  1
  N  N45  1  0.77535402  0.09575609  0.10765668  1
  N  N46  1  0.54913230  0.21146263  0.87397684  1
  N  N47  1  0.44755153  0.09120471  0.62252552  1
  N  N48  1  0.21711403  0.54257289  0.36964149  1
  N  N49  1  0.09882782  0.41119758  0.13524592  1
  N  N50  1  0.89210913  0.53556073  0.87294298  1
  N  N51  1  0.76266494  0.45031483  0.62408430  1
  N  N52  1  0.55874230  0.53589797  0.35641245  1
  N  N53  1  0.45557351  0.39570633  0.14192939  1
  N  N54  1  0.22453971  0.53423685  0.84098705  1
  N  N55  1  0.10682237  0.42572652  0.61482006  1
  N  N56  1  0.88468744  0.54248253  0.37451772  1
  N  N57  1  0.80403984  0.41346968  0.12355335  1
  N  N58  1  0.56232855  0.51732237  0.85477085  1
  N  N59  1  0.44736020  0.42423660  0.60636796  1
  N  N60  1  0.21247424  0.88080294  0.36679152  1
  N  N61  1  0.09834871  0.78860567  0.12655272  1
  N  N62  1  0.89302563  0.86788238  0.86690163  1
  N  N63  1  0.75546039  0.74915728  0.63635055  1
  N  N64  1  0.56111024  0.87686008  0.36530249  1
  N  N65  1  0.42591282  0.79869409  0.13279172  1
  N  N66  1  0.19939784  0.88171880  0.88511591  1
  N  N67  1  0.14386524  0.75071755  0.62550039  1
  N  N68  1  0.88357928  0.87548336  0.34741985  1
  N  N69  1  0.78074940  0.75594072  0.11602318  1
  N  N70  1  0.56707159  0.88953343  0.88506793  1
  N  N71  1  0.44911629  0.75792780  0.57474104  1
