# generated using pymatgen
data_Gd5Al31N36
_symmetry_space_group_name_H-M   'P 1'
_cell_length_a   9.70569507
_cell_length_b   9.72908625
_cell_length_c   10.53877070
_cell_angle_alpha   89.53273055
_cell_angle_beta   89.70787350
_cell_angle_gamma   59.74613471
_symmetry_Int_Tables_number   1
_chemical_formula_structural   Gd5Al31N36
_chemical_formula_sum   'Gd5 Al31 N36'
_cell_volume   859.58313605
_cell_formula_units_Z   1
loop_
 _symmetry_equiv_pos_site_id
 _symmetry_equiv_pos_as_xyz
  1  'x, y, z'
loop_
 _atom_site_type_symbol
 _atom_site_label
 _atom_site_symmetry_multiplicity
 _atom_site_fract_x
 _atom_site_fract_y
 _atom_site_fract_z
 _atom_site_occupancy
  Al  Al0  1  0.11070348  0.10271664  0.39381753  1
  Al  Al1  1  0.21416046  0.20465755  0.15033141  1
  Al  Al2  1  0.77926225  0.09468561  0.91804071  1
  Al  Al3  1  0.44052449  0.09796288  0.33998766  1
  Al  Al4  1  0.56042968  0.19498647  0.15134932  1
  Al  Al5  1  0.10758716  0.10414214  0.91437335  1
  Al  Al6  1  0.22992853  0.20135082  0.65002156  1
  Al  Al7  1  0.77151370  0.09833283  0.39316839  1
  Al  Al8  1  0.89792877  0.19688315  0.15527059  1
  Al  Al9  1  0.44860444  0.10068742  0.87226021  1
  Al  Al10  1  0.54990676  0.20870748  0.64579651  1
  Al  Al11  1  0.10877011  0.42591948  0.41477499  1
  Al  Al12  1  0.79051457  0.41946473  0.91560822  1
  Al  Al13  1  0.87975065  0.54443624  0.64903549  1
  Al  Al14  1  0.43842652  0.41995690  0.40854109  1
  Al  Al15  1  0.10854748  0.42538315  0.89285111  1
  Al  Al16  1  0.22699619  0.53856795  0.65094178  1
  Al  Al17  1  0.78500547  0.42846487  0.39284508  1
  Al  Al18  1  0.89534675  0.52903533  0.15331482  1
  Al  Al19  1  0.44988401  0.41465873  0.89616006  1
  Al  Al20  1  0.54895302  0.55124908  0.56418955  1
  Al  Al21  1  0.11005976  0.75684666  0.40312189  1
  Al  Al22  1  0.22045781  0.87903760  0.08794152  1
  Al  Al23  1  0.79066657  0.75699367  0.92049678  1
  Al  Al24  1  0.43325112  0.77705378  0.32865423  1
  Al  Al25  1  0.55332112  0.87908869  0.09404404  1
  Al  Al26  1  0.10629178  0.76346284  0.91185534  1
  Al  Al27  1  0.23450106  0.86952647  0.56449329  1
  Al  Al28  1  0.78197464  0.75426190  0.39145787  1
  Al  Al29  1  0.88846489  0.87359654  0.15727027  1
  Al  Al30  1  0.54466969  0.88161245  0.56040481  1
  Gd  Gd31  1  0.88724538  0.21155195  0.65302632  1
  Gd  Gd32  1  0.21302595  0.52763051  0.15494034  1
  Gd  Gd33  1  0.55559793  0.52594858  0.12873559  1
  Gd  Gd34  1  0.88125896  0.87051433  0.65466097  1
  Gd  Gd35  1  0.45396264  0.76001809  0.82678848  1
  N  N36  1  0.21224381  0.21778123  0.33654383  1
  N  N37  1  0.11023669  0.09847609  0.09934858  1
  N  N38  1  0.89182050  0.20281798  0.86848801  1
  N  N39  1  0.75102647  0.11009352  0.56945713  1
  N  N40  1  0.55304176  0.21312910  0.33476957  1
  N  N41  1  0.44151159  0.09349923  0.13719334  1
  N  N42  1  0.22331420  0.20294127  0.83963639  1
  N  N43  1  0.13605083  0.09153610  0.57657089  1
  N  N44  1  0.88825969  0.20645655  0.34153637  1
  N  N45  1  0.77812991  0.09291696  0.10243735  1
  N  N46  1  0.56656298  0.20085947  0.83348716  1
  N  N47  1  0.44634081  0.09521852  0.61082357  1
  N  N48  1  0.21928020  0.53445887  0.36878136  1
  N  N49  1  0.09631302  0.40832005  0.07201122  1
  N  N50  1  0.88261157  0.54412158  0.83852571  1
  N  N51  1  0.77028757  0.45210888  0.57300588  1
  N  N52  1  0.54800097  0.54317384  0.37108013  1
  N  N53  1  0.44581848  0.38570936  0.07124589  1
  N  N54  1  0.22112052  0.54091331  0.84139900  1
  N  N55  1  0.10782042  0.42811246  0.59993236  1
  N  N56  1  0.89642239  0.53513432  0.33673809  1
  N  N57  1  0.81024997  0.40795210  0.09769572  1
  N  N58  1  0.57170131  0.51366396  0.89413033  1
  N  N59  1  0.44496888  0.42736091  0.59180502  1
  N  N60  1  0.21789655  0.87530329  0.37908818  1
  N  N61  1  0.09908420  0.77891759  0.09619979  1
  N  N62  1  0.88818058  0.87380995  0.87015125  1
  N  N63  1  0.76855429  0.74620066  0.57343896  1
  N  N64  1  0.55035041  0.87800425  0.37711001  1
  N  N65  1  0.42936075  0.79064713  0.14764285  1
  N  N66  1  0.20753997  0.88300625  0.89969683  1
  N  N67  1  0.13323654  0.74977756  0.58612382  1
  N  N68  1  0.88851071  0.87145028  0.34366673  1
  N  N69  1  0.78899103  0.75041467  0.10549475  1
  N  N70  1  0.56812756  0.88886093  0.91214731  1
  N  N71  1  0.44661335  0.76374011  0.61045092  1
