# generated using pymatgen
data_Gd5Al31N36
_symmetry_space_group_name_H-M   'P 1'
_cell_length_a   9.72060204
_cell_length_b   9.72949961
_cell_length_c   10.28442946
_cell_angle_alpha   89.65098081
_cell_angle_beta   90.03559952
_cell_angle_gamma   59.80391499
_symmetry_Int_Tables_number   1
_chemical_formula_structural   Gd5Al31N36
_chemical_formula_sum   'Gd5 Al31 N36'
_cell_volume   840.66117022
_cell_formula_units_Z   1
loop_
 _symmetry_equiv_pos_site_id
 _symmetry_equiv_pos_as_xyz
  1  'x, y, z'
loop_
 _atom_site_type_symbol
 _atom_site_label
 _atom_site_symmetry_multiplicity
 _atom_site_fract_x
 _atom_site_fract_y
 _atom_site_fract_z
 _atom_site_occupancy
  Al  Al0  1  0.11814284  0.09600067  0.38829461  1
  Al  Al1  1  0.22240074  0.20222238  0.14563528  1
  Al  Al2  1  0.77507095  0.09610326  0.91523982  1
  Al  Al3  1  0.44305492  0.09841610  0.39555680  1
  Al  Al4  1  0.55674409  0.19760996  0.14664855  1
  Al  Al5  1  0.10405482  0.10238967  0.90928993  1
  Al  Al6  1  0.22980085  0.20237874  0.64727776  1
  Al  Al7  1  0.77152761  0.09782064  0.38698989  1
  Al  Al8  1  0.89180995  0.20443154  0.14889994  1
  Al  Al9  1  0.44903395  0.09752314  0.89555371  1
  Al  Al10  1  0.54973412  0.20484270  0.64691212  1
  Al  Al11  1  0.11099035  0.42578576  0.40657955  1
  Al  Al12  1  0.78190251  0.42404114  0.90183693  1
  Al  Al13  1  0.88277901  0.54164844  0.64750625  1
  Al  Al14  1  0.44397582  0.42383956  0.41336719  1
  Al  Al15  1  0.10626667  0.42485078  0.89029454  1
  Al  Al16  1  0.22509522  0.53700031  0.65002160  1
  Al  Al17  1  0.78201326  0.42870209  0.40149830  1
  Al  Al18  1  0.89139748  0.53207273  0.14721568  1
  Al  Al19  1  0.45190791  0.41405515  0.88454511  1
  Al  Al20  1  0.56012802  0.53182712  0.63981343  1
  Al  Al21  1  0.11590475  0.75648236  0.39835638  1
  Al  Al22  1  0.21661111  0.88335634  0.13106607  1
  Al  Al23  1  0.77747882  0.76354144  0.90733817  1
  Al  Al24  1  0.45086206  0.76138412  0.40513519  1
  Al  Al25  1  0.55096832  0.87978196  0.15076737  1
  Al  Al26  1  0.10062877  0.77092637  0.90576504  1
  Al  Al27  1  0.22885937  0.87163512  0.60303362  1
  Al  Al28  1  0.77765083  0.75644466  0.39035265  1
  Al  Al29  1  0.88531362  0.87499544  0.15073874  1
  Al  Al30  1  0.55834827  0.87790722  0.63906443  1
  Gd  Gd31  1  0.89512232  0.19989110  0.65088050  1
  Gd  Gd32  1  0.22100148  0.52832836  0.14415688  1
  Gd  Gd33  1  0.55317256  0.53909941  0.15176823  1
  Gd  Gd34  1  0.88409417  0.86802878  0.65102143  1
  Gd  Gd35  1  0.43927985  0.76830360  0.86855557  1
  N  N36  1  0.22408058  0.21083443  0.33398739  1
  N  N37  1  0.10930012  0.09965076  0.09798567  1
  N  N38  1  0.88586875  0.20581816  0.86946745  1
  N  N39  1  0.74840412  0.10834653  0.56786190  1
  N  N40  1  0.54842095  0.21173011  0.33372821  1
  N  N41  1  0.44448988  0.09443915  0.08654522  1
  N  N42  1  0.22383724  0.20168370  0.83672463  1
  N  N43  1  0.14149991  0.08769829  0.57211056  1
  N  N44  1  0.89003490  0.20700519  0.34099758  1
  N  N45  1  0.77605513  0.09469772  0.10302203  1
  N  N46  1  0.56184032  0.19795170  0.83381454  1
  N  N47  1  0.44322250  0.09804648  0.58338050  1
  N  N48  1  0.22439039  0.53350071  0.36319176  1
  N  N49  1  0.09620743  0.40958304  0.07386387  1
  N  N50  1  0.88292414  0.54429368  0.83674762  1
  N  N51  1  0.77259010  0.44579715  0.58343765  1
  N  N52  1  0.55456244  0.53772135  0.37095851  1
  N  N53  1  0.46174011  0.39519661  0.06554401  1
  N  N54  1  0.21767444  0.54239532  0.84330652  1
  N  N55  1  0.10844056  0.42787065  0.59604301  1
  N  N56  1  0.89377736  0.53483681  0.33557677  1
  N  N57  1  0.79800471  0.41778903  0.08678175  1
  N  N58  1  0.57417913  0.50578001  0.82828468  1
  N  N59  1  0.44326485  0.42376057  0.59868396  1
  N  N60  1  0.22749871  0.86935431  0.35753292  1
  N  N61  1  0.09923101  0.78477853  0.09260954  1
  N  N62  1  0.88287438  0.87560650  0.87065595  1
  N  N63  1  0.76463743  0.74621999  0.57259073  1
  N  N64  1  0.55413962  0.87529161  0.33938814  1
  N  N65  1  0.43040567  0.79194439  0.09028626  1
  N  N66  1  0.18161823  0.89676557  0.84741838  1
  N  N67  1  0.13570353  0.74752204  0.58297640  1
  N  N68  1  0.89060079  0.86893731  0.34185290  1
  N  N69  1  0.77540891  0.75807513  0.09674773  1
  N  N70  1  0.57669311  0.89085376  0.82374170  1
  N  N71  1  0.45097701  0.76056960  0.60097157  1
