# generated using pymatgen
data_Gd5Al31N36
_symmetry_space_group_name_H-M   'P 1'
_cell_length_a   9.68818847
_cell_length_b   9.71003738
_cell_length_c   10.54540745
_cell_angle_alpha   89.48478479
_cell_angle_beta   89.09823638
_cell_angle_gamma   60.00450626
_symmetry_Int_Tables_number   1
_chemical_formula_structural   Gd5Al31N36
_chemical_formula_sum   'Gd5 Al31 N36'
_cell_volume   859.05909071
_cell_formula_units_Z   1
loop_
 _symmetry_equiv_pos_site_id
 _symmetry_equiv_pos_as_xyz
  1  'x, y, z'
loop_
 _atom_site_type_symbol
 _atom_site_label
 _atom_site_symmetry_multiplicity
 _atom_site_fract_x
 _atom_site_fract_y
 _atom_site_fract_z
 _atom_site_occupancy
  Al  Al0  1  0.11226974  0.09828032  0.33004629  1
  Al  Al1  1  0.22486873  0.19693876  0.07474038  1
  Al  Al2  1  0.79543097  0.08185326  0.91453181  1
  Al  Al3  1  0.43429073  0.10182216  0.32305661  1
  Al  Al4  1  0.54982821  0.20152633  0.07943979  1
  Al  Al5  1  0.12715245  0.08009731  0.83692650  1
  Al  Al6  1  0.23156129  0.19509480  0.58390416  1
  Al  Al7  1  0.76479734  0.10156451  0.39085687  1
  Al  Al8  1  0.88989288  0.20244903  0.15113733  1
  Al  Al9  1  0.45692347  0.09076595  0.82999560  1
  Al  Al10  1  0.53593472  0.21261876  0.56938806  1
  Al  Al11  1  0.10210602  0.43331537  0.40625865  1
  Al  Al12  1  0.79972542  0.40860570  0.90883436  1
  Al  Al13  1  0.87875607  0.54191009  0.64432306  1
  Al  Al14  1  0.43366402  0.42486437  0.33358380  1
  Al  Al15  1  0.11111134  0.41913042  0.88465494  1
  Al  Al16  1  0.22795704  0.54013904  0.58744690  1
  Al  Al17  1  0.77922008  0.43151127  0.38707283  1
  Al  Al18  1  0.89997413  0.53043404  0.14984260  1
  Al  Al19  1  0.45921525  0.41126626  0.81995657  1
  Al  Al20  1  0.54370477  0.54656298  0.55663124  1
  Al  Al21  1  0.10623877  0.77290998  0.33909513  1
  Al  Al22  1  0.20918047  0.89231099  0.08906111  1
  Al  Al23  1  0.79577001  0.75330950  0.91482757  1
  Al  Al24  1  0.42977201  0.77989374  0.33049196  1
  Al  Al25  1  0.55038726  0.88484079  0.08606960  1
  Al  Al26  1  0.12499645  0.75317480  0.82781983  1
  Al  Al27  1  0.22905324  0.87109993  0.57462390  1
  Al  Al28  1  0.77394932  0.75630001  0.38967544  1
  Al  Al29  1  0.87666951  0.88272377  0.16127382  1
  Al  Al30  1  0.54280241  0.87726411  0.56123999  1
  Gd  Gd31  1  0.88041878  0.21642205  0.64295347  1
  Gd  Gd32  1  0.21657523  0.55575861  0.07947661  1
  Gd  Gd33  1  0.55723018  0.53964459  0.10858347  1
  Gd  Gd34  1  0.87461335  0.87113949  0.64216236  1
  Gd  Gd35  1  0.45854140  0.75315416  0.82220893  1
  N  N36  1  0.21906912  0.20358747  0.39536426  1
  N  N37  1  0.11492906  0.10112300  0.14738999  1
  N  N38  1  0.90072487  0.19357979  0.85951574  1
  N  N39  1  0.75384371  0.10823724  0.56838873  1
  N  N40  1  0.53306549  0.21221555  0.38810849  1
  N  N41  1  0.44005315  0.09874985  0.14044393  1
  N  N42  1  0.23649522  0.18796535  0.88807446  1
  N  N43  1  0.15016923  0.07081638  0.65266688  1
  N  N44  1  0.87757490  0.21118565  0.33857898  1
  N  N45  1  0.77855229  0.09370631  0.09728047  1
  N  N46  1  0.56021713  0.20042337  0.89049566  1
  N  N47  1  0.45046379  0.08897859  0.64160386  1
  N  N48  1  0.21503646  0.55111258  0.39436042  1
  N  N49  1  0.09856154  0.41852058  0.07234773  1
  N  N50  1  0.88716112  0.53658773  0.83276244  1
  N  N51  1  0.76534057  0.45530302  0.56586117  1
  N  N52  1  0.54323344  0.54631435  0.36717775  1
  N  N53  1  0.44963425  0.39551938  0.15889642  1
  N  N54  1  0.23164326  0.52815148  0.86162082  1
  N  N55  1  0.10399944  0.42942190  0.59338807  1
  N  N56  1  0.89333643  0.53693074  0.33128615  1
  N  N57  1  0.81503010  0.40821866  0.08974986  1
  N  N58  1  0.57538045  0.50270687  0.88774403  1
  N  N59  1  0.45032252  0.42444672  0.63145424  1
  N  N60  1  0.21070788  0.88465863  0.39460545  1
  N  N61  1  0.09795885  0.79914895  0.16200233  1
  N  N62  1  0.89936740  0.86388985  0.86028053  1
  N  N63  1  0.76394547  0.74268397  0.57057364  1
  N  N64  1  0.54318280  0.88443853  0.37908027  1
  N  N65  1  0.42318524  0.80112130  0.14818924  1
  N  N66  1  0.20724929  0.87248250  0.90771590  1
  N  N67  1  0.14384036  0.75037975  0.64510033  1
  N  N68  1  0.87202983  0.87936965  0.34796795  1
  N  N69  1  0.78827534  0.75344419  0.10014143  1
  N  N70  1  0.57220075  0.88391204  0.90300742  1
  N  N71  1  0.44697724  0.75809076  0.60730156  1
