# generated using pymatgen
data_Gd5Al31N36
_symmetry_space_group_name_H-M   'P 1'
_cell_length_a   9.74145837
_cell_length_b   9.75454037
_cell_length_c   10.32705596
_cell_angle_alpha   89.76281713
_cell_angle_beta   90.22813322
_cell_angle_gamma   59.77731263
_symmetry_Int_Tables_number   1
_chemical_formula_structural   Gd5Al31N36
_chemical_formula_sum   'Gd5 Al31 N36'
_cell_volume   847.89996388
_cell_formula_units_Z   1
loop_
 _symmetry_equiv_pos_site_id
 _symmetry_equiv_pos_as_xyz
  1  'x, y, z'
loop_
 _atom_site_type_symbol
 _atom_site_label
 _atom_site_symmetry_multiplicity
 _atom_site_fract_x
 _atom_site_fract_y
 _atom_site_fract_z
 _atom_site_occupancy
  Al  Al0  1  0.11443119  0.10213272  0.38891837  1
  Al  Al1  1  0.22314557  0.20138979  0.14753889  1
  Al  Al2  1  0.77722813  0.09560361  0.91488122  1
  Al  Al3  1  0.44263552  0.09918396  0.39833352  1
  Al  Al4  1  0.55592537  0.19224122  0.14820972  1
  Al  Al5  1  0.10473667  0.10700473  0.91386322  1
  Al  Al6  1  0.23037079  0.20241407  0.64869939  1
  Al  Al7  1  0.76956105  0.09953995  0.38939376  1
  Al  Al8  1  0.89572258  0.20042918  0.15358921  1
  Al  Al9  1  0.45111668  0.09662206  0.89577627  1
  Al  Al10  1  0.55068980  0.20682663  0.64751561  1
  Al  Al11  1  0.10904623  0.42712321  0.40991246  1
  Al  Al12  1  0.78864177  0.41906777  0.90462583  1
  Al  Al13  1  0.88158955  0.54385927  0.64840842  1
  Al  Al14  1  0.44187628  0.42591242  0.41106479  1
  Al  Al15  1  0.10838555  0.42416019  0.89095847  1
  Al  Al16  1  0.22557997  0.53993901  0.64974623  1
  Al  Al17  1  0.77699659  0.43486532  0.39768919  1
  Al  Al18  1  0.89306282  0.53092164  0.14819962  1
  Al  Al19  1  0.45054870  0.41143814  0.88804807  1
  Al  Al20  1  0.55442370  0.54238646  0.62207542  1
  Al  Al21  1  0.11113335  0.75767649  0.39993428  1
  Al  Al22  1  0.21152434  0.88290838  0.09351229  1
  Al  Al23  1  0.78049164  0.76287972  0.90729790  1
  Al  Al24  1  0.43609430  0.77126171  0.33121616  1
  Al  Al25  1  0.55641941  0.87986084  0.15028017  1
  Al  Al26  1  0.10085111  0.76451707  0.91250155  1
  Al  Al27  1  0.24223499  0.86718167  0.56783522  1
  Al  Al28  1  0.77403477  0.75876311  0.39368986  1
  Al  Al29  1  0.88393193  0.87477095  0.15455586  1
  Al  Al30  1  0.55787523  0.87824102  0.64158155  1
  Gd  Gd31  1  0.89437358  0.20513267  0.64731474  1
  Gd  Gd32  1  0.21861783  0.52599639  0.15113882  1
  Gd  Gd33  1  0.56007381  0.52064252  0.13718946  1
  Gd  Gd34  1  0.88614980  0.86966153  0.65096464  1
  Gd  Gd35  1  0.44376024  0.76374287  0.85740285  1
  N  N36  1  0.22369971  0.21308932  0.33557596  1
  N  N37  1  0.10935540  0.10138453  0.10380603  1
  N  N38  1  0.89139871  0.20130746  0.86551774  1
  N  N39  1  0.74890437  0.11031766  0.56928654  1
  N  N40  1  0.54728536  0.21222686  0.33472098  1
  N  N41  1  0.44459032  0.08978670  0.08523302  1
  N  N42  1  0.22553693  0.20062256  0.83776371  1
  N  N43  1  0.14189978  0.08917796  0.57397751  1
  N  N44  1  0.88698279  0.20984339  0.34345907  1
  N  N45  1  0.77578252  0.09481184  0.10343052  1
  N  N46  1  0.56310446  0.19749830  0.83336544  1
  N  N47  1  0.44402082  0.09913861  0.58554830  1
  N  N48  1  0.22114647  0.53504519  0.36835304  1
  N  N49  1  0.09709364  0.40822133  0.07373211  1
  N  N50  1  0.88464892  0.54249275  0.83725246  1
  N  N51  1  0.76876531  0.45166345  0.57975778  1
  N  N52  1  0.54867249  0.54285654  0.36289821  1
  N  N53  1  0.45239424  0.38641294  0.06696546  1
  N  N54  1  0.21845847  0.54215094  0.84271141  1
  N  N55  1  0.10787643  0.42886858  0.59803440  1
  N  N56  1  0.89254356  0.53764524  0.33616253  1
  N  N57  1  0.80768606  0.41008070  0.08881608  1
  N  N58  1  0.57599825  0.50287216  0.85294962  1
  N  N59  1  0.44481192  0.42619933  0.59720896  1
  N  N60  1  0.22162070  0.87411581  0.37547959  1
  N  N61  1  0.09498829  0.77905797  0.10080058  1
  N  N62  1  0.88658149  0.87490647  0.86979519  1
  N  N63  1  0.76414558  0.74866997  0.57521404  1
  N  N64  1  0.55497749  0.88109355  0.33775181  1
  N  N65  1  0.42856919  0.78566049  0.13374239  1
  N  N66  1  0.19236128  0.88991560  0.90112516  1
  N  N67  1  0.13738503  0.75051928  0.58560729  1
  N  N68  1  0.88678876  0.87141798  0.34476449  1
  N  N69  1  0.77663168  0.75650191  0.09582316  1
  N  N70  1  0.57974621  0.89038146  0.82861576  1
  N  N71  1  0.44734544  0.76404534  0.62982624  1
