# generated using pymatgen
data_Gd5Al31N36
_symmetry_space_group_name_H-M   'P 1'
_cell_length_a   9.69399895
_cell_length_b   9.70674175
_cell_length_c   10.51764345
_cell_angle_alpha   89.58103320
_cell_angle_beta   89.11684337
_cell_angle_gamma   60.16495080
_symmetry_Int_Tables_number   1
_chemical_formula_structural   Gd5Al31N36
_chemical_formula_sum   'Gd5 Al31 N36'
_cell_volume   858.40720826
_cell_formula_units_Z   1
loop_
 _symmetry_equiv_pos_site_id
 _symmetry_equiv_pos_as_xyz
  1  'x, y, z'
loop_
 _atom_site_type_symbol
 _atom_site_label
 _atom_site_symmetry_multiplicity
 _atom_site_fract_x
 _atom_site_fract_y
 _atom_site_fract_z
 _atom_site_occupancy
  Al  Al0  1  0.11243817  0.09890664  0.33662585  1
  Al  Al1  1  0.22510435  0.19867165  0.08036931  1
  Al  Al2  1  0.79492390  0.08186606  0.91977847  1
  Al  Al3  1  0.43347872  0.10243708  0.32907948  1
  Al  Al4  1  0.55092936  0.20097469  0.08582131  1
  Al  Al5  1  0.12625914  0.08059207  0.84188585  1
  Al  Al6  1  0.23153060  0.19443822  0.58950337  1
  Al  Al7  1  0.76425226  0.10182708  0.39505938  1
  Al  Al8  1  0.89155218  0.20196017  0.15697940  1
  Al  Al9  1  0.45630322  0.09023418  0.83529138  1
  Al  Al10  1  0.53590661  0.21235407  0.57398082  1
  Al  Al11  1  0.10475006  0.43653822  0.41353593  1
  Al  Al12  1  0.79925972  0.40822346  0.91500061  1
  Al  Al13  1  0.87648112  0.54246852  0.65038696  1
  Al  Al14  1  0.42959979  0.42624588  0.33813751  1
  Al  Al15  1  0.10886629  0.41849132  0.88874221  1
  Al  Al16  1  0.22789166  0.53418680  0.62740326  1
  Al  Al17  1  0.78003889  0.43175362  0.39297731  1
  Al  Al18  1  0.90322279  0.53047185  0.15557041  1
  Al  Al19  1  0.46583697  0.40703929  0.82666104  1
  Al  Al20  1  0.54257607  0.54631093  0.56122536  1
  Al  Al21  1  0.10736680  0.76946662  0.34292140  1
  Al  Al22  1  0.20886847  0.89334869  0.09545660  1
  Al  Al23  1  0.79387534  0.75357996  0.91982289  1
  Al  Al24  1  0.42856844  0.78068772  0.33647971  1
  Al  Al25  1  0.54948136  0.88523713  0.09173966  1
  Al  Al26  1  0.12043559  0.75949635  0.83375739  1
  Al  Al27  1  0.22948013  0.87000692  0.57948199  1
  Al  Al28  1  0.77354469  0.75620031  0.39448205  1
  Al  Al29  1  0.87688632  0.88209526  0.16617056  1
  Al  Al30  1  0.54236699  0.87705553  0.56711407  1
  Gd  Gd31  1  0.88135392  0.21551678  0.64626596  1
  Gd  Gd32  1  0.22166254  0.55697470  0.07895230  1
  Gd  Gd33  1  0.56245719  0.53857062  0.12004711  1
  Gd  Gd34  1  0.87557662  0.87065942  0.64428437  1
  Gd  Gd35  1  0.45715597  0.75188277  0.82900743  1
  N  N36  1  0.21872649  0.20490029  0.40209327  1
  N  N37  1  0.11582179  0.10204541  0.15353081  1
  N  N38  1  0.89969707  0.19379215  0.86364729  1
  N  N39  1  0.75309517  0.10809391  0.57324678  1
  N  N40  1  0.53285192  0.21306288  0.39255929  1
  N  N41  1  0.43982944  0.09911659  0.14601847  1
  N  N42  1  0.23573126  0.18816796  0.89328539  1
  N  N43  1  0.15049378  0.06981642  0.65774409  1
  N  N44  1  0.87803817  0.21130670  0.34484596  1
  N  N45  1  0.77932347  0.09354580  0.10307168  1
  N  N46  1  0.56052915  0.19889269  0.89684888  1
  N  N47  1  0.44991930  0.08937640  0.64695188  1
  N  N48  1  0.21370456  0.55083871  0.39107894  1
  N  N49  1  0.10126292  0.42125549  0.07592573  1
  N  N50  1  0.88519060  0.53700014  0.83854997  1
  N  N51  1  0.76388929  0.45537604  0.57204075  1
  N  N52  1  0.54334127  0.54628338  0.37203068  1
  N  N53  1  0.45098685  0.39612189  0.16213799  1
  N  N54  1  0.22974395  0.52711978  0.85309115  1
  N  N55  1  0.10352942  0.42904451  0.60265599  1
  N  N56  1  0.89424150  0.53673664  0.33763425  1
  N  N57  1  0.81963290  0.40656150  0.09514027  1
  N  N58  1  0.57471958  0.50269892  0.89748646  1
  N  N59  1  0.45445243  0.42168968  0.63980737  1
  N  N60  1  0.21001368  0.88447670  0.39930609  1
  N  N61  1  0.09749789  0.79854593  0.16480508  1
  N  N62  1  0.89687783  0.86473558  0.86467070  1
  N  N63  1  0.76283313  0.74260199  0.57620257  1
  N  N64  1  0.54262752  0.88491696  0.38456444  1
  N  N65  1  0.42244589  0.80113159  0.15329895  1
  N  N66  1  0.20574456  0.87395580  0.91402859  1
  N  N67  1  0.14356973  0.75234050  0.65271081  1
  N  N68  1  0.87204956  0.87929918  0.35313548  1
  N  N69  1  0.78692858  0.75362327  0.10550031  1
  N  N70  1  0.57073472  0.88374057  0.90802509  1
  N  N71  1  0.44670995  0.75744082  0.61304917  1
