# generated using pymatgen
data_Gd5Al31N36
_symmetry_space_group_name_H-M   'P 1'
_cell_length_a   9.74699352
_cell_length_b   9.71827095
_cell_length_c   10.39483656
_cell_angle_alpha   89.78128296
_cell_angle_beta   89.50392731
_cell_angle_gamma   60.26595858
_symmetry_Int_Tables_number   1
_chemical_formula_structural   Gd5Al31N36
_chemical_formula_sum   'Gd5 Al31 N36'
_cell_volume   854.96690685
_cell_formula_units_Z   1
loop_
 _symmetry_equiv_pos_site_id
 _symmetry_equiv_pos_as_xyz
  1  'x, y, z'
loop_
 _atom_site_type_symbol
 _atom_site_label
 _atom_site_symmetry_multiplicity
 _atom_site_fract_x
 _atom_site_fract_y
 _atom_site_fract_z
 _atom_site_occupancy
  Al  Al0  1  0.11713447  0.09510551  0.30987653  1
  Al  Al1  1  0.22127276  0.20265808  0.06056793  1
  Al  Al2  1  0.78197643  0.09139894  0.83612824  1
  Al  Al3  1  0.43637045  0.10048772  0.30301516  1
  Al  Al4  1  0.55557233  0.19911339  0.06130978  1
  Al  Al5  1  0.12268414  0.08628066  0.81506893  1
  Al  Al6  1  0.23331070  0.19849796  0.56200946  1
  Al  Al7  1  0.76105591  0.10440135  0.33154533  1
  Al  Al8  1  0.89338701  0.20305414  0.13082700  1
  Al  Al9  1  0.45136036  0.09589663  0.81029749  1
  Al  Al10  1  0.53960386  0.21131604  0.55141459  1
  Al  Al11  1  0.11099681  0.42310409  0.31750875  1
  Al  Al12  1  0.79860249  0.41033118  0.87904930  1
  Al  Al13  1  0.87083095  0.54602645  0.62474553  1
  Al  Al14  1  0.43303637  0.42439199  0.31222716  1
  Al  Al15  1  0.11758484  0.42044518  0.79699345  1
  Al  Al16  1  0.22765882  0.53403501  0.56286897  1
  Al  Al17  1  0.77376569  0.43775562  0.36954717  1
  Al  Al18  1  0.89302684  0.53278121  0.13063045  1
  Al  Al19  1  0.45662569  0.41636057  0.79718751  1
  Al  Al20  1  0.54198876  0.54479606  0.54045547  1
  Al  Al21  1  0.11112229  0.76601249  0.31812549  1
  Al  Al22  1  0.20894717  0.88837377  0.06682918  1
  Al  Al23  1  0.79272687  0.75863311  0.88558200  1
  Al  Al24  1  0.43144360  0.77798256  0.30905192  1
  Al  Al25  1  0.55000972  0.88544068  0.06366156  1
  Al  Al26  1  0.12102941  0.75798873  0.80302587  1
  Al  Al27  1  0.23707392  0.86682101  0.55422316  1
  Al  Al28  1  0.76930530  0.75631385  0.37063706  1
  Al  Al29  1  0.88021866  0.87763336  0.13989316  1
  Al  Al30  1  0.54161897  0.88058869  0.54480014  1
  Gd  Gd31  1  0.89973870  0.20756908  0.59321563  1
  Gd  Gd32  1  0.20963004  0.54619237  0.05523509  1
  Gd  Gd33  1  0.56100061  0.53571372  0.08671055  1
  Gd  Gd34  1  0.89069306  0.86308274  0.59352412  1
  Gd  Gd35  1  0.45168142  0.75849862  0.80389893  1
  N  N36  1  0.22049888  0.20498208  0.37522947  1
  N  N37  1  0.11563010  0.09644585  0.12579774  1
  N  N38  1  0.89730822  0.19862821  0.82306864  1
  N  N39  1  0.74764662  0.11189945  0.58136310  1
  N  N40  1  0.53889412  0.21006289  0.36782866  1
  N  N41  1  0.44120977  0.09810065  0.11870826  1
  N  N42  1  0.22574656  0.20578836  0.87170157  1
  N  N43  1  0.16412035  0.06451669  0.63275058  1
  N  N44  1  0.88408626  0.21330321  0.32846414  1
  N  N45  1  0.76937254  0.09958429  0.12017004  1
  N  N46  1  0.55916455  0.20387959  0.87007532  1
  N  N47  1  0.44729239  0.09339033  0.62100786  1
  N  N48  1  0.21323720  0.54338708  0.37200251  1
  N  N49  1  0.11221993  0.40542959  0.13410592  1
  N  N50  1  0.88387418  0.54231483  0.81374297  1
  N  N51  1  0.76001754  0.45705151  0.55042480  1
  N  N52  1  0.54162027  0.54540979  0.34649355  1
  N  N53  1  0.44543167  0.39931797  0.13405883  1
  N  N54  1  0.22851250  0.53121439  0.83798110  1
  N  N55  1  0.10994209  0.42245295  0.61098743  1
  N  N56  1  0.87859103  0.54473219  0.31357807  1
  N  N57  1  0.82080907  0.40443224  0.06203073  1
  N  N58  1  0.57355640  0.50635482  0.86419903  1
  N  N59  1  0.44615915  0.42508302  0.60840998  1
  N  N60  1  0.21380711  0.88130095  0.37174238  1
  N  N61  1  0.10036779  0.79067089  0.13829397  1
  N  N62  1  0.89518092  0.86768877  0.82510004  1
  N  N63  1  0.75894373  0.74513206  0.55339577  1
  N  N64  1  0.54202071  0.88559046  0.35848567  1
  N  N65  1  0.42472274  0.79788125  0.12337284  1
  N  N66  1  0.20054405  0.87886659  0.88498558  1
  N  N67  1  0.15512691  0.74372971  0.62061957  1
  N  N68  1  0.87803478  0.87344263  0.33580307  1
  N  N69  1  0.79107079  0.75257199  0.07486288  1
  N  N70  1  0.56889238  0.88902873  0.87998793  1
  N  N71  1  0.45112927  0.75637319  0.58698510  1
