# generated using pymatgen
data_Gd5Al31N36
_symmetry_space_group_name_H-M   'P 1'
_cell_length_a   9.72495356
_cell_length_b   9.70371938
_cell_length_c   10.36059111
_cell_angle_alpha   90.03468564
_cell_angle_beta   89.70738709
_cell_angle_gamma   60.23908720
_symmetry_Int_Tables_number   1
_chemical_formula_structural   Gd5Al31N36
_chemical_formula_sum   'Gd5 Al31 N36'
_cell_volume   848.73809295
_cell_formula_units_Z   1
loop_
 _symmetry_equiv_pos_site_id
 _symmetry_equiv_pos_as_xyz
  1  'x, y, z'
loop_
 _atom_site_type_symbol
 _atom_site_label
 _atom_site_symmetry_multiplicity
 _atom_site_fract_x
 _atom_site_fract_y
 _atom_site_fract_z
 _atom_site_occupancy
  Al  Al0  1  0.11728662  0.09539589  0.30899796  1
  Al  Al1  1  0.22390616  0.20116081  0.06115014  1
  Al  Al2  1  0.77227433  0.09601191  0.81689292  1
  Al  Al3  1  0.44023561  0.09996885  0.30781124  1
  Al  Al4  1  0.55564126  0.19887476  0.05942188  1
  Al  Al5  1  0.12000533  0.08805795  0.81396753  1
  Al  Al6  1  0.23055765  0.19964270  0.56199109  1
  Al  Al7  1  0.76546183  0.09705081  0.30288202  1
  Al  Al8  1  0.89601355  0.20299023  0.12533788  1
  Al  Al9  1  0.44898425  0.09653553  0.81111016  1
  Al  Al10  1  0.54610259  0.20479891  0.55990092  1
  Al  Al11  1  0.11182157  0.42451850  0.31830234  1
  Al  Al12  1  0.79981904  0.40663995  0.88024107  1
  Al  Al13  1  0.87319671  0.54012431  0.63358614  1
  Al  Al14  1  0.43853864  0.42158475  0.31770757  1
  Al  Al15  1  0.12037894  0.41825791  0.80090016  1
  Al  Al16  1  0.22588049  0.53597142  0.56416456  1
  Al  Al17  1  0.77620264  0.43951300  0.36906208  1
  Al  Al18  1  0.89525366  0.53070418  0.12805009  1
  Al  Al19  1  0.45531182  0.41749345  0.79817752  1
  Al  Al20  1  0.54310853  0.54466993  0.53954825  1
  Al  Al21  1  0.10290790  0.77185162  0.30865435  1
  Al  Al22  1  0.21327013  0.88775879  0.06570507  1
  Al  Al23  1  0.77879416  0.76156059  0.83362876  1
  Al  Al24  1  0.43273929  0.77708766  0.31494504  1
  Al  Al25  1  0.55105879  0.88523183  0.06583227  1
  Al  Al26  1  0.11737981  0.76054821  0.80912441  1
  Al  Al27  1  0.23084309  0.86826476  0.55308542  1
  Al  Al28  1  0.76913216  0.77176599  0.29912734  1
  Al  Al29  1  0.88875176  0.88047834  0.06030293  1
  Al  Al30  1  0.55030442  0.87508115  0.54940512  1
  Gd  Gd31  1  0.89387718  0.20082417  0.58718074  1
  Gd  Gd32  1  0.21785648  0.53992576  0.05792677  1
  Gd  Gd33  1  0.56023004  0.53764395  0.08738646  1
  Gd  Gd34  1  0.88750946  0.85872110  0.56738799  1
  Gd  Gd35  1  0.45333820  0.75802505  0.79870983  1
  N  N36  1  0.22231208  0.20501884  0.37507255  1
  N  N37  1  0.11702585  0.09643334  0.12478459  1
  N  N38  1  0.89730729  0.19749014  0.82345334  1
  N  N39  1  0.74238806  0.10101575  0.63563530  1
  N  N40  1  0.55296083  0.20314325  0.37415797  1
  N  N41  1  0.44236495  0.09858967  0.12267641  1
  N  N42  1  0.22681216  0.20392824  0.87206644  1
  N  N43  1  0.15558251  0.06888185  0.62975885  1
  N  N44  1  0.88339451  0.21206201  0.32772155  1
  N  N45  1  0.77257020  0.09744866  0.11464476  1
  N  N46  1  0.55248589  0.20750061  0.87289935  1
  N  N47  1  0.44332106  0.09321366  0.62069214  1
  N  N48  1  0.21382444  0.54591391  0.37098017  1
  N  N49  1  0.11326766  0.40502547  0.13366095  1
  N  N50  1  0.89258976  0.53086168  0.82351781  1
  N  N51  1  0.76279298  0.45588371  0.55151086  1
  N  N52  1  0.54487662  0.54455962  0.34765036  1
  N  N53  1  0.45247507  0.39486502  0.13990384  1
  N  N54  1  0.22917953  0.53198920  0.84023982  1
  N  N55  1  0.10958718  0.42421354  0.61269241  1
  N  N56  1  0.88128646  0.54666394  0.31644180  1
  N  N57  1  0.81884840  0.40543056  0.06376943  1
  N  N58  1  0.57332426  0.50756584  0.86374791  1
  N  N59  1  0.44698315  0.42512252  0.60734371  1
  N  N60  1  0.21047305  0.88164132  0.36955046  1
  N  N61  1  0.09674191  0.79240535  0.12822173  1
  N  N62  1  0.89657026  0.86799381  0.86867777  1
  N  N63  1  0.74502363  0.75798272  0.63536596  1
  N  N64  1  0.55370752  0.88055165  0.36280112  1
  N  N65  1  0.42507266  0.79907780  0.12866086  1
  N  N66  1  0.20479252  0.87950314  0.88330351  1
  N  N67  1  0.14413011  0.74932590  0.62657361  1
  N  N68  1  0.87946152  0.87868262  0.34960203  1
  N  N69  1  0.77892807  0.76229438  0.10803652  1
  N  N70  1  0.56611746  0.88981458  0.88463658  1
  N  N71  1  0.44631656  0.75830175  0.57934191  1
