# generated using pymatgen
data_Gd5Al31N36
_symmetry_space_group_name_H-M   'P 1'
_cell_length_a   9.74194508
_cell_length_b   9.71044458
_cell_length_c   10.38854765
_cell_angle_alpha   89.78353819
_cell_angle_beta   89.61404444
_cell_angle_gamma   60.26226703
_symmetry_Int_Tables_number   1
_chemical_formula_structural   Gd5Al31N36
_chemical_formula_sum   'Gd5 Al31 N36'
_cell_volume   853.30057427
_cell_formula_units_Z   1
loop_
 _symmetry_equiv_pos_site_id
 _symmetry_equiv_pos_as_xyz
  1  'x, y, z'
loop_
 _atom_site_type_symbol
 _atom_site_label
 _atom_site_symmetry_multiplicity
 _atom_site_fract_x
 _atom_site_fract_y
 _atom_site_fract_z
 _atom_site_occupancy
  Al  Al0  1  0.11806881  0.09484007  0.30952417  1
  Al  Al1  1  0.22253879  0.20247038  0.06031639  1
  Al  Al2  1  0.77234216  0.09682199  0.81433192  1
  Al  Al3  1  0.43939862  0.09992525  0.30532172  1
  Al  Al4  1  0.55560379  0.19888565  0.05869563  1
  Al  Al5  1  0.11910700  0.08867918  0.81425671  1
  Al  Al6  1  0.23136180  0.19950602  0.56174381  1
  Al  Al7  1  0.76275144  0.10049552  0.30913666  1
  Al  Al8  1  0.89615878  0.20358431  0.12566716  1
  Al  Al9  1  0.44890809  0.09704148  0.81059787  1
  Al  Al10  1  0.54342101  0.20839892  0.55845894  1
  Al  Al11  1  0.11239335  0.42335999  0.31724893  1
  Al  Al12  1  0.79825352  0.40963870  0.87717100  1
  Al  Al13  1  0.87212626  0.54434709  0.62507429  1
  Al  Al14  1  0.43730894  0.42211062  0.31649961  1
  Al  Al15  1  0.11680210  0.42125527  0.79765626  1
  Al  Al16  1  0.22652351  0.53528664  0.56289879  1
  Al  Al17  1  0.77465272  0.43778987  0.36905158  1
  Al  Al18  1  0.89398888  0.53339004  0.13006859  1
  Al  Al19  1  0.45475989  0.41714399  0.79750033  1
  Al  Al20  1  0.54273210  0.54493264  0.54118164  1
  Al  Al21  1  0.10780861  0.76807933  0.31597531  1
  Al  Al22  1  0.21089941  0.88826497  0.06568631  1
  Al  Al23  1  0.79083054  0.75797571  0.88272175  1
  Al  Al24  1  0.43198968  0.77770713  0.30978690  1
  Al  Al25  1  0.54979755  0.88547332  0.06353726  1
  Al  Al26  1  0.11753971  0.75997165  0.80564607  1
  Al  Al27  1  0.23568619  0.86692967  0.55416092  1
  Al  Al28  1  0.77088999  0.75746717  0.36995257  1
  Al  Al29  1  0.88515654  0.87675685  0.11197604  1
  Al  Al30  1  0.54173823  0.88012084  0.54558780  1
  Gd  Gd31  1  0.89668963  0.20219815  0.58737293  1
  Gd  Gd32  1  0.21622499  0.54181909  0.05649296  1
  Gd  Gd33  1  0.56225248  0.53503742  0.08702538  1
  Gd  Gd34  1  0.88974797  0.86642667  0.58709873  1
  Gd  Gd35  1  0.44984232  0.75883162  0.80401220  1
  N  N36  1  0.22202175  0.20510998  0.37468433  1
  N  N37  1  0.11705669  0.09613852  0.12563215  1
  N  N38  1  0.89692975  0.19993434  0.82231384  1
  N  N39  1  0.73718199  0.11374145  0.63225218  1
  N  N40  1  0.55000596  0.20436670  0.37369109  1
  N  N41  1  0.44274068  0.09778987  0.12047478  1
  N  N42  1  0.22457995  0.20623350  0.87166243  1
  N  N43  1  0.15927418  0.06689446  0.63093421  1
  N  N44  1  0.88373742  0.21180325  0.32833943  1
  N  N45  1  0.77055635  0.09891712  0.12006475  1
  N  N46  1  0.55329122  0.20694225  0.87271894  1
  N  N47  1  0.44465571  0.09307843  0.62055744  1
  N  N48  1  0.21458098  0.54352074  0.37130971  1
  N  N49  1  0.11312065  0.40571842  0.13360598  1
  N  N50  1  0.88301131  0.54225937  0.81311114  1
  N  N51  1  0.76204841  0.45368615  0.55096653  1
  N  N52  1  0.54322005  0.54572446  0.34770912  1
  N  N53  1  0.45105466  0.39509664  0.13880342  1
  N  N54  1  0.22761170  0.53205439  0.83916427  1
  N  N55  1  0.10996447  0.42312608  0.61099509  1
  N  N56  1  0.87971514  0.54507014  0.31352210  1
  N  N57  1  0.82119296  0.40574376  0.06125184  1
  N  N58  1  0.57212271  0.50675003  0.86496079  1
  N  N59  1  0.44529934  0.42622332  0.60740302  1
  N  N60  1  0.21370308  0.88081965  0.37093093  1
  N  N61  1  0.10093934  0.78994549  0.13527623  1
  N  N62  1  0.89552260  0.86807550  0.83502932  1
  N  N63  1  0.75993494  0.74488033  0.55509157  1
  N  N64  1  0.54351085  0.88474770  0.35925663  1
  N  N65  1  0.42537642  0.79735659  0.12401844  1
  N  N66  1  0.20039560  0.88039232  0.88470832  1
  N  N67  1  0.15206917  0.74533903  0.62273612  1
  N  N68  1  0.87982645  0.87638453  0.34431442  1
  N  N69  1  0.78947865  0.75187657  0.07319695  1
  N  N70  1  0.56675169  0.88964089  0.87974687  1
  N  N71  1  0.45009506  0.75678724  0.58673509  1
