# generated using pymatgen
data_Gd5Al31N36
_symmetry_space_group_name_H-M   'P 1'
_cell_length_a   9.68594848
_cell_length_b   9.68478612
_cell_length_c   10.29641483
_cell_angle_alpha   89.89916980
_cell_angle_beta   90.00584415
_cell_angle_gamma   59.89621293
_symmetry_Int_Tables_number   1
_chemical_formula_structural   Gd5Al31N36
_chemical_formula_sum   'Gd5 Al31 N36'
_cell_volume   835.58906923
_cell_formula_units_Z   1
loop_
 _symmetry_equiv_pos_site_id
 _symmetry_equiv_pos_as_xyz
  1  'x, y, z'
loop_
 _atom_site_type_symbol
 _atom_site_label
 _atom_site_symmetry_multiplicity
 _atom_site_fract_x
 _atom_site_fract_y
 _atom_site_fract_z
 _atom_site_occupancy
  Al  Al0  1  0.11053671  0.09671096  0.30071001  1
  Al  Al1  1  0.22192176  0.20283797  0.06310060  1
  Al  Al2  1  0.77114306  0.09823490  0.82183064  1
  Al  Al3  1  0.44434815  0.09683951  0.30961616  1
  Al  Al4  1  0.55490635  0.19920246  0.05974842  1
  Al  Al5  1  0.11480398  0.09342070  0.81978304  1
  Al  Al6  1  0.23184142  0.19828589  0.56256850  1
  Al  Al7  1  0.77451228  0.09559779  0.29522329  1
  Al  Al8  1  0.89429657  0.20301509  0.05840178  1
  Al  Al9  1  0.44695977  0.09961501  0.81327775  1
  Al  Al10  1  0.55098955  0.20402835  0.56007028  1
  Al  Al11  1  0.10735334  0.42473625  0.31817473  1
  Al  Al12  1  0.77821535  0.42779172  0.80819926  1
  Al  Al13  1  0.88020670  0.54197253  0.56136417  1
  Al  Al14  1  0.44594357  0.41919220  0.31988873  1
  Al  Al15  1  0.11013840  0.42523421  0.80179703  1
  Al  Al16  1  0.22654804  0.53632535  0.56117906  1
  Al  Al17  1  0.78473512  0.42452909  0.30507713  1
  Al  Al18  1  0.89303815  0.53192649  0.06043284  1
  Al  Al19  1  0.44789824  0.42083659  0.79442263  1
  Al  Al20  1  0.55660043  0.53753099  0.54558713  1
  Al  Al21  1  0.10653589  0.76857802  0.30677407  1
  Al  Al22  1  0.21329876  0.88618380  0.06681403  1
  Al  Al23  1  0.77752841  0.76036270  0.81998114  1
  Al  Al24  1  0.44023355  0.77145395  0.31930583  1
  Al  Al25  1  0.55312600  0.88316577  0.06709923  1
  Al  Al26  1  0.11382335  0.76189278  0.80863931  1
  Al  Al27  1  0.23088220  0.86887342  0.54918067  1
  Al  Al28  1  0.77845994  0.75987639  0.30108759  1
  Al  Al29  1  0.88743707  0.87534128  0.05899007  1
  Al  Al30  1  0.55540673  0.87312267  0.54953390  1
  Gd  Gd31  1  0.89846520  0.20052755  0.56488516  1
  Gd  Gd32  1  0.21722416  0.53580085  0.05971070  1
  Gd  Gd33  1  0.55331400  0.54175729  0.07081295  1
  Gd  Gd34  1  0.88658496  0.86558528  0.56481566  1
  Gd  Gd35  1  0.44122728  0.77202614  0.79329120  1
  N  N36  1  0.22283313  0.20160160  0.37363638  1
  N  N37  1  0.10957996  0.09984280  0.11593914  1
  N  N38  1  0.89082956  0.20688577  0.86488220  1
  N  N39  1  0.74957339  0.10804515  0.64047751  1
  N  N40  1  0.56040204  0.19807418  0.37352488  1
  N  N41  1  0.44181598  0.09898118  0.12307955  1
  N  N42  1  0.22414862  0.20794358  0.87265087  1
  N  N43  1  0.15370896  0.06900555  0.63594776  1
  N  N44  1  0.88817007  0.20231363  0.34597892  1
  N  N45  1  0.77537336  0.09572481  0.10639820  1
  N  N46  1  0.54890098  0.21182551  0.87287066  1
  N  N47  1  0.44765623  0.09112972  0.62131701  1
  N  N48  1  0.21720661  0.54241022  0.36836514  1
  N  N49  1  0.09862064  0.41121527  0.13385091  1
  N  N50  1  0.89200138  0.53572579  0.87152718  1
  N  N51  1  0.76309303  0.45012065  0.62247834  1
  N  N52  1  0.55889212  0.53576273  0.35525617  1
  N  N53  1  0.45551204  0.39567763  0.14081668  1
  N  N54  1  0.22435557  0.53444867  0.83968421  1
  N  N55  1  0.10691723  0.42571314  0.61339731  1
  N  N56  1  0.88488732  0.54228211  0.37294620  1
  N  N57  1  0.80382169  0.41364819  0.12216288  1
  N  N58  1  0.56214514  0.51783383  0.85304361  1
  N  N59  1  0.44735476  0.42427633  0.60507656  1
  N  N60  1  0.21272523  0.88059117  0.36549230  1
  N  N61  1  0.09837679  0.78846676  0.12532037  1
  N  N62  1  0.89281630  0.86801267  0.86559702  1
  N  N63  1  0.75588786  0.74886353  0.63477894  1
  N  N64  1  0.56134861  0.87658008  0.36404465  1
  N  N65  1  0.42602449  0.79852629  0.13139374  1
  N  N66  1  0.19882464  0.88213320  0.88404835  1
  N  N67  1  0.14391827  0.75082752  0.62426808  1
  N  N68  1  0.88376432  0.87529111  0.34616742  1
  N  N69  1  0.78076837  0.75591166  0.11464507  1
  N  N70  1  0.56704861  0.88968587  0.88367314  1
  N  N71  1  0.44928317  0.75788659  0.57363843  1
