# generated using pymatgen
data_Gd5Al31N36
_symmetry_space_group_name_H-M   'P 1'
_cell_length_a   9.68599621
_cell_length_b   9.68479433
_cell_length_c   10.29642129
_cell_angle_alpha   89.89984465
_cell_angle_beta   90.00732111
_cell_angle_gamma   59.89540152
_symmetry_Int_Tables_number   1
_chemical_formula_structural   Gd5Al31N36
_chemical_formula_sum   'Gd5 Al31 N36'
_cell_volume   835.58755495
_cell_formula_units_Z   1
loop_
 _symmetry_equiv_pos_site_id
 _symmetry_equiv_pos_as_xyz
  1  'x, y, z'
loop_
 _atom_site_type_symbol
 _atom_site_label
 _atom_site_symmetry_multiplicity
 _atom_site_fract_x
 _atom_site_fract_y
 _atom_site_fract_z
 _atom_site_occupancy
  Al  Al0  1  0.11054877  0.09675327  0.29053749  1
  Al  Al1  1  0.22193023  0.20287952  0.05292371  1
  Al  Al2  1  0.77114941  0.09828281  0.81165713  1
  Al  Al3  1  0.44436128  0.09687946  0.29944377  1
  Al  Al4  1  0.55491382  0.19924456  0.04957617  1
  Al  Al5  1  0.11480651  0.09347139  0.80960780  1
  Al  Al6  1  0.23185202  0.19832904  0.55239115  1
  Al  Al7  1  0.77452451  0.09563957  0.28504859  1
  Al  Al8  1  0.89430421  0.20305987  0.04822705  1
  Al  Al9  1  0.44696824  0.09966328  0.80309995  1
  Al  Al10  1  0.55099838  0.20407282  0.54989692  1
  Al  Al11  1  0.10736500  0.42477643  0.30799786  1
  Al  Al12  1  0.77822289  0.42784218  0.79802079  1
  Al  Al13  1  0.88022145  0.54201168  0.55118261  1
  Al  Al14  1  0.44595481  0.41923495  0.30971151  1
  Al  Al15  1  0.11014564  0.42528153  0.79162160  1
  Al  Al16  1  0.22655859  0.53636964  0.55100512  1
  Al  Al17  1  0.78474317  0.42457245  0.29489684  1
  Al  Al18  1  0.89304317  0.53197165  0.05025683  1
  Al  Al19  1  0.44790420  0.42088686  0.78424812  1
  Al  Al20  1  0.55661286  0.53757333  0.53541563  1
  Al  Al21  1  0.10654868  0.76861776  0.29660084  1
  Al  Al22  1  0.21330502  0.88622802  0.05664396  1
  Al  Al23  1  0.77753604  0.76040823  0.80980069  1
  Al  Al24  1  0.44024840  0.77149234  0.30912852  1
  Al  Al25  1  0.55313710  0.88320764  0.05692408  1
  Al  Al26  1  0.11382831  0.76194196  0.79846827  1
  Al  Al27  1  0.23089471  0.86891535  0.53900381  1
  Al  Al28  1  0.77847282  0.75991725  0.29091412  1
  Al  Al29  1  0.88744494  0.87538457  0.04881637  1
  Al  Al30  1  0.55542009  0.87316236  0.53935972  1
  Gd  Gd31  1  0.89847434  0.20056614  0.55470840  1
  Gd  Gd32  1  0.21722670  0.53584254  0.04953585  1
  Gd  Gd33  1  0.55331592  0.54180011  0.06062785  1
  Gd  Gd34  1  0.88659518  0.86562897  0.55464087  1
  Gd  Gd35  1  0.44122024  0.77208753  0.78311666  1
  N  N36  1  0.22284668  0.20164171  0.36346090  1
  N  N37  1  0.10958854  0.09988805  0.10576687  1
  N  N38  1  0.89083373  0.20693583  0.85470750  1
  N  N39  1  0.74958256  0.10808928  0.63030468  1
  N  N40  1  0.56041507  0.19811538  0.36335083  1
  N  N41  1  0.44182583  0.09902346  0.11290618  1
  N  N42  1  0.22415664  0.20798939  0.86247458  1
  N  N43  1  0.15372136  0.06904892  0.62577301  1
  N  N44  1  0.88818216  0.20235617  0.33580156  1
  N  N45  1  0.77538263  0.09576917  0.09622402  1
  N  N46  1  0.54890740  0.21187483  0.86269755  1
  N  N47  1  0.44766794  0.09117285  0.61114068  1
  N  N48  1  0.21721814  0.54245037  0.35819016  1
  N  N49  1  0.09862702  0.41125661  0.12367520  1
  N  N50  1  0.89201034  0.53577225  0.86135150  1
  N  N51  1  0.76311146  0.45016001  0.61229928  1
  N  N52  1  0.55890354  0.53580328  0.34508275  1
  N  N53  1  0.45551832  0.39572242  0.13064022  1
  N  N54  1  0.22436254  0.53449642  0.82950966  1
  N  N55  1  0.10693009  0.42575714  0.60322120  1
  N  N56  1  0.88489989  0.54232133  0.36276692  1
  N  N57  1  0.80382389  0.41369676  0.11198291  1
  N  N58  1  0.56215062  0.51788969  0.84285728  1
  N  N59  1  0.44736519  0.42432106  0.59490286  1
  N  N60  1  0.21274017  0.88063039  0.35531547  1
  N  N61  1  0.09838715  0.78850855  0.11514715  1
  N  N62  1  0.89282193  0.86805856  0.85542253  1
  N  N63  1  0.75590504  0.74890294  0.62459884  1
  N  N64  1  0.56136237  0.87661867  0.35387056  1
  N  N65  1  0.42603723  0.79856700  0.12121612  1
  N  N66  1  0.19882305  0.88218580  0.87387859  1
  N  N67  1  0.14393003  0.75087455  0.61409540  1
  N  N68  1  0.88377784  0.87533194  0.33599289  1
  N  N69  1  0.78077878  0.75595579  0.10447143  1
  N  N70  1  0.56705793  0.88973230  0.87349642  1
  N  N71  1  0.44929626  0.75792993  0.56346532  1
