# generated using pymatgen
data_Gd5Al31N36
_symmetry_space_group_name_H-M   'P 1'
_cell_length_a   9.69550826
_cell_length_b   9.70740718
_cell_length_c   10.51917604
_cell_angle_alpha   89.60830160
_cell_angle_beta   89.12523917
_cell_angle_gamma   60.19555054
_symmetry_Int_Tables_number   1
_chemical_formula_structural   Gd5Al31N36
_chemical_formula_sum   'Gd5 Al31 N36'
_cell_volume   858.98940791
_cell_formula_units_Z   1
loop_
 _symmetry_equiv_pos_site_id
 _symmetry_equiv_pos_as_xyz
  1  'x, y, z'
loop_
 _atom_site_type_symbol
 _atom_site_label
 _atom_site_symmetry_multiplicity
 _atom_site_fract_x
 _atom_site_fract_y
 _atom_site_fract_z
 _atom_site_occupancy
  Al  Al0  1  0.11232352  0.09903313  0.33685205  1
  Al  Al1  1  0.22525052  0.19861205  0.08056837  1
  Al  Al2  1  0.79513512  0.08178089  0.91973908  1
  Al  Al3  1  0.43323972  0.10257823  0.32920770  1
  Al  Al4  1  0.55160352  0.20029906  0.08562784  1
  Al  Al5  1  0.12628410  0.08094059  0.84147124  1
  Al  Al6  1  0.23144234  0.19459478  0.58908915  1
  Al  Al7  1  0.76399925  0.10191613  0.39490878  1
  Al  Al8  1  0.89161136  0.20188796  0.15711797  1
  Al  Al9  1  0.45634132  0.09003155  0.83508347  1
  Al  Al10  1  0.53554127  0.21265249  0.57382536  1
  Al  Al11  1  0.10582364  0.43772397  0.41290132  1
  Al  Al12  1  0.79961953  0.40805224  0.91505594  1
  Al  Al13  1  0.87642219  0.54255253  0.65010536  1
  Al  Al14  1  0.42926801  0.42617348  0.33664621  1
  Al  Al15  1  0.10806985  0.41802251  0.88992370  1
  Al  Al16  1  0.22779312  0.53156574  0.64499963  1
  Al  Al17  1  0.77985760  0.43184968  0.39313936  1
  Al  Al18  1  0.90333617  0.53040316  0.15591617  1
  Al  Al19  1  0.46911100  0.40527812  0.82776790  1
  Al  Al20  1  0.54190526  0.54623605  0.56115515  1
  Al  Al21  1  0.10714547  0.76938000  0.34091996  1
  Al  Al22  1  0.20876285  0.89407324  0.09532160  1
  Al  Al23  1  0.79361319  0.75364628  0.91971402  1
  Al  Al24  1  0.42826149  0.78069516  0.33662484  1
  Al  Al25  1  0.54929288  0.88525974  0.09178135  1
  Al  Al26  1  0.11907208  0.76217460  0.83510074  1
  Al  Al27  1  0.22946211  0.86936991  0.57942201  1
  Al  Al28  1  0.77345521  0.75614026  0.39430681  1
  Al  Al29  1  0.87641578  0.88246493  0.16577522  1
  Al  Al30  1  0.54226657  0.87713032  0.56703266  1
  Gd  Gd31  1  0.88126390  0.21543727  0.64592607  1
  Gd  Gd32  1  0.22176514  0.55661510  0.08173093  1
  Gd  Gd33  1  0.56325384  0.53882626  0.12027039  1
  Gd  Gd34  1  0.87655841  0.87012257  0.64329346  1
  Gd  Gd35  1  0.45715064  0.75181828  0.82873693  1
  N  N36  1  0.21849340  0.20520030  0.40229759  1
  N  N37  1  0.11580686  0.10247286  0.15377513  1
  N  N38  1  0.89972308  0.19378740  0.86336186  1
  N  N39  1  0.75282940  0.10795610  0.57317274  1
  N  N40  1  0.53259243  0.21345763  0.39241200  1
  N  N41  1  0.43987341  0.09915328  0.14603754  1
  N  N42  1  0.23584187  0.18816538  0.89331400  1
  N  N43  1  0.15041051  0.06977932  0.65743625  1
  N  N44  1  0.87790183  0.21134369  0.34494329  1
  N  N45  1  0.77943801  0.09351950  0.10280512  1
  N  N46  1  0.56106110  0.19809698  0.89691595  1
  N  N47  1  0.44965579  0.08955295  0.64688879  1
  N  N48  1  0.21202750  0.55035892  0.37835351  1
  N  N49  1  0.10112333  0.42120489  0.07558314  1
  N  N50  1  0.88531223  0.53692500  0.83843839  1
  N  N51  1  0.76352172  0.45542952  0.57224459  1
  N  N52  1  0.54307440  0.54619921  0.37209038  1
  N  N53  1  0.45328056  0.39534763  0.16058202  1
  N  N54  1  0.22936323  0.52661661  0.85075404  1
  N  N55  1  0.10442838  0.43000312  0.60279915  1
  N  N56  1  0.89377388  0.53674157  0.33787914  1
  N  N57  1  0.82018282  0.40623865  0.09499882  1
  N  N58  1  0.57527185  0.50293533  0.89776462  1
  N  N59  1  0.45479453  0.42119916  0.64119341  1
  N  N60  1  0.20959654  0.88426800  0.39920009  1
  N  N61  1  0.09623950  0.80048384  0.16294858  1
  N  N62  1  0.89631126  0.86504139  0.86436116  1
  N  N63  1  0.76264880  0.74275321  0.57625183  1
  N  N64  1  0.54244947  0.88501994  0.38456466  1
  N  N65  1  0.42209580  0.80140845  0.15338644  1
  N  N66  1  0.20601425  0.87478130  0.91401998  1
  N  N67  1  0.14447065  0.75150396  0.65407656  1
  N  N68  1  0.87175914  0.87949668  0.35273898  1
  N  N69  1  0.78677474  0.75351074  0.10531083  1
  N  N70  1  0.57056543  0.88371353  0.90796260  1
  N  N71  1  0.44664130  0.75742152  0.61288617  1
