# generated using pymatgen
data_Gd5Al31N36
_symmetry_space_group_name_H-M   'P 1'
_cell_length_a   9.70575659
_cell_length_b   9.70694941
_cell_length_c   10.62330473
_cell_angle_alpha   89.37190351
_cell_angle_beta   89.37663643
_cell_angle_gamma   59.74200626
_symmetry_Int_Tables_number   1
_chemical_formula_structural   Gd5Al31N36
_chemical_formula_sum   'Gd5 Al31 N36'
_cell_volume   864.43643675
_cell_formula_units_Z   1
loop_
 _symmetry_equiv_pos_site_id
 _symmetry_equiv_pos_as_xyz
  1  'x, y, z'
loop_
 _atom_site_type_symbol
 _atom_site_label
 _atom_site_symmetry_multiplicity
 _atom_site_fract_x
 _atom_site_fract_y
 _atom_site_fract_z
 _atom_site_occupancy
  Al  Al0  1  0.11043271  0.10300092  0.39895861  1
  Al  Al1  1  0.21400740  0.20459484  0.15158240  1
  Al  Al2  1  0.78376390  0.08927331  0.91619533  1
  Al  Al3  1  0.44011267  0.09666374  0.32861456  1
  Al  Al4  1  0.55993859  0.19581205  0.15072796  1
  Al  Al5  1  0.11117003  0.09847453  0.91644839  1
  Al  Al6  1  0.22452793  0.20329873  0.65166914  1
  Al  Al7  1  0.76505210  0.10547316  0.39259036  1
  Al  Al8  1  0.90017927  0.19458747  0.15444521  1
  Al  Al9  1  0.45776678  0.08794750  0.83025163  1
  Al  Al10  1  0.55158550  0.21512731  0.64513121  1
  Al  Al11  1  0.10770672  0.43182682  0.40968604  1
  Al  Al12  1  0.79370835  0.41604595  0.91772087  1
  Al  Al13  1  0.88058825  0.54215845  0.64959304  1
  Al  Al14  1  0.43136070  0.42711934  0.40320310  1
  Al  Al15  1  0.11131432  0.41666398  0.89395426  1
  Al  Al16  1  0.23030229  0.53203986  0.65589425  1
  Al  Al17  1  0.78618285  0.42721135  0.39302989  1
  Al  Al18  1  0.89414186  0.53026542  0.15363815  1
  Al  Al19  1  0.45743470  0.40633902  0.89795974  1
  Al  Al20  1  0.54934837  0.55050740  0.56252471  1
  Al  Al21  1  0.10523001  0.77387835  0.33683104  1
  Al  Al22  1  0.21761478  0.87813446  0.09170447  1
  Al  Al23  1  0.79464169  0.75540165  0.91760648  1
  Al  Al24  1  0.43232165  0.77917314  0.33236853  1
  Al  Al25  1  0.54984742  0.88343539  0.08793885  1
  Al  Al26  1  0.11970625  0.76066967  0.83991923  1
  Al  Al27  1  0.23159391  0.86453820  0.57225347  1
  Al  Al28  1  0.77599460  0.75640125  0.39510204  1
  Al  Al29  1  0.87691795  0.88086842  0.16059832  1
  Al  Al30  1  0.54165654  0.88024969  0.56585834  1
  Gd  Gd31  1  0.88703893  0.21126668  0.65720735  1
  Gd  Gd32  1  0.21021479  0.53448941  0.13692637  1
  Gd  Gd33  1  0.55638467  0.52721709  0.13149899  1
  Gd  Gd34  1  0.87359223  0.87538461  0.64439849  1
  Gd  Gd35  1  0.45536247  0.75582186  0.82903418  1
  N  N36  1  0.21062229  0.21869749  0.33846723  1
  N  N37  1  0.11236597  0.09874226  0.09816629  1
  N  N38  1  0.89604252  0.19858151  0.87074224  1
  N  N39  1  0.74780675  0.11850951  0.56648939  1
  N  N40  1  0.54876617  0.21778531  0.33413909  1
  N  N41  1  0.44339432  0.09082187  0.14743097  1
  N  N42  1  0.22202294  0.19806205  0.83714798  1
  N  N43  1  0.13609609  0.09077821  0.57896137  1
  N  N44  1  0.88961481  0.20514184  0.33987943  1
  N  N45  1  0.77636627  0.09360559  0.09927321  1
  N  N46  1  0.57501422  0.19837080  0.82912038  1
  N  N47  1  0.45292207  0.08560034  0.64271146  1
  N  N48  1  0.21370888  0.54396472  0.35778620  1
  N  N49  1  0.09508320  0.40679737  0.07244886  1
  N  N50  1  0.88610076  0.53964600  0.83794402  1
  N  N51  1  0.77162295  0.44932646  0.57249115  1
  N  N52  1  0.54870742  0.54480512  0.37179115  1
  N  N53  1  0.44993435  0.38524719  0.07136819  1
  N  N54  1  0.23039883  0.52374992  0.84501234  1
  N  N55  1  0.10961259  0.42917783  0.59605960  1
  N  N56  1  0.89269934  0.53871418  0.33604250  1
  N  N57  1  0.81031075  0.40770253  0.09846425  1
  N  N58  1  0.57525166  0.51064645  0.89517715  1
  N  N59  1  0.43974063  0.42966053  0.58547193  1
  N  N60  1  0.21775826  0.87215841  0.39206132  1
  N  N61  1  0.09658066  0.79784848  0.15827769  1
  N  N62  1  0.89443326  0.86884474  0.86312718  1
  N  N63  1  0.76556101  0.74329914  0.57489439  1
  N  N64  1  0.54325746  0.88416239  0.38616751  1
  N  N65  1  0.42831645  0.79394340  0.15165389  1
  N  N66  1  0.20863559  0.87168445  0.91153347  1
  N  N67  1  0.14164604  0.75654786  0.65513517  1
  N  N68  1  0.87277127  0.88036937  0.34917217  1
  N  N69  1  0.78938092  0.75159290  0.10187523  1
  N  N70  1  0.56930888  0.88919955  0.90877745  1
  N  N71  1  0.44648519  0.76118953  0.61405131  1
