# generated using pymatgen
data_Gd5Al31N36
_symmetry_space_group_name_H-M   'P 1'
_cell_length_a   9.68094553
_cell_length_b   9.71247443
_cell_length_c   10.63893689
_cell_angle_alpha   89.58003298
_cell_angle_beta   89.42237051
_cell_angle_gamma   60.03686298
_symmetry_Int_Tables_number   1
_chemical_formula_structural   Gd5Al31N36
_chemical_formula_sum   'Gd5 Al31 N36'
_cell_volume   866.59092458
_cell_formula_units_Z   1
loop_
 _symmetry_equiv_pos_site_id
 _symmetry_equiv_pos_as_xyz
  1  'x, y, z'
loop_
 _atom_site_type_symbol
 _atom_site_label
 _atom_site_symmetry_multiplicity
 _atom_site_fract_x
 _atom_site_fract_y
 _atom_site_fract_z
 _atom_site_occupancy
  Al  Al0  1  0.11037296  0.10132702  0.39811146  1
  Al  Al1  1  0.21572903  0.21140262  0.15327282  1
  Al  Al2  1  0.78038021  0.08900946  0.91794376  1
  Al  Al3  1  0.44041861  0.09229537  0.33127066  1
  Al  Al4  1  0.56382468  0.19620829  0.16284782  1
  Al  Al5  1  0.10998304  0.09705295  0.91818527  1
  Al  Al6  1  0.22480783  0.20057596  0.65136379  1
  Al  Al7  1  0.76770668  0.10044750  0.39697460  1
  Al  Al8  1  0.89901095  0.19789102  0.15637295  1
  Al  Al9  1  0.45654470  0.08671895  0.83286927  1
  Al  Al10  1  0.55399091  0.20518768  0.64188052  1
  Al  Al11  1  0.10948624  0.42994596  0.40795727  1
  Al  Al12  1  0.79653258  0.41152401  0.91640668  1
  Al  Al13  1  0.87856182  0.53955914  0.64800628  1
  Al  Al14  1  0.43112356  0.42982821  0.33722871  1
  Al  Al15  1  0.10835506  0.41417060  0.89041404  1
  Al  Al16  1  0.22555203  0.53572067  0.62654038  1
  Al  Al17  1  0.78363856  0.42687759  0.39292793  1
  Al  Al18  1  0.90136057  0.53044929  0.15518690  1
  Al  Al19  1  0.45950792  0.41866647  0.82553103  1
  Al  Al20  1  0.54516860  0.54429089  0.56053270  1
  Al  Al21  1  0.10825090  0.76502897  0.33797654  1
  Al  Al22  1  0.21462958  0.88482224  0.09805031  1
  Al  Al23  1  0.79351576  0.75460101  0.91840372  1
  Al  Al24  1  0.43177657  0.77604250  0.33405534  1
  Al  Al25  1  0.54864279  0.88799550  0.08941678  1
  Al  Al26  1  0.11735937  0.76333623  0.83329879  1
  Al  Al27  1  0.23122573  0.86360787  0.56931293  1
  Al  Al28  1  0.77620512  0.75345579  0.39548272  1
  Al  Al29  1  0.87596531  0.88198091  0.16491340  1
  Al  Al30  1  0.54144256  0.87567332  0.56505735  1
  Gd  Gd31  1  0.88870284  0.21042643  0.65662591  1
  Gd  Gd32  1  0.21522086  0.55799802  0.07594614  1
  Gd  Gd33  1  0.55976696  0.54288581  0.11398647  1
  Gd  Gd34  1  0.87241185  0.87258551  0.64416212  1
  Gd  Gd35  1  0.45323765  0.75699158  0.82599819  1
  N  N36  1  0.21112306  0.21682968  0.33876240  1
  N  N37  1  0.11194334  0.10394408  0.09853774  1
  N  N38  1  0.89532686  0.19580337  0.87039588  1
  N  N39  1  0.75179032  0.11395374  0.57045796  1
  N  N40  1  0.55347555  0.20256492  0.34899676  1
  N  N41  1  0.44487853  0.09532642  0.14640259  1
  N  N42  1  0.22049228  0.19636630  0.83714153  1
  N  N43  1  0.13710563  0.08790781  0.57842974  1
  N  N44  1  0.88864932  0.20427991  0.34114277  1
  N  N45  1  0.77510762  0.09564384  0.10078872  1
  N  N46  1  0.57374402  0.19449594  0.83444225  1
  N  N47  1  0.45320275  0.08001782  0.64451505  1
  N  N48  1  0.21465274  0.54705413  0.38554054  1
  N  N49  1  0.10293281  0.41234132  0.07448685  1
  N  N50  1  0.88429667  0.53760330  0.83740721  1
  N  N51  1  0.76861497  0.44749763  0.57245265  1
  N  N52  1  0.54752511  0.54318212  0.37336259  1
  N  N53  1  0.44335266  0.41020949  0.15843020  1
  N  N54  1  0.22598451  0.52827906  0.85300272  1
  N  N55  1  0.10772211  0.42430031  0.59654063  1
  N  N56  1  0.89312401  0.53663626  0.33653789  1
  N  N57  1  0.81715125  0.40723332  0.09660052  1
  N  N58  1  0.57215090  0.50790309  0.89616602  1
  N  N59  1  0.44963787  0.43027022  0.63847289  1
  N  N60  1  0.21633448  0.87158859  0.39102701  1
  N  N61  1  0.09561936  0.79882798  0.16274172  1
  N  N62  1  0.89333885  0.86804901  0.86282597  1
  N  N63  1  0.76458504  0.74007679  0.57522815  1
  N  N64  1  0.54367851  0.88032228  0.38653595  1
  N  N65  1  0.42456617  0.80289816  0.15556502  1
  N  N66  1  0.20855740  0.86878881  0.91481192  1
  N  N67  1  0.14042471  0.75606137  0.65288554  1
  N  N68  1  0.87374649  0.87693988  0.35195230  1
  N  N69  1  0.78888262  0.75227224  0.10214965  1
  N  N70  1  0.56754987  0.88687610  0.90951079  1
  N  N71  1  0.44541175  0.75744775  0.61282839  1
