# generated using pymatgen
data_Gd5Al31N36
_symmetry_space_group_name_H-M   'P 1'
_cell_length_a   9.71575635
_cell_length_b   9.72321016
_cell_length_c   10.27855087
_cell_angle_alpha   89.64451016
_cell_angle_beta   90.01555636
_cell_angle_gamma   59.80861684
_symmetry_Int_Tables_number   1
_chemical_formula_structural   Gd5Al31N36
_chemical_formula_sum   'Gd5 Al31 N36'
_cell_volume   839.25963019
_cell_formula_units_Z   1
loop_
 _symmetry_equiv_pos_site_id
 _symmetry_equiv_pos_as_xyz
  1  'x, y, z'
loop_
 _atom_site_type_symbol
 _atom_site_label
 _atom_site_symmetry_multiplicity
 _atom_site_fract_x
 _atom_site_fract_y
 _atom_site_fract_z
 _atom_site_occupancy
  Al  Al0  1  0.11837335  0.09535425  0.38848236  1
  Al  Al1  1  0.22228590  0.20204456  0.14528558  1
  Al  Al2  1  0.77472408  0.09625136  0.91528865  1
  Al  Al3  1  0.44299945  0.09837725  0.39550136  1
  Al  Al4  1  0.55660539  0.19765956  0.14670777  1
  Al  Al5  1  0.10481771  0.10057546  0.90892253  1
  Al  Al6  1  0.22984554  0.20212777  0.64690634  1
  Al  Al7  1  0.77161582  0.09777230  0.38685952  1
  Al  Al8  1  0.89216645  0.20416358  0.14848603  1
  Al  Al9  1  0.44895293  0.09750346  0.89553248  1
  Al  Al10  1  0.54978641  0.20478618  0.64682918  1
  Al  Al11  1  0.11100161  0.42580267  0.40631153  1
  Al  Al12  1  0.78214186  0.42387176  0.90190262  1
  Al  Al13  1  0.88277969  0.54163961  0.64746643  1
  Al  Al14  1  0.44391836  0.42386049  0.41329238  1
  Al  Al15  1  0.10626730  0.42473398  0.89019584  1
  Al  Al16  1  0.22514103  0.53707108  0.64963127  1
  Al  Al17  1  0.78189740  0.42876309  0.40150868  1
  Al  Al18  1  0.89143170  0.53206175  0.14727748  1
  Al  Al19  1  0.45181038  0.41416739  0.88445603  1
  Al  Al20  1  0.55992445  0.53218018  0.63969050  1
  Al  Al21  1  0.11638639  0.75702762  0.39826969  1
  Al  Al22  1  0.21727045  0.88307495  0.14217445  1
  Al  Al23  1  0.77771719  0.76339415  0.90736610  1
  Al  Al24  1  0.44893153  0.76234898  0.40577933  1
  Al  Al25  1  0.55088981  0.87975870  0.15088051  1
  Al  Al26  1  0.10114772  0.77191610  0.90507902  1
  Al  Al27  1  0.22724117  0.87250224  0.61658404  1
  Al  Al28  1  0.77753725  0.75651184  0.39028539  1
  Al  Al29  1  0.88573536  0.87503607  0.15023466  1
  Al  Al30  1  0.55816325  0.87769946  0.63898166  1
  Gd  Gd31  1  0.89549429  0.19963729  0.65090554  1
  Gd  Gd32  1  0.22058958  0.52915246  0.14363680  1
  Gd  Gd33  1  0.55317267  0.53908216  0.15202851  1
  Gd  Gd34  1  0.88457174  0.86782281  0.65089544  1
  Gd  Gd35  1  0.43942915  0.76828336  0.87058962  1
  N  N36  1  0.22398136  0.21071671  0.33383956  1
  N  N37  1  0.11014844  0.09806901  0.09724660  1
  N  N38  1  0.88614166  0.20536955  0.86979028  1
  N  N39  1  0.74859602  0.10824716  0.56791205  1
  N  N40  1  0.54845056  0.21169664  0.33378890  1
  N  N41  1  0.44452404  0.09440098  0.08644986  1
  N  N42  1  0.22382909  0.20129966  0.83657457  1
  N  N43  1  0.14230225  0.08615622  0.57147092  1
  N  N44  1  0.89011548  0.20698223  0.34087930  1
  N  N45  1  0.77585661  0.09484236  0.10301705  1
  N  N46  1  0.56178567  0.19793983  0.83376948  1
  N  N47  1  0.44331127  0.09798325  0.58340054  1
  N  N48  1  0.22439770  0.53364452  0.36284994  1
  N  N49  1  0.09624919  0.40958720  0.07379750  1
  N  N50  1  0.88300450  0.54422935  0.83671530  1
  N  N51  1  0.77261877  0.44568881  0.58354851  1
  N  N52  1  0.55423794  0.53804757  0.37119987  1
  N  N53  1  0.46158579  0.39527877  0.06550074  1
  N  N54  1  0.21763041  0.54270141  0.84312761  1
  N  N55  1  0.10845940  0.42779000  0.59594166  1
  N  N56  1  0.89372971  0.53486152  0.33559699  1
  N  N57  1  0.79802435  0.41780219  0.08679527  1
  N  N58  1  0.57413572  0.50626189  0.82841416  1
  N  N59  1  0.44333255  0.42369041  0.59871770  1
  N  N60  1  0.22697588  0.86966330  0.34916317  1
  N  N61  1  0.10015988  0.78612878  0.09136691  1
  N  N62  1  0.88300972  0.87571879  0.87076527  1
  N  N63  1  0.76466233  0.74629790  0.57266827  1
  N  N64  1  0.55386132  0.87529387  0.33956778  1
  N  N65  1  0.42945948  0.79239978  0.09067528  1
  N  N66  1  0.18115251  0.89701987  0.83615888  1
  N  N67  1  0.13643936  0.74788084  0.58199758  1
  N  N68  1  0.89082641  0.86883297  0.34160217  1
  N  N69  1  0.77549423  0.75802430  0.09673925  1
  N  N70  1  0.57659773  0.89035383  0.82387221  1
  N  N71  1  0.44987355  0.76109691  0.60069353  1
