# generated using pymatgen
data_Gd5Al31N36
_symmetry_space_group_name_H-M   'P 1'
_cell_length_a   9.73417315
_cell_length_b   9.73970140
_cell_length_c   10.31233943
_cell_angle_alpha   89.60982251
_cell_angle_beta   90.16001271
_cell_angle_gamma   59.77626994
_symmetry_Int_Tables_number   1
_chemical_formula_structural   Gd5Al31N36
_chemical_formula_sum   'Gd5 Al31 N36'
_cell_volume   844.74902173
_cell_formula_units_Z   1
loop_
 _symmetry_equiv_pos_site_id
 _symmetry_equiv_pos_as_xyz
  1  'x, y, z'
loop_
 _atom_site_type_symbol
 _atom_site_label
 _atom_site_symmetry_multiplicity
 _atom_site_fract_x
 _atom_site_fract_y
 _atom_site_fract_z
 _atom_site_occupancy
  Al  Al0  1  0.11674421  0.09895168  0.38843184  1
  Al  Al1  1  0.22292248  0.20177363  0.14732283  1
  Al  Al2  1  0.77664732  0.09549890  0.91542562  1
  Al  Al3  1  0.44252543  0.09990587  0.39678328  1
  Al  Al4  1  0.55709189  0.19599959  0.14666969  1
  Al  Al5  1  0.10226023  0.10904387  0.91232959  1
  Al  Al6  1  0.22974322  0.20278304  0.64845372  1
  Al  Al7  1  0.76996333  0.09922945  0.38795704  1
  Al  Al8  1  0.89324625  0.20330413  0.15148578  1
  Al  Al9  1  0.45006081  0.09726659  0.89644091  1
  Al  Al10  1  0.54967968  0.20536807  0.64747666  1
  Al  Al11  1  0.10970477  0.42679672  0.40866712  1
  Al  Al12  1  0.78414159  0.42240300  0.90175540  1
  Al  Al13  1  0.88217933  0.54227267  0.64813113  1
  Al  Al14  1  0.44337480  0.42564938  0.41453252  1
  Al  Al15  1  0.10712875  0.42517519  0.89123624  1
  Al  Al16  1  0.22452111  0.53840180  0.65009627  1
  Al  Al17  1  0.77974807  0.43129913  0.40190095  1
  Al  Al18  1  0.89191025  0.53177795  0.14737835  1
  Al  Al19  1  0.45178305  0.41302131  0.88489174  1
  Al  Al20  1  0.55933704  0.53327418  0.64232027  1
  Al  Al21  1  0.11309800  0.75710855  0.39935927  1
  Al  Al22  1  0.21374356  0.88287074  0.09152910  1
  Al  Al23  1  0.77837534  0.76362896  0.90800947  1
  Al  Al24  1  0.45116517  0.76195312  0.39457214  1
  Al  Al25  1  0.55164448  0.87851401  0.15076662  1
  Al  Al26  1  0.09944038  0.76533943  0.91005383  1
  Al  Al27  1  0.23328039  0.86982772  0.57580720  1
  Al  Al28  1  0.77648794  0.75747210  0.39174889  1
  Al  Al29  1  0.88487462  0.87418972  0.15326182  1
  Al  Al30  1  0.55773053  0.87779382  0.64005346  1
  Gd  Gd31  1  0.89438127  0.20128311  0.64869999  1
  Gd  Gd32  1  0.22291913  0.52476880  0.14887268  1
  Gd  Gd33  1  0.55587313  0.53349978  0.14864640  1
  Gd  Gd34  1  0.88296887  0.86892008  0.65111061  1
  Gd  Gd35  1  0.44198801  0.76693402  0.86655645  1
  N  N36  1  0.22369252  0.21253117  0.33528951  1
  N  N37  1  0.10873681  0.10179528  0.10213307  1
  N  N38  1  0.88782838  0.20430065  0.86671790  1
  N  N39  1  0.74734510  0.10932779  0.56798680  1
  N  N40  1  0.54711551  0.21357649  0.33376430  1
  N  N41  1  0.44467200  0.09310399  0.08695253  1
  N  N42  1  0.22454150  0.20180188  0.83771689  1
  N  N43  1  0.14096421  0.08958103  0.57479356  1
  N  N44  1  0.88845731  0.20871856  0.34269853  1
  N  N45  1  0.77690984  0.09422214  0.10334959  1
  N  N46  1  0.56283624  0.19728327  0.83390042  1
  N  N47  1  0.44311241  0.09854909  0.58433408  1
  N  N48  1  0.22293048  0.53459711  0.36716679  1
  N  N49  1  0.09683399  0.40949519  0.07435554  1
  N  N50  1  0.88349521  0.54414710  0.83712680  1
  N  N51  1  0.77044076  0.44795428  0.58353288  1
  N  N52  1  0.55328884  0.53895976  0.36785361  1
  N  N53  1  0.46020072  0.39265559  0.06466300  1
  N  N54  1  0.21800851  0.54204396  0.84300588  1
  N  N55  1  0.10771007  0.42847128  0.59725853  1
  N  N56  1  0.89265184  0.53602006  0.33608867  1
  N  N57  1  0.80136351  0.41514851  0.08598673  1
  N  N58  1  0.57518248  0.50431934  0.83105787  1
  N  N59  1  0.44347038  0.42487290  0.59955298  1
  N  N60  1  0.22649555  0.87055762  0.37720771  1
  N  N61  1  0.09716184  0.77878139  0.09847133  1
  N  N62  1  0.88425074  0.87531284  0.87011688  1
  N  N63  1  0.76385074  0.74682679  0.57335322  1
  N  N64  1  0.55397974  0.87755174  0.33911653  1
  N  N65  1  0.43358337  0.78716414  0.09559693  1
  N  N66  1  0.18625634  0.89375228  0.88960855  1
  N  N67  1  0.13420655  0.74950489  0.58662899  1
  N  N68  1  0.88836568  0.87061353  0.34371099  1
  N  N69  1  0.77557399  0.75795637  0.09693202  1
  N  N70  1  0.57763276  0.89112503  0.82521304  1
  N  N71  1  0.45124766  0.76037635  0.60679945  1
