# generated using pymatgen
data_Gd5Al31N36
_symmetry_space_group_name_H-M   'P 1'
_cell_length_a   9.66934665
_cell_length_b   9.68937822
_cell_length_c   10.55778740
_cell_angle_alpha   89.81590531
_cell_angle_beta   89.41500799
_cell_angle_gamma   60.07033854
_symmetry_Int_Tables_number   1
_chemical_formula_structural   Gd5Al31N36
_chemical_formula_sum   'Gd5 Al31 N36'
_cell_volume   857.19633329
_cell_formula_units_Z   1
loop_
 _symmetry_equiv_pos_site_id
 _symmetry_equiv_pos_as_xyz
  1  'x, y, z'
loop_
 _atom_site_type_symbol
 _atom_site_label
 _atom_site_symmetry_multiplicity
 _atom_site_fract_x
 _atom_site_fract_y
 _atom_site_fract_z
 _atom_site_occupancy
  Al  Al0  1  0.11241690  0.09610119  0.30780803  1
  Al  Al1  1  0.22130938  0.20254161  0.06023189  1
  Al  Al2  1  0.79496680  0.08425743  0.89113116  1
  Al  Al3  1  0.43513512  0.10018470  0.30129191  1
  Al  Al4  1  0.55020898  0.20177483  0.05772782  1
  Al  Al5  1  0.12670156  0.08471292  0.81680001  1
  Al  Al6  1  0.23069318  0.19846750  0.55962466  1
  Al  Al7  1  0.76492044  0.10196298  0.36651838  1
  Al  Al8  1  0.89230519  0.20253978  0.12754998  1
  Al  Al9  1  0.45446630  0.09531362  0.80996699  1
  Al  Al10  1  0.53619085  0.21326329  0.54609434  1
  Al  Al11  1  0.11129070  0.42306821  0.31649990  1
  Al  Al12  1  0.80183991  0.41089446  0.88326748  1
  Al  Al13  1  0.87384746  0.54491295  0.62082801  1
  Al  Al14  1  0.43159286  0.42560958  0.30943133  1
  Al  Al15  1  0.12043287  0.41943828  0.79451666  1
  Al  Al16  1  0.22491777  0.53678958  0.56047424  1
  Al  Al17  1  0.77565404  0.43315708  0.36757266  1
  Al  Al18  1  0.89270285  0.53350315  0.13359513  1
  Al  Al19  1  0.46003085  0.41314191  0.79649092  1
  Al  Al20  1  0.54132448  0.54617795  0.53554724  1
  Al  Al21  1  0.10712969  0.76841206  0.31594463  1
  Al  Al22  1  0.21173941  0.88725534  0.06614876  1
  Al  Al23  1  0.79568710  0.75456882  0.89051097  1
  Al  Al24  1  0.43029992  0.77816618  0.30836398  1
  Al  Al25  1  0.55105716  0.88430118  0.06313207  1
  Al  Al26  1  0.12550715  0.75533521  0.80430647  1
  Al  Al27  1  0.22959653  0.87030677  0.55248594  1
  Al  Al28  1  0.77178782  0.75858012  0.36974590  1
  Al  Al29  1  0.87937112  0.88097522  0.13719077  1
  Al  Al30  1  0.54110142  0.87919998  0.54069979  1
  Gd  Gd31  1  0.88489100  0.21434700  0.61790873  1
  Gd  Gd32  1  0.20826452  0.54652564  0.05216027  1
  Gd  Gd33  1  0.55963640  0.53737424  0.08406981  1
  Gd  Gd34  1  0.87468633  0.87353845  0.61993753  1
  Gd  Gd35  1  0.45811978  0.75518481  0.79944013  1
  N  N36  1  0.21727688  0.20485683  0.37516981  1
  N  N37  1  0.11699747  0.09567750  0.12479431  1
  N  N38  1  0.89981765  0.19537257  0.83385537  1
  N  N39  1  0.75425513  0.10930590  0.54366441  1
  N  N40  1  0.53283312  0.21281874  0.36418417  1
  N  N41  1  0.44244097  0.09688402  0.11890774  1
  N  N42  1  0.22730765  0.20572831  0.87179657  1
  N  N43  1  0.15491926  0.06983245  0.63218868  1
  N  N44  1  0.87722605  0.21278355  0.31517833  1
  N  N45  1  0.78029657  0.09355799  0.07429851  1
  N  N46  1  0.55977661  0.20336302  0.86904943  1
  N  N47  1  0.45030169  0.09092066  0.62060711  1
  N  N48  1  0.21090492  0.54561217  0.37266845  1
  N  N49  1  0.11416468  0.40492016  0.13553339  1
  N  N50  1  0.88437091  0.54197498  0.81029530  1
  N  N51  1  0.76311727  0.45515213  0.54581501  1
  N  N52  1  0.54031179  0.54586841  0.34620654  1
  N  N53  1  0.44553788  0.39960909  0.13361293  1
  N  N54  1  0.23122428  0.53002091  0.83706294  1
  N  N55  1  0.11258733  0.42134478  0.61129536  1
  N  N56  1  0.87785908  0.54498390  0.31316059  1
  N  N57  1  0.82154279  0.40643068  0.06188875  1
  N  N58  1  0.57600376  0.50491305  0.86434715  1
  N  N59  1  0.44848461  0.42487461  0.60834053  1
  N  N60  1  0.21045615  0.88258750  0.37200140  1
  N  N61  1  0.10367778  0.78899703  0.13756939  1
  N  N62  1  0.89941593  0.86584219  0.83719440  1
  N  N63  1  0.76299685  0.74533254  0.54969868  1
  N  N64  1  0.54112166  0.88554667  0.35886443  1
  N  N65  1  0.42636521  0.79799469  0.12583582  1
  N  N66  1  0.20722538  0.87569863  0.88481902  1
  N  N67  1  0.14394153  0.74874920  0.62069618  1
  N  N68  1  0.87240422  0.87911911  0.32324235  1
  N  N69  1  0.79226903  0.75083169  0.07469211  1
  N  N70  1  0.57026995  0.88789524  0.88120492  1
  N  N71  1  0.44734374  0.75786704  0.58537681  1
