# generated using pymatgen
data_Gd5Al31N36
_symmetry_space_group_name_H-M   'P 1'
_cell_length_a   9.70395959
_cell_length_b   9.69244279
_cell_length_c   10.37930129
_cell_angle_alpha   90.18717958
_cell_angle_beta   90.04701497
_cell_angle_gamma   60.24511039
_symmetry_Int_Tables_number   1
_chemical_formula_structural   Gd5Al31N36
_chemical_formula_sum   'Gd5 Al31 N36'
_cell_volume   847.51197930
_cell_formula_units_Z   1
loop_
 _symmetry_equiv_pos_site_id
 _symmetry_equiv_pos_as_xyz
  1  'x, y, z'
loop_
 _atom_site_type_symbol
 _atom_site_label
 _atom_site_symmetry_multiplicity
 _atom_site_fract_x
 _atom_site_fract_y
 _atom_site_fract_z
 _atom_site_occupancy
  Al  Al0  1  0.10784397  0.10038140  0.30616530  1
  Al  Al1  1  0.22469933  0.20064612  0.06302225  1
  Al  Al2  1  0.77206237  0.09252880  0.81945360  1
  Al  Al3  1  0.44208884  0.09922356  0.30933036  1
  Al  Al4  1  0.55561322  0.19825174  0.05977551  1
  Al  Al5  1  0.12095064  0.08694790  0.81696692  1
  Al  Al6  1  0.22973954  0.20012168  0.56141291  1
  Al  Al7  1  0.77178674  0.10132185  0.29988138  1
  Al  Al8  1  0.90233948  0.19160023  0.06927270  1
  Al  Al9  1  0.44775219  0.09709806  0.81204099  1
  Al  Al10  1  0.54799091  0.20462141  0.56025647  1
  Al  Al11  1  0.11343171  0.42385239  0.31961545  1
  Al  Al12  1  0.79608528  0.41475680  0.88032182  1
  Al  Al13  1  0.87429691  0.53994155  0.63344718  1
  Al  Al14  1  0.43970624  0.42090824  0.31807742  1
  Al  Al15  1  0.12116475  0.41778816  0.80018906  1
  Al  Al16  1  0.22629474  0.53654329  0.56389447  1
  Al  Al17  1  0.77816393  0.43787828  0.37082994  1
  Al  Al18  1  0.89530385  0.53042127  0.13163087  1
  Al  Al19  1  0.45558648  0.41725205  0.79821933  1
  Al  Al20  1  0.54208178  0.54639064  0.53934880  1
  Al  Al21  1  0.10394010  0.77179044  0.30753550  1
  Al  Al22  1  0.21491047  0.88486446  0.06662387  1
  Al  Al23  1  0.77500332  0.76417131  0.82282169  1
  Al  Al24  1  0.43285367  0.77893424  0.31628310  1
  Al  Al25  1  0.55226819  0.88420210  0.06560507  1
  Al  Al26  1  0.11520265  0.76040674  0.80840362  1
  Al  Al27  1  0.22803758  0.87090068  0.55222632  1
  Al  Al28  1  0.76947361  0.77332435  0.29906755  1
  Al  Al29  1  0.88729286  0.87626815  0.05994124  1
  Al  Al30  1  0.54884465  0.87612172  0.55162058  1
  Gd  Gd31  1  0.89269365  0.20188110  0.58138774  1
  Gd  Gd32  1  0.21837193  0.53802280  0.05650119  1
  Gd  Gd33  1  0.56142984  0.53713113  0.09078657  1
  Gd  Gd34  1  0.88574900  0.85921439  0.56318043  1
  Gd  Gd35  1  0.45084202  0.75822305  0.79929346  1
  N  N36  1  0.22273282  0.20367325  0.37466164  1
  N  N37  1  0.11421222  0.09637640  0.12157448  1
  N  N38  1  0.89880159  0.19189406  0.85322324  1
  N  N39  1  0.74541748  0.10024678  0.63907400  1
  N  N40  1  0.55635768  0.20241235  0.37438364  1
  N  N41  1  0.44357792  0.09730722  0.12385572  1
  N  N42  1  0.22665921  0.20438597  0.87357912  1
  N  N43  1  0.15194277  0.07176996  0.63354797  1
  N  N44  1  0.88497685  0.20989652  0.34851052  1
  N  N45  1  0.77500020  0.09632503  0.11094843  1
  N  N46  1  0.55187529  0.20749694  0.87342966  1
  N  N47  1  0.44306390  0.09432794  0.62154760  1
  N  N48  1  0.21530013  0.54591015  0.37168339  1
  N  N49  1  0.11369523  0.40471392  0.13536538  1
  N  N50  1  0.89371802  0.53022407  0.82134095  1
  N  N51  1  0.76098544  0.45847762  0.55462047  1
  N  N52  1  0.54543271  0.54527658  0.34826775  1
  N  N53  1  0.45292623  0.39407468  0.14036617  1
  N  N54  1  0.22951469  0.53203445  0.83872161  1
  N  N55  1  0.10979214  0.42477812  0.61201174  1
  N  N56  1  0.88255015  0.54704647  0.31967253  1
  N  N57  1  0.81827719  0.40850066  0.06335522  1
  N  N58  1  0.57240734  0.50829873  0.86480478  1
  N  N59  1  0.44797400  0.42537355  0.60790101  1
  N  N60  1  0.21011504  0.88357838  0.36840308  1
  N  N61  1  0.09719957  0.78986445  0.12695984  1
  N  N62  1  0.89514451  0.86517271  0.86847425  1
  N  N63  1  0.74334929  0.75958213  0.63914196  1
  N  N64  1  0.55597061  0.88025333  0.36627250  1
  N  N65  1  0.42582644  0.79939784  0.12998869  1
  N  N66  1  0.20419970  0.87786587  0.88414040  1
  N  N67  1  0.14086951  0.75165728  0.62559949  1
  N  N68  1  0.88068897  0.88056107  0.34712696  1
  N  N69  1  0.77703519  0.76264237  0.11267393  1
  N  N70  1  0.56565774  0.88946734  0.88446709  1
  N  N71  1  0.44384118  0.76028409  0.58020916  1
