# generated using pymatgen
data_Gd5Al31N36
_symmetry_space_group_name_H-M   'P 1'
_cell_length_a   9.71937372
_cell_length_b   9.72756690
_cell_length_c   10.52303247
_cell_angle_alpha   89.47441891
_cell_angle_beta   89.06104162
_cell_angle_gamma   60.14664788
_symmetry_Int_Tables_number   1
_chemical_formula_structural   Gd5Al31N36
_chemical_formula_sum   'Gd5 Al31 N36'
_cell_volume   862.77053115
_cell_formula_units_Z   1
loop_
 _symmetry_equiv_pos_site_id
 _symmetry_equiv_pos_as_xyz
  1  'x, y, z'
loop_
 _atom_site_type_symbol
 _atom_site_label
 _atom_site_symmetry_multiplicity
 _atom_site_fract_x
 _atom_site_fract_y
 _atom_site_fract_z
 _atom_site_occupancy
  Al  Al0  1  0.10866616  0.09698039  0.33532417  1
  Al  Al1  1  0.21904325  0.20984744  0.14152260  1
  Al  Al2  1  0.79593600  0.08210733  0.91907069  1
  Al  Al3  1  0.43856383  0.10030454  0.32949707  1
  Al  Al4  1  0.55326285  0.19953580  0.08413970  1
  Al  Al5  1  0.12244761  0.08170480  0.84200592  1
  Al  Al6  1  0.23099484  0.20162238  0.65501664  1
  Al  Al7  1  0.76410583  0.10133915  0.39447430  1
  Al  Al8  1  0.88815564  0.20235995  0.15601256  1
  Al  Al9  1  0.46326212  0.08893025  0.83544838  1
  Al  Al10  1  0.53580680  0.21231590  0.57309578  1
  Al  Al11  1  0.11100724  0.43040962  0.40923191  1
  Al  Al12  1  0.79954247  0.40954451  0.91423825  1
  Al  Al13  1  0.87709185  0.54203630  0.64924359  1
  Al  Al14  1  0.43020249  0.42555708  0.33480611  1
  Al  Al15  1  0.10954694  0.41565636  0.89345575  1
  Al  Al16  1  0.22830169  0.53014140  0.65325402  1
  Al  Al17  1  0.77899726  0.43247132  0.39265779  1
  Al  Al18  1  0.90096316  0.53022272  0.15599312  1
  Al  Al19  1  0.47005099  0.40643768  0.82961963  1
  Al  Al20  1  0.54139476  0.54620578  0.56105030  1
  Al  Al21  1  0.10671169  0.76878002  0.33797766  1
  Al  Al22  1  0.20865896  0.89359674  0.09297196  1
  Al  Al23  1  0.79406948  0.75399053  0.91863116  1
  Al  Al24  1  0.42801291  0.78086542  0.33627168  1
  Al  Al25  1  0.54903773  0.88508439  0.09070648  1
  Al  Al26  1  0.11906117  0.76306656  0.83690617  1
  Al  Al27  1  0.22923950  0.86816375  0.57784877  1
  Al  Al28  1  0.77465798  0.75468830  0.39403826  1
  Al  Al29  1  0.87608760  0.88227743  0.16444474  1
  Al  Al30  1  0.54263981  0.87708178  0.56568848  1
  Gd  Gd31  1  0.88020430  0.21527139  0.64410256  1
  Gd  Gd32  1  0.21934122  0.55338137  0.08972029  1
  Gd  Gd33  1  0.56116449  0.54103558  0.11785735  1
  Gd  Gd34  1  0.87838881  0.86890461  0.64188278  1
  Gd  Gd35  1  0.45674584  0.75399442  0.82648428  1
  N  N36  1  0.21407432  0.21500117  0.35370568  1
  N  N37  1  0.10983598  0.09917453  0.14988051  1
  N  N38  1  0.89814071  0.19579750  0.86289566  1
  N  N39  1  0.75307945  0.10702529  0.57251020  1
  N  N40  1  0.53340420  0.21380564  0.39219602  1
  N  N41  1  0.44592299  0.09633326  0.14485514  1
  N  N42  1  0.23178906  0.20079861  0.84732792  1
  N  N43  1  0.14673436  0.06648426  0.65483741  1
  N  N44  1  0.87599013  0.21181907  0.34473325  1
  N  N45  1  0.77935757  0.09270916  0.10188301  1
  N  N46  1  0.56307548  0.19893294  0.89688727  1
  N  N47  1  0.45811140  0.08419080  0.64669368  1
  N  N48  1  0.21031140  0.54842506  0.36506467  1
  N  N49  1  0.10167044  0.41369063  0.07599854  1
  N  N50  1  0.88668386  0.53768231  0.83858210  1
  N  N51  1  0.76288091  0.45612789  0.57205812  1
  N  N52  1  0.54204936  0.54617036  0.37188950  1
  N  N53  1  0.45638704  0.39391953  0.15854627  1
  N  N54  1  0.22900477  0.52814728  0.85469312  1
  N  N55  1  0.10921007  0.42563571  0.60069987  1
  N  N56  1  0.89261284  0.53693089  0.33775983  1
  N  N57  1  0.81752847  0.40722671  0.09489282  1
  N  N58  1  0.57566243  0.50547232  0.89586618  1
  N  N59  1  0.45447471  0.42032967  0.64244364  1
  N  N60  1  0.20897489  0.88302301  0.39783763  1
  N  N61  1  0.09510742  0.80107347  0.15978581  1
  N  N62  1  0.89595479  0.86633209  0.86331289  1
  N  N63  1  0.76364923  0.74222731  0.57605080  1
  N  N64  1  0.54325294  0.88413377  0.38406344  1
  N  N65  1  0.42098128  0.80310981  0.15326298  1
  N  N66  1  0.20683665  0.87638641  0.91251778  1
  N  N67  1  0.14624651  0.74906999  0.65495786  1
  N  N68  1  0.87176165  0.87916461  0.35153817  1
  N  N69  1  0.78804203  0.75219115  0.10395067  1
  N  N70  1  0.57053448  0.88422225  0.90788048  1
  N  N71  1  0.44639415  0.75771314  0.61097882  1
