# generated using pymatgen
data_Gd5Al31N36
_symmetry_space_group_name_H-M   'P 1'
_cell_length_a   9.70460291
_cell_length_b   9.71684231
_cell_length_c   10.34102607
_cell_angle_alpha   90.02144734
_cell_angle_beta   89.88491613
_cell_angle_gamma   60.07889098
_symmetry_Int_Tables_number   1
_chemical_formula_structural   Gd5Al31N36
_chemical_formula_sum   'Gd5 Al31 N36'
_cell_volume   845.16297434
_cell_formula_units_Z   1
loop_
 _symmetry_equiv_pos_site_id
 _symmetry_equiv_pos_as_xyz
  1  'x, y, z'
loop_
 _atom_site_type_symbol
 _atom_site_label
 _atom_site_symmetry_multiplicity
 _atom_site_fract_x
 _atom_site_fract_y
 _atom_site_fract_z
 _atom_site_occupancy
  Al  Al0  1  0.10899178  0.09857457  0.30147028  1
  Al  Al1  1  0.22461306  0.20021485  0.06245588  1
  Al  Al2  1  0.77290764  0.09511469  0.82082606  1
  Al  Al3  1  0.44204835  0.09924971  0.30956057  1
  Al  Al4  1  0.55482588  0.19838277  0.05953587  1
  Al  Al5  1  0.12073837  0.08778537  0.81876234  1
  Al  Al6  1  0.23073784  0.19949136  0.56281411  1
  Al  Al7  1  0.77193564  0.09818857  0.29618823  1
  Al  Al8  1  0.89941128  0.19285382  0.06169993  1
  Al  Al9  1  0.44889568  0.09726417  0.81233328  1
  Al  Al10  1  0.55001773  0.20511489  0.56063256  1
  Al  Al11  1  0.11152094  0.42332701  0.32020557  1
  Al  Al12  1  0.79116223  0.41773908  0.87148089  1
  Al  Al13  1  0.87637055  0.53925831  0.63435961  1
  Al  Al14  1  0.44031864  0.41976668  0.31814593  1
  Al  Al15  1  0.12240705  0.41799916  0.80184081  1
  Al  Al16  1  0.22640467  0.53680110  0.56266425  1
  Al  Al17  1  0.77661809  0.43020755  0.33796905  1
  Al  Al18  1  0.89259116  0.53338660  0.12970094  1
  Al  Al19  1  0.45457593  0.41767391  0.79559135  1
  Al  Al20  1  0.54925366  0.54207796  0.53885927  1
  Al  Al21  1  0.10437132  0.77116514  0.30757178  1
  Al  Al22  1  0.21517768  0.88543538  0.06634494  1
  Al  Al23  1  0.77605490  0.76514677  0.82455389  1
  Al  Al24  1  0.43459881  0.77778244  0.31906252  1
  Al  Al25  1  0.55196963  0.88463797  0.06694022  1
  Al  Al26  1  0.11728550  0.75996024  0.80847482  1
  Al  Al27  1  0.22824621  0.87125365  0.55137067  1
  Al  Al28  1  0.77101306  0.77200213  0.30053620  1
  Al  Al29  1  0.88792480  0.87629525  0.05928537  1
  Al  Al30  1  0.55153849  0.87571023  0.54996695  1
  Gd  Gd31  1  0.89677738  0.20020156  0.56749823  1
  Gd  Gd32  1  0.21538957  0.53738223  0.05802961  1
  Gd  Gd33  1  0.54870849  0.54375012  0.08160595  1
  Gd  Gd34  1  0.88564469  0.86297036  0.56570789  1
  Gd  Gd35  1  0.45187747  0.76112349  0.79334033  1
  N  N36  1  0.22143724  0.20270093  0.37482327  1
  N  N37  1  0.11206065  0.09760667  0.11756498  1
  N  N38  1  0.89920356  0.19340837  0.86698227  1
  N  N39  1  0.74800572  0.10556833  0.64047507  1
  N  N40  1  0.55768631  0.20101103  0.37393519  1
  N  N41  1  0.44276898  0.09801410  0.12380127  1
  N  N42  1  0.22755098  0.20454778  0.87325734  1
  N  N43  1  0.15272089  0.07123708  0.63588697  1
  N  N44  1  0.88545979  0.20584657  0.34311988  1
  N  N45  1  0.77447407  0.09490167  0.10855000  1
  N  N46  1  0.55153970  0.20879931  0.87289075  1
  N  N47  1  0.44562229  0.09328174  0.62122714  1
  N  N48  1  0.21481963  0.54496105  0.37035904  1
  N  N49  1  0.11060299  0.40372844  0.13475297  1
  N  N50  1  0.89505926  0.53182256  0.82812667  1
  N  N51  1  0.76134915  0.45235387  0.57511282  1
  N  N52  1  0.54768951  0.54229576  0.34756897  1
  N  N53  1  0.45123649  0.39384926  0.14015634  1
  N  N54  1  0.23004022  0.53237440  0.83971999  1
  N  N55  1  0.11105181  0.42461353  0.61340202  1
  N  N56  1  0.88172344  0.54666354  0.32204308  1
  N  N57  1  0.80527171  0.41137864  0.08449648  1
  N  N58  1  0.57015018  0.51091163  0.85991114  1
  N  N59  1  0.44738168  0.42572140  0.60574195  1
  N  N60  1  0.20891516  0.88412315  0.36751882  1
  N  N61  1  0.09820292  0.78964397  0.12638255  1
  N  N62  1  0.89618505  0.86640400  0.86740633  1
  N  N63  1  0.74542040  0.75952768  0.63986286  1
  N  N64  1  0.55723755  0.88069239  0.36532832  1
  N  N65  1  0.42488452  0.80206791  0.13284483  1
  N  N66  1  0.20700155  0.87657760  0.88323111  1
  N  N67  1  0.14237148  0.75119622  0.62497925  1
  N  N68  1  0.88148235  0.87943037  0.34802142  1
  N  N69  1  0.77794749  0.76334776  0.11278777  1
  N  N70  1  0.56574747  0.88962067  0.88500098  1
  N  N71  1  0.44567496  0.75973784  0.57348346  1
