# generated using pymatgen
data_Gd5Al31N36
_symmetry_space_group_name_H-M   'P 1'
_cell_length_a   9.72948711
_cell_length_b   9.70692080
_cell_length_c   10.35618851
_cell_angle_alpha   90.01065833
_cell_angle_beta   89.66548525
_cell_angle_gamma   60.23903052
_symmetry_Int_Tables_number   1
_chemical_formula_structural   Gd5Al31N36
_chemical_formula_sum   'Gd5 Al31 N36'
_cell_volume   849.04926948
_cell_formula_units_Z   1
loop_
 _symmetry_equiv_pos_site_id
 _symmetry_equiv_pos_as_xyz
  1  'x, y, z'
loop_
 _atom_site_type_symbol
 _atom_site_label
 _atom_site_symmetry_multiplicity
 _atom_site_fract_x
 _atom_site_fract_y
 _atom_site_fract_z
 _atom_site_occupancy
  Al  Al0  1  0.11723577  0.09537699  0.30905132  1
  Al  Al1  1  0.22377950  0.20128633  0.06094642  1
  Al  Al2  1  0.77191509  0.09650920  0.81699568  1
  Al  Al3  1  0.43979609  0.10035814  0.30752671  1
  Al  Al4  1  0.55556138  0.19894992  0.05939904  1
  Al  Al5  1  0.12003822  0.08805046  0.81391788  1
  Al  Al6  1  0.23043207  0.19967491  0.56208530  1
  Al  Al7  1  0.76532521  0.09705191  0.30299883  1
  Al  Al8  1  0.89610387  0.20311207  0.12535204  1
  Al  Al9  1  0.44915903  0.09645143  0.81068180  1
  Al  Al10  1  0.54579116  0.20500138  0.55991856  1
  Al  Al11  1  0.11181647  0.42447683  0.31829910  1
  Al  Al12  1  0.79958437  0.40662075  0.88000424  1
  Al  Al13  1  0.87269110  0.54129170  0.63278386  1
  Al  Al14  1  0.43851482  0.42157740  0.31782933  1
  Al  Al15  1  0.12025770  0.41836961  0.80064994  1
  Al  Al16  1  0.22575796  0.53596645  0.56425593  1
  Al  Al17  1  0.77600508  0.43927633  0.36918201  1
  Al  Al18  1  0.89549418  0.53034118  0.12802122  1
  Al  Al19  1  0.45520895  0.41744277  0.79809200  1
  Al  Al20  1  0.54314721  0.54464519  0.53970535  1
  Al  Al21  1  0.10287414  0.77179193  0.30898842  1
  Al  Al22  1  0.21338067  0.88780719  0.06562554  1
  Al  Al23  1  0.78124598  0.75951775  0.84507893  1
  Al  Al24  1  0.43226303  0.77705994  0.31468728  1
  Al  Al25  1  0.55011467  0.88562417  0.06603942  1
  Al  Al26  1  0.11794545  0.76031212  0.80916352  1
  Al  Al27  1  0.23091125  0.86810813  0.55325847  1
  Al  Al28  1  0.76903856  0.77113129  0.30180559  1
  Al  Al29  1  0.88980563  0.88120170  0.06106277  1
  Al  Al30  1  0.55006419  0.87521984  0.54821352  1
  Gd  Gd31  1  0.89394015  0.20063121  0.58716082  1
  Gd  Gd32  1  0.21796065  0.53992489  0.05819879  1
  Gd  Gd33  1  0.56037826  0.53740832  0.08742433  1
  Gd  Gd34  1  0.88765271  0.85994639  0.56853480  1
  Gd  Gd35  1  0.45353016  0.75797191  0.79845145  1
  N  N36  1  0.22204946  0.20516752  0.37501552  1
  N  N37  1  0.11708895  0.09643245  0.12475321  1
  N  N38  1  0.89741805  0.19750738  0.82360186  1
  N  N39  1  0.74134094  0.10249462  0.63614685  1
  N  N40  1  0.55282181  0.20308389  0.37405790  1
  N  N41  1  0.44220357  0.09877382  0.12242757  1
  N  N42  1  0.22670274  0.20403544  0.87192361  1
  N  N43  1  0.15567844  0.06873490  0.62978875  1
  N  N44  1  0.88335097  0.21198443  0.32758320  1
  N  N45  1  0.77247720  0.09770890  0.11476768  1
  N  N46  1  0.55229160  0.20751407  0.87303615  1
  N  N47  1  0.44315935  0.09321413  0.62041234  1
  N  N48  1  0.21370602  0.54586103  0.37089763  1
  N  N49  1  0.11336268  0.40492323  0.13363342  1
  N  N50  1  0.89176653  0.53183149  0.82330092  1
  N  N51  1  0.76285299  0.45517896  0.55164639  1
  N  N52  1  0.54479079  0.54456599  0.34758123  1
  N  N53  1  0.45251369  0.39480038  0.13994143  1
  N  N54  1  0.22900126  0.53189510  0.84053196  1
  N  N55  1  0.10959376  0.42401203  0.61276388  1
  N  N56  1  0.88090451  0.54650315  0.31582996  1
  N  N57  1  0.81896283  0.40541063  0.06352392  1
  N  N58  1  0.57322278  0.50749845  0.86369895  1
  N  N59  1  0.44669681  0.42522641  0.60726504  1
  N  N60  1  0.21027890  0.88166284  0.36961289  1
  N  N61  1  0.09720612  0.79240361  0.12853520  1
  N  N62  1  0.89726283  0.86852146  0.86923089  1
  N  N63  1  0.74647582  0.75696179  0.62736929  1
  N  N64  1  0.55235376  0.88110296  0.36139454  1
  N  N65  1  0.42497966  0.79880132  0.12834078  1
  N  N66  1  0.20495052  0.87951443  0.88329022  1
  N  N67  1  0.14510461  0.74860479  0.62690149  1
  N  N68  1  0.87929310  0.87855182  0.34949471  1
  N  N69  1  0.78012870  0.76096602  0.10402441  1
  N  N70  1  0.56593056  0.88984754  0.88446633  1
  N  N71  1  0.44622721  0.75834606  0.57922007  1
