# generated using pymatgen
data_Gd5Al31N36
_symmetry_space_group_name_H-M   'P 1'
_cell_length_a   9.68585911
_cell_length_b   9.68465594
_cell_length_c   10.29656994
_cell_angle_alpha   89.89931393
_cell_angle_beta   90.00686851
_cell_angle_gamma   59.89484837
_symmetry_Int_Tables_number   1
_chemical_formula_structural   Gd5Al31N36
_chemical_formula_sum   'Gd5 Al31 N36'
_cell_volume   835.57116366
_cell_formula_units_Z   1
loop_
 _symmetry_equiv_pos_site_id
 _symmetry_equiv_pos_as_xyz
  1  'x, y, z'
loop_
 _atom_site_type_symbol
 _atom_site_label
 _atom_site_symmetry_multiplicity
 _atom_site_fract_x
 _atom_site_fract_y
 _atom_site_fract_z
 _atom_site_occupancy
  Al  Al0  1  0.11055063  0.09676531  0.28681729  1
  Al  Al1  1  0.22193170  0.20290360  0.04923474  1
  Al  Al2  1  0.77115950  0.09829109  0.80794914  1
  Al  Al3  1  0.44436998  0.09690542  0.29573857  1
  Al  Al4  1  0.55493229  0.19927151  0.04586258  1
  Al  Al5  1  0.11482140  0.09347540  0.80593052  1
  Al  Al6  1  0.23186085  0.19833481  0.54869436  1
  Al  Al7  1  0.77454027  0.09565188  0.28131993  1
  Al  Al8  1  0.89430598  0.20307986  0.04450418  1
  Al  Al9  1  0.44696224  0.09969979  0.79941127  1
  Al  Al10  1  0.55101777  0.20408565  0.54618698  1
  Al  Al11  1  0.10736438  0.42479550  0.30430180  1
  Al  Al12  1  0.77820958  0.42786505  0.79431343  1
  Al  Al13  1  0.88019748  0.54203126  0.54748122  1
  Al  Al14  1  0.44596088  0.41925099  0.30600366  1
  Al  Al15  1  0.11012556  0.42529832  0.78790462  1
  Al  Al16  1  0.22654705  0.53637899  0.54730809  1
  Al  Al17  1  0.78473993  0.42458388  0.29117823  1
  Al  Al18  1  0.89304372  0.53198856  0.04655286  1
  Al  Al19  1  0.44790232  0.42092034  0.78051546  1
  Al  Al20  1  0.55662026  0.53757092  0.53169113  1
  Al  Al21  1  0.10657025  0.76859934  0.29287457  1
  Al  Al22  1  0.21333767  0.88622531  0.05294947  1
  Al  Al23  1  0.77752935  0.76043598  0.80610915  1
  Al  Al24  1  0.44025846  0.77150778  0.30548621  1
  Al  Al25  1  0.55312897  0.88323952  0.05323507  1
  Al  Al26  1  0.11382652  0.76196376  0.79474582  1
  Al  Al27  1  0.23087930  0.86892987  0.53527978  1
  Al  Al28  1  0.77847725  0.75992771  0.28719280  1
  Al  Al29  1  0.88747237  0.87537813  0.04510910  1
  Al  Al30  1  0.55542122  0.87319674  0.53564207  1
  Gd  Gd31  1  0.89850639  0.20056958  0.55100199  1
  Gd  Gd32  1  0.21725970  0.53581389  0.04577942  1
  Gd  Gd33  1  0.55329966  0.54186421  0.05691101  1
  Gd  Gd34  1  0.88657427  0.86564227  0.55089508  1
  Gd  Gd35  1  0.44122574  0.77213705  0.77934513  1
  N  N36  1  0.22285049  0.20164953  0.35976403  1
  N  N37  1  0.10959524  0.09989574  0.10205003  1
  N  N38  1  0.89083815  0.20695068  0.85099697  1
  N  N39  1  0.74960969  0.10809289  0.62659266  1
  N  N40  1  0.56043466  0.19812676  0.35964302  1
  N  N41  1  0.44183176  0.09906270  0.10920480  1
  N  N42  1  0.22415137  0.20802073  0.85878489  1
  N  N43  1  0.15376006  0.06903338  0.62209648  1
  N  N44  1  0.88818799  0.20236960  0.33209237  1
  N  N45  1  0.77540669  0.09577016  0.09249916  1
  N  N46  1  0.54890722  0.21191244  0.85898430  1
  N  N47  1  0.44767372  0.09119745  0.60744691  1
  N  N48  1  0.21722328  0.54245285  0.35450124  1
  N  N49  1  0.09862676  0.41128658  0.11998274  1
  N  N50  1  0.89200262  0.53579282  0.85764806  1
  N  N51  1  0.76310677  0.45016318  0.60859473  1
  N  N52  1  0.55891323  0.53580599  0.34137501  1
  N  N53  1  0.45553730  0.39575301  0.12693174  1
  N  N54  1  0.22435102  0.53451094  0.82575005  1
  N  N55  1  0.10690973  0.42576279  0.59951138  1
  N  N56  1  0.88489076  0.54233962  0.35906596  1
  N  N57  1  0.80381081  0.41372114  0.10826394  1
  N  N58  1  0.56212045  0.51795151  0.83913223  1
  N  N59  1  0.44736195  0.42433743  0.59118166  1
  N  N60  1  0.21271495  0.88065092  0.35160399  1
  N  N61  1  0.09843666  0.78846531  0.11142364  1
  N  N62  1  0.89282999  0.86807010  0.85172352  1
  N  N63  1  0.75588689  0.74892537  0.62090993  1
  N  N64  1  0.56138304  0.87665156  0.35016947  1
  N  N65  1  0.42604372  0.79860831  0.11757250  1
  N  N66  1  0.19886361  0.88216753  0.87017874  1
  N  N67  1  0.14390097  0.75090465  0.61037415  1
  N  N68  1  0.88379446  0.87533429  0.33224705  1
  N  N69  1  0.78077930  0.75597058  0.10075883  1
  N  N70  1  0.56704393  0.88976215  0.86980694  1
  N  N71  1  0.44928985  0.75795003  0.55968014  1
