# generated using pymatgen
data_Gd5Al31N36
_symmetry_space_group_name_H-M   'P 1'
_cell_length_a   9.72834599
_cell_length_b   9.73770456
_cell_length_c   10.31697766
_cell_angle_alpha   89.67831137
_cell_angle_beta   90.06181553
_cell_angle_gamma   59.77652527
_symmetry_Int_Tables_number   1
_chemical_formula_structural   Gd5Al31N36
_chemical_formula_sum   'Gd5 Al31 N36'
_cell_volume   844.47160777
_cell_formula_units_Z   1
loop_
 _symmetry_equiv_pos_site_id
 _symmetry_equiv_pos_as_xyz
  1  'x, y, z'
loop_
 _atom_site_type_symbol
 _atom_site_label
 _atom_site_symmetry_multiplicity
 _atom_site_fract_x
 _atom_site_fract_y
 _atom_site_fract_z
 _atom_site_occupancy
  Al  Al0  1  0.11808503  0.09668081  0.38828471  1
  Al  Al1  1  0.22252328  0.20189412  0.14664857  1
  Al  Al2  1  0.77593724  0.09573446  0.91530764  1
  Al  Al3  1  0.44323181  0.09852137  0.39561543  1
  Al  Al4  1  0.55736034  0.19755057  0.14643049  1
  Al  Al5  1  0.10099449  0.11040148  0.91042926  1
  Al  Al6  1  0.22946727  0.20292670  0.64766894  1
  Al  Al7  1  0.77120204  0.09798531  0.38728609  1
  Al  Al8  1  0.89206383  0.20432345  0.15025477  1
  Al  Al9  1  0.44950620  0.09751892  0.89606251  1
  Al  Al10  1  0.54946472  0.20509929  0.64709329  1
  Al  Al11  1  0.11081057  0.42578731  0.40744135  1
  Al  Al12  1  0.78160842  0.42414257  0.90192016  1
  Al  Al13  1  0.88271537  0.54175461  0.64752974  1
  Al  Al14  1  0.44422621  0.42385975  0.41375569  1
  Al  Al15  1  0.10637810  0.42531529  0.89081256  1
  Al  Al16  1  0.22480979  0.53727757  0.65033170  1
  Al  Al17  1  0.78213807  0.42881744  0.40125308  1
  Al  Al18  1  0.89133076  0.53207649  0.14680783  1
  Al  Al19  1  0.45238801  0.41374646  0.88504625  1
  Al  Al20  1  0.56022089  0.53154817  0.63960233  1
  Al  Al21  1  0.11505990  0.75569656  0.39919912  1
  Al  Al22  1  0.21349578  0.88426149  0.08726108  1
  Al  Al23  1  0.77728540  0.76392483  0.90756562  1
  Al  Al24  1  0.45436194  0.75974412  0.40414880  1
  Al  Al25  1  0.55052491  0.87957970  0.15007515  1
  Al  Al26  1  0.09857408  0.76592850  0.90784058  1
  Al  Al27  1  0.23098732  0.87050063  0.57744671  1
  Al  Al28  1  0.77774131  0.75633017  0.39033248  1
  Al  Al29  1  0.88538642  0.87429263  0.15224569  1
  Al  Al30  1  0.55845175  0.87841005  0.63883500  1
  Gd  Gd31  1  0.89345977  0.20121608  0.64964969  1
  Gd  Gd32  1  0.22244989  0.52577959  0.14665218  1
  Gd  Gd33  1  0.55247984  0.54039311  0.15123988  1
  Gd  Gd34  1  0.88243771  0.86863831  0.65058254  1
  Gd  Gd35  1  0.44070458  0.76756039  0.86254685  1
  N  N36  1  0.22425693  0.21100818  0.33462304  1
  N  N37  1  0.10792348  0.10268123  0.09978921  1
  N  N38  1  0.88590474  0.20600131  0.86748783  1
  N  N39  1  0.74750280  0.10877872  0.56735262  1
  N  N40  1  0.54829028  0.21197974  0.33335453  1
  N  N41  1  0.44450613  0.09476568  0.08671170  1
  N  N42  1  0.22413867  0.20229412  0.83674993  1
  N  N43  1  0.13994430  0.08994598  0.57502075  1
  N  N44  1  0.89007002  0.20686198  0.34157695  1
  N  N45  1  0.77698841  0.09405931  0.10280559  1
  N  N46  1  0.56216393  0.19787892  0.83381727  1
  N  N47  1  0.44303151  0.09832508  0.58325791  1
  N  N48  1  0.22423538  0.53344349  0.36505022  1
  N  N49  1  0.09629240  0.40950134  0.07374658  1
  N  N50  1  0.88282593  0.54441549  0.83670345  1
  N  N51  1  0.77219847  0.44662610  0.58273981  1
  N  N52  1  0.55499206  0.53741579  0.37056818  1
  N  N53  1  0.46239839  0.39523946  0.06538883  1
  N  N54  1  0.21811536  0.54163421  0.84319310  1
  N  N55  1  0.10822903  0.42816349  0.59632272  1
  N  N56  1  0.89391077  0.53477973  0.33522070  1
  N  N57  1  0.79791895  0.41748802  0.08649421  1
  N  N58  1  0.57465788  0.50475759  0.82782649  1
  N  N59  1  0.44322337  0.42393255  0.59863313  1
  N  N60  1  0.22909975  0.86830147  0.37905272  1
  N  N61  1  0.09771903  0.77974185  0.09582406  1
  N  N62  1  0.88306613  0.87559933  0.86943392  1
  N  N63  1  0.76430231  0.74598260  0.57203371  1
  N  N64  1  0.55450114  0.87527309  0.33882820  1
  N  N65  1  0.43292418  0.79083150  0.08770253  1
  N  N66  1  0.18380754  0.89549603  0.88366926  1
  N  N67  1  0.13424369  0.74799585  0.58684413  1
  N  N68  1  0.89017988  0.86923219  0.34271938  1
  N  N69  1  0.77529098  0.75838055  0.09657278  1
  N  N70  1  0.57727439  0.89158940  0.82344712  1
  N  N71  1  0.45174302  0.76039018  0.60342276  1
