# generated using pymatgen
data_Gd5Al31N36
_symmetry_space_group_name_H-M   'P 1'
_cell_length_a   9.68599795
_cell_length_b   9.68479283
_cell_length_c   10.29641302
_cell_angle_alpha   89.89987428
_cell_angle_beta   90.00732104
_cell_angle_gamma   59.89539113
_symmetry_Int_Tables_number   1
_chemical_formula_structural   Gd5Al31N36
_chemical_formula_sum   'Gd5 Al31 N36'
_cell_volume   835.58681687
_cell_formula_units_Z   1
loop_
 _symmetry_equiv_pos_site_id
 _symmetry_equiv_pos_as_xyz
  1  'x, y, z'
loop_
 _atom_site_type_symbol
 _atom_site_label
 _atom_site_symmetry_multiplicity
 _atom_site_fract_x
 _atom_site_fract_y
 _atom_site_fract_z
 _atom_site_occupancy
  Al  Al0  1  0.11054657  0.09674199  0.29302893  1
  Al  Al1  1  0.22192775  0.20286930  0.05542040  1
  Al  Al2  1  0.77114686  0.09827270  0.81415105  1
  Al  Al3  1  0.44435921  0.09686823  0.30193562  1
  Al  Al4  1  0.55491143  0.19923479  0.05206850  1
  Al  Al5  1  0.11480411  0.09346132  0.81210425  1
  Al  Al6  1  0.23185051  0.19831717  0.55488756  1
  Al  Al7  1  0.77452248  0.09562844  0.28754103  1
  Al  Al8  1  0.89430118  0.20305018  0.05072085  1
  Al  Al9  1  0.44696525  0.09965350  0.80559688  1
  Al  Al10  1  0.55099637  0.20406099  0.55238970  1
  Al  Al11  1  0.10736257  0.42476552  0.31049227  1
  Al  Al12  1  0.77821988  0.42783168  0.80051218  1
  Al  Al13  1  0.88021876  0.54200164  0.55367719  1
  Al  Al14  1  0.44595274  0.41922359  0.31220856  1
  Al  Al15  1  0.11014365  0.42527087  0.79411327  1
  Al  Al16  1  0.22655542  0.53635936  0.55349625  1
  Al  Al17  1  0.78474124  0.42456181  0.29739413  1
  Al  Al18  1  0.89304125  0.53195957  0.05274913  1
  Al  Al19  1  0.44790151  0.42087703  0.78673847  1
  Al  Al20  1  0.55661044  0.53756301  0.53790857  1
  Al  Al21  1  0.10654634  0.76860714  0.29909231  1
  Al  Al22  1  0.21330347  0.88621602  0.05913446  1
  Al  Al23  1  0.77753392  0.76039750  0.81229637  1
  Al  Al24  1  0.44024614  0.77148156  0.31162216  1
  Al  Al25  1  0.55313468  0.88319635  0.05941592  1
  Al  Al26  1  0.11382601  0.76193087  0.80095845  1
  Al  Al27  1  0.23089214  0.86890506  0.54149649  1
  Al  Al28  1  0.77847100  0.75990633  0.29340429  1
  Al  Al29  1  0.88744360  0.87537358  0.05130731  1
  Al  Al30  1  0.55541789  0.87315171  0.54185272  1
  Gd  Gd31  1  0.89847385  0.20055373  0.55720270  1
  Gd  Gd32  1  0.21722575  0.53583011  0.05202867  1
  Gd  Gd33  1  0.55331447  0.54178776  0.06312228  1
  Gd  Gd34  1  0.88659096  0.86561860  0.55713353  1
  Gd  Gd35  1  0.44121829  0.77207753  0.78560980  1
  N  N36  1  0.22284478  0.20163005  0.36595529  1
  N  N37  1  0.10958640  0.09987630  0.10825872  1
  N  N38  1  0.89083075  0.20692607  0.85720170  1
  N  N39  1  0.74958029  0.10807898  0.63279854  1
  N  N40  1  0.56041356  0.19810297  0.36584421  1
  N  N41  1  0.44182409  0.09901234  0.11539856  1
  N  N42  1  0.22415388  0.20797980  0.86497040  1
  N  N43  1  0.15371999  0.06903736  0.62826897  1
  N  N44  1  0.88818043  0.20234442  0.33829579  1
  N  N45  1  0.77538053  0.09575829  0.09871619  1
  N  N46  1  0.54890454  0.21186585  0.86519061  1
  N  N47  1  0.44766612  0.09116186  0.61363624  1
  N  N48  1  0.21721541  0.54243985  0.36068326  1
  N  N49  1  0.09862433  0.41124628  0.12616978  1
  N  N50  1  0.89200823  0.53576070  0.86384407  1
  N  N51  1  0.76310922  0.45014861  0.61479136  1
  N  N52  1  0.55890122  0.53579267  0.34757686  1
  N  N53  1  0.45551611  0.39571116  0.13313640  1
  N  N54  1  0.22436025  0.53448596  0.83200159  1
  N  N55  1  0.10692785  0.42574611  0.60571385  1
  N  N56  1  0.88489750  0.54231170  0.36526142  1
  N  N57  1  0.80382198  0.41368604  0.11447935  1
  N  N58  1  0.56214793  0.51787932  0.84535028  1
  N  N59  1  0.44736244  0.42431045  0.59739376  1
  N  N60  1  0.21273785  0.88061963  0.35780815  1
  N  N61  1  0.09838569  0.78849675  0.11763862  1
  N  N62  1  0.89281998  0.86804804  0.85791511  1
  N  N63  1  0.75590198  0.74889224  0.62709423  1
  N  N64  1  0.56136082  0.87660746  0.35636323  1
  N  N65  1  0.42603516  0.79855566  0.12370893  1
  N  N66  1  0.19882065  0.88217431  0.87637018  1
  N  N67  1  0.14392635  0.75086431  0.61658625  1
  N  N68  1  0.88377583  0.87532080  0.33848502  1
  N  N69  1  0.78077697  0.75594467  0.10696216  1
  N  N70  1  0.56705560  0.88972218  0.87598995  1
  N  N71  1  0.44929366  0.75791956  0.56595850  1
