# generated using pymatgen
data_Gd5Al31N36
_symmetry_space_group_name_H-M   'P 1'
_cell_length_a   9.73538042
_cell_length_b   9.74591301
_cell_length_c   10.32306561
_cell_angle_alpha   89.57825283
_cell_angle_beta   90.20276637
_cell_angle_gamma   59.76459676
_symmetry_Int_Tables_number   1
_chemical_formula_structural   Gd5Al31N36
_chemical_formula_sum   'Gd5 Al31 N36'
_cell_volume   846.16033145
_cell_formula_units_Z   1
loop_
 _symmetry_equiv_pos_site_id
 _symmetry_equiv_pos_as_xyz
  1  'x, y, z'
loop_
 _atom_site_type_symbol
 _atom_site_label
 _atom_site_symmetry_multiplicity
 _atom_site_fract_x
 _atom_site_fract_y
 _atom_site_fract_z
 _atom_site_occupancy
  Al  Al0  1  0.11502927  0.10133054  0.38916146  1
  Al  Al1  1  0.22275563  0.20216317  0.14755739  1
  Al  Al2  1  0.77717234  0.09531950  0.91468881  1
  Al  Al3  1  0.44234608  0.10048850  0.39774431  1
  Al  Al4  1  0.55661569  0.19465946  0.14676885  1
  Al  Al5  1  0.10357486  0.10833236  0.91319274  1
  Al  Al6  1  0.22999279  0.20204598  0.64829285  1
  Al  Al7  1  0.76920526  0.09985087  0.38819557  1
  Al  Al8  1  0.89465090  0.20234750  0.15236681  1
  Al  Al9  1  0.45044691  0.09770245  0.89582724  1
  Al  Al10  1  0.55004703  0.20531419  0.64703516  1
  Al  Al11  1  0.10902009  0.42730021  0.40912772  1
  Al  Al12  1  0.78730312  0.42010165  0.90105498  1
  Al  Al13  1  0.88135232  0.54258274  0.64782977  1
  Al  Al14  1  0.44293548  0.42788636  0.41433649  1
  Al  Al15  1  0.10771039  0.42520267  0.89106068  1
  Al  Al16  1  0.22463213  0.53937647  0.64922061  1
  Al  Al17  1  0.77594859  0.43491419  0.40173490  1
  Al  Al18  1  0.89253083  0.53156926  0.14765001  1
  Al  Al19  1  0.45118626  0.41185855  0.88431734  1
  Al  Al20  1  0.55790477  0.53571921  0.64542528  1
  Al  Al21  1  0.11135347  0.75760117  0.39994610  1
  Al  Al22  1  0.21131436  0.88339783  0.09328428  1
  Al  Al23  1  0.78001787  0.76357810  0.90754455  1
  Al  Al24  1  0.44015823  0.76883949  0.34341039  1
  Al  Al25  1  0.55524349  0.88075580  0.14995978  1
  Al  Al26  1  0.10068912  0.76475788  0.91118624  1
  Al  Al27  1  0.24244554  0.86522874  0.57132016  1
  Al  Al28  1  0.77450014  0.75827996  0.39294331  1
  Al  Al29  1  0.88462359  0.87432874  0.15404513  1
  Al  Al30  1  0.55640969  0.87627807  0.64174002  1
  Gd  Gd31  1  0.89550634  0.20090937  0.64702791  1
  Gd  Gd32  1  0.22272157  0.52455843  0.15036298  1
  Gd  Gd33  1  0.56085543  0.52295199  0.14269273  1
  Gd  Gd34  1  0.88402520  0.86852708  0.65048674  1
  Gd  Gd35  1  0.44439690  0.76541877  0.86556155  1
  N  N36  1  0.22345105  0.21320421  0.33529187  1
  N  N37  1  0.10884621  0.10220263  0.10310296  1
  N  N38  1  0.89008006  0.20215647  0.86520998  1
  N  N39  1  0.74768945  0.10914709  0.56793692  1
  N  N40  1  0.54640351  0.21473526  0.33367319  1
  N  N41  1  0.44421663  0.09247735  0.08561570  1
  N  N42  1  0.22474366  0.20170644  0.83773478  1
  N  N43  1  0.14266761  0.08770433  0.57403604  1
  N  N44  1  0.88678925  0.21049561  0.34303102  1
  N  N45  1  0.77664497  0.09466886  0.10311368  1
  N  N46  1  0.56345240  0.19690604  0.83304261  1
  N  N47  1  0.44355130  0.09801489  0.58496260  1
  N  N48  1  0.22207605  0.53516137  0.36812577  1
  N  N49  1  0.09728820  0.40980041  0.07430724  1
  N  N50  1  0.88400370  0.54390297  0.83679780  1
  N  N51  1  0.76816810  0.44907106  0.58345233  1
  N  N52  1  0.55034420  0.54205031  0.36211653  1
  N  N53  1  0.45715603  0.38943891  0.06325701  1
  N  N54  1  0.21807648  0.54244953  0.84227338  1
  N  N55  1  0.10733756  0.42847147  0.59730395  1
  N  N56  1  0.89154482  0.53704817  0.33618423  1
  N  N57  1  0.80561510  0.41266251  0.08478255  1
  N  N58  1  0.57678919  0.50199770  0.83627226  1
  N  N59  1  0.44428448  0.42543721  0.59956989  1
  N  N60  1  0.22309220  0.87301460  0.37568898  1
  N  N61  1  0.09605526  0.77812095  0.09983097  1
  N  N62  1  0.88605564  0.87523068  0.86953200  1
  N  N63  1  0.76278338  0.74747959  0.57411139  1
  N  N64  1  0.55446278  0.88131642  0.33733272  1
  N  N65  1  0.43061879  0.78555834  0.12345058  1
  N  N66  1  0.19071091  0.89155582  0.89818594  1
  N  N67  1  0.13528615  0.75062608  0.58566467  1
  N  N68  1  0.88702988  0.87123908  0.34403000  1
  N  N69  1  0.77615716  0.75754751  0.09603716  1
  N  N70  1  0.57879523  0.89134589  0.82842495  1
  N  N71  1  0.44818895  0.76087650  0.63119246  1
