# generated using pymatgen
data_Gd5Al31N36
_symmetry_space_group_name_H-M   'P 1'
_cell_length_a   9.69990440
_cell_length_b   9.71283991
_cell_length_c   10.58962785
_cell_angle_alpha   89.46161328
_cell_angle_beta   88.99193944
_cell_angle_gamma   60.10967937
_symmetry_Int_Tables_number   1
_chemical_formula_structural   Gd5Al31N36
_chemical_formula_sum   'Gd5 Al31 N36'
_cell_volume   864.84166035
_cell_formula_units_Z   1
loop_
 _symmetry_equiv_pos_site_id
 _symmetry_equiv_pos_as_xyz
  1  'x, y, z'
loop_
 _atom_site_type_symbol
 _atom_site_label
 _atom_site_symmetry_multiplicity
 _atom_site_fract_x
 _atom_site_fract_y
 _atom_site_fract_z
 _atom_site_occupancy
  Al  Al0  1  0.10694046  0.09618195  0.33371362  1
  Al  Al1  1  0.21777690  0.21350517  0.15353648  1
  Al  Al2  1  0.79600849  0.08206811  0.91989172  1
  Al  Al3  1  0.44219146  0.09876383  0.32892230  1
  Al  Al4  1  0.55296560  0.19994221  0.08432585  1
  Al  Al5  1  0.12231228  0.08121582  0.84221419  1
  Al  Al6  1  0.23138002  0.20123587  0.65895786  1
  Al  Al7  1  0.76446799  0.10141200  0.39469991  1
  Al  Al8  1  0.88772176  0.20311575  0.15521234  1
  Al  Al9  1  0.46386536  0.08852887  0.83583838  1
  Al  Al10  1  0.53628343  0.21180856  0.57311543  1
  Al  Al11  1  0.11084071  0.43079566  0.40803084  1
  Al  Al12  1  0.79921450  0.40979185  0.91442521  1
  Al  Al13  1  0.87868593  0.54050758  0.64834293  1
  Al  Al14  1  0.42965990  0.42635899  0.33480504  1
  Al  Al15  1  0.11000741  0.41394141  0.89582860  1
  Al  Al16  1  0.22806157  0.52925606  0.65134978  1
  Al  Al17  1  0.77861384  0.43276919  0.39243726  1
  Al  Al18  1  0.90088092  0.53108620  0.15570865  1
  Al  Al19  1  0.46939232  0.40640489  0.82911204  1
  Al  Al20  1  0.54133019  0.54592176  0.56042107  1
  Al  Al21  1  0.10634191  0.76887435  0.33734634  1
  Al  Al22  1  0.20868656  0.89440719  0.09273212  1
  Al  Al23  1  0.79435715  0.75339062  0.91905080  1
  Al  Al24  1  0.42780726  0.78108031  0.33618354  1
  Al  Al25  1  0.54846414  0.88581439  0.09022717  1
  Al  Al26  1  0.11936535  0.76219359  0.83610773  1
  Al  Al27  1  0.22844341  0.86808941  0.57768538  1
  Al  Al28  1  0.77510940  0.75482008  0.39445452  1
  Al  Al29  1  0.87599335  0.88251761  0.16413147  1
  Al  Al30  1  0.54298328  0.87617481  0.56586798  1
  Gd  Gd31  1  0.87928212  0.21580577  0.64573805  1
  Gd  Gd32  1  0.22046218  0.55426669  0.08615353  1
  Gd  Gd33  1  0.56052110  0.54175027  0.11728719  1
  Gd  Gd34  1  0.87650507  0.86966817  0.64443647  1
  Gd  Gd35  1  0.45709105  0.75360191  0.82538636  1
  N  N36  1  0.21323822  0.21761290  0.34423799  1
  N  N37  1  0.10946319  0.09969439  0.14985646  1
  N  N38  1  0.89781835  0.19587413  0.86311724  1
  N  N39  1  0.75442777  0.10642382  0.57144588  1
  N  N40  1  0.53303754  0.21458429  0.39341347  1
  N  N41  1  0.44782608  0.09572867  0.14631836  1
  N  N42  1  0.23143987  0.20131952  0.84471398  1
  N  N43  1  0.14634521  0.06622395  0.65518164  1
  N  N44  1  0.87473519  0.21269655  0.34322181  1
  N  N45  1  0.77962176  0.09301408  0.10106290  1
  N  N46  1  0.56263388  0.19922234  0.89759247  1
  N  N47  1  0.45965933  0.08283999  0.64752278  1
  N  N48  1  0.21027247  0.54942307  0.36792351  1
  N  N49  1  0.10325657  0.41327056  0.07748494  1
  N  N50  1  0.88745863  0.53681394  0.83807501  1
  N  N51  1  0.76347757  0.45557286  0.57092984  1
  N  N52  1  0.54169622  0.54664281  0.37218688  1
  N  N53  1  0.45553440  0.39441162  0.15960145  1
  N  N54  1  0.22859986  0.52736648  0.85400889  1
  N  N55  1  0.11065688  0.42254675  0.59831699  1
  N  N56  1  0.89210925  0.53743142  0.33680012  1
  N  N57  1  0.81732389  0.40819650  0.09386333  1
  N  N58  1  0.57460019  0.50567171  0.89647650  1
  N  N59  1  0.45510004  0.41972815  0.64291846  1
  N  N60  1  0.20823759  0.88363482  0.39841231  1
  N  N61  1  0.09603507  0.80040412  0.16015703  1
  N  N62  1  0.89591128  0.86627552  0.86385371  1
  N  N63  1  0.76511388  0.74113627  0.57528681  1
  N  N64  1  0.54288394  0.88414595  0.38559584  1
  N  N65  1  0.42094574  0.80368698  0.15437599  1
  N  N66  1  0.20728155  0.87545754  0.91276422  1
  N  N67  1  0.14517373  0.74886351  0.65515900  1
  N  N68  1  0.87078208  0.87991850  0.34979618  1
  N  N69  1  0.78822416  0.75237007  0.10295436  1
  N  N70  1  0.57005716  0.88389547  0.90833696  1
  N  N71  1  0.44610028  0.75722444  0.61108718  1
