# generated using pymatgen
data_Gd5Al31N36
_symmetry_space_group_name_H-M   'P 1'
_cell_length_a   9.70108218
_cell_length_b   9.70920152
_cell_length_c   10.36044476
_cell_angle_alpha   90.06690145
_cell_angle_beta   89.94798965
_cell_angle_gamma   60.10997486
_symmetry_Int_Tables_number   1
_chemical_formula_structural   Gd5Al31N36
_chemical_formula_sum   'Gd5 Al31 N36'
_cell_volume   846.04215653
_cell_formula_units_Z   1
loop_
 _symmetry_equiv_pos_site_id
 _symmetry_equiv_pos_as_xyz
  1  'x, y, z'
loop_
 _atom_site_type_symbol
 _atom_site_label
 _atom_site_symmetry_multiplicity
 _atom_site_fract_x
 _atom_site_fract_y
 _atom_site_fract_z
 _atom_site_occupancy
  Al  Al0  1  0.10727806  0.10006167  0.30232759  1
  Al  Al1  1  0.22440950  0.20020501  0.06256876  1
  Al  Al2  1  0.77279439  0.09436462  0.82071823  1
  Al  Al3  1  0.44202773  0.09922901  0.30934659  1
  Al  Al4  1  0.55493432  0.19819227  0.05942335  1
  Al  Al5  1  0.12110877  0.08715833  0.81857367  1
  Al  Al6  1  0.23082034  0.19942257  0.56214374  1
  Al  Al7  1  0.77229012  0.10005160  0.29689802  1
  Al  Al8  1  0.90092345  0.19138010  0.06007337  1
  Al  Al9  1  0.44876109  0.09728075  0.81223158  1
  Al  Al10  1  0.54954000  0.20501999  0.56027474  1
  Al  Al11  1  0.11207915  0.42317364  0.31968173  1
  Al  Al12  1  0.79401842  0.41774319  0.88089858  1
  Al  Al13  1  0.87517812  0.53892819  0.63344416  1
  Al  Al14  1  0.43993183  0.42003012  0.31779783  1
  Al  Al15  1  0.12201668  0.41778833  0.80072297  1
  Al  Al16  1  0.22597377  0.53663731  0.56263324  1
  Al  Al17  1  0.77677357  0.43624024  0.36494868  1
  Al  Al18  1  0.89233257  0.53086793  0.13149193  1
  Al  Al19  1  0.45504626  0.41797165  0.79665814  1
  Al  Al20  1  0.54428914  0.54447533  0.53890626  1
  Al  Al21  1  0.10416272  0.77138271  0.30752490  1
  Al  Al22  1  0.21524639  0.88491038  0.06642611  1
  Al  Al23  1  0.77600051  0.76441947  0.82365753  1
  Al  Al24  1  0.43365940  0.77841274  0.31797020  1
  Al  Al25  1  0.55233998  0.88435518  0.06649412  1
  Al  Al26  1  0.11693296  0.75982713  0.80837443  1
  Al  Al27  1  0.22830993  0.87100446  0.55146294  1
  Al  Al28  1  0.77068864  0.77266690  0.29962572  1
  Al  Al29  1  0.88773212  0.87594384  0.05937036  1
  Al  Al30  1  0.55075415  0.87583537  0.55013332  1
  Gd  Gd31  1  0.89681460  0.19909472  0.57235253  1
  Gd  Gd32  1  0.21541271  0.53733814  0.05750487  1
  Gd  Gd33  1  0.55355955  0.54090357  0.08608787  1
  Gd  Gd34  1  0.88516164  0.86198113  0.56501794  1
  Gd  Gd35  1  0.45167662  0.76067649  0.79544889  1
  N  N36  1  0.22171859  0.20277110  0.37468311  1
  N  N37  1  0.11211021  0.09721229  0.11828893  1
  N  N38  1  0.89965967  0.19178793  0.86354884  1
  N  N39  1  0.74728467  0.10450392  0.64036766  1
  N  N40  1  0.55735295  0.20141038  0.37395263  1
  N  N41  1  0.44295167  0.09766081  0.12376333  1
  N  N42  1  0.22735364  0.20446855  0.87327356  1
  N  N43  1  0.15311100  0.07097628  0.63556442  1
  N  N44  1  0.88469319  0.20841286  0.34617753  1
  N  N45  1  0.77482919  0.09537743  0.10880433  1
  N  N46  1  0.55163920  0.20859708  0.87296911  1
  N  N47  1  0.44528751  0.09343927  0.62120281  1
  N  N48  1  0.21467339  0.54511616  0.37064474  1
  N  N49  1  0.11099698  0.40354405  0.13512223  1
  N  N50  1  0.89434619  0.53061199  0.82328277  1
  N  N51  1  0.76305357  0.45555114  0.55534074  1
  N  N52  1  0.54538803  0.54404520  0.34747477  1
  N  N53  1  0.45116150  0.39374001  0.13993472  1
  N  N54  1  0.22974605  0.53215526  0.83933603  1
  N  N55  1  0.11077358  0.42425115  0.61249494  1
  N  N56  1  0.88161117  0.54688692  0.32027700  1
  N  N57  1  0.81077798  0.41113342  0.06739304  1
  N  N58  1  0.57154835  0.51040487  0.86031003  1
  N  N59  1  0.44745520  0.42564018  0.60648630  1
  N  N60  1  0.20884421  0.88446862  0.36775114  1
  N  N61  1  0.09802802  0.78943402  0.12657534  1
  N  N62  1  0.89606038  0.86563291  0.86747823  1
  N  N63  1  0.74461735  0.75903295  0.63927839  1
  N  N64  1  0.55688897  0.88044318  0.36551162  1
  N  N65  1  0.42529440  0.80121868  0.13185490  1
  N  N66  1  0.20645440  0.87651097  0.88359125  1
  N  N67  1  0.14174035  0.75137892  0.62492125  1
  N  N68  1  0.88115275  0.88017281  0.34788247  1
  N  N69  1  0.77792172  0.76266030  0.11265399  1
  N  N70  1  0.56617730  0.88968913  0.88490383  1
  N  N71  1  0.44521877  0.75994149  0.57582857  1
