# generated using pymatgen
data_Gd5Al31N36
_symmetry_space_group_name_H-M   'P 1'
_cell_length_a   9.69895931
_cell_length_b   9.71355449
_cell_length_c   10.34574372
_cell_angle_alpha   89.97952622
_cell_angle_beta   89.87515757
_cell_angle_gamma   60.04296475
_symmetry_Int_Tables_number   1
_chemical_formula_structural   Gd5Al31N36
_chemical_formula_sum   'Gd5 Al31 N36'
_cell_volume   844.46633675
_cell_formula_units_Z   1
loop_
 _symmetry_equiv_pos_site_id
 _symmetry_equiv_pos_as_xyz
  1  'x, y, z'
loop_
 _atom_site_type_symbol
 _atom_site_label
 _atom_site_symmetry_multiplicity
 _atom_site_fract_x
 _atom_site_fract_y
 _atom_site_fract_z
 _atom_site_occupancy
  Al  Al0  1  0.10916697  0.09804189  0.30105062  1
  Al  Al1  1  0.22445862  0.20033654  0.06235282  1
  Al  Al2  1  0.77302310  0.09518638  0.82105158  1
  Al  Al3  1  0.44204408  0.09926841  0.30960355  1
  Al  Al4  1  0.55489260  0.19889345  0.05980549  1
  Al  Al5  1  0.11955988  0.08891783  0.81911550  1
  Al  Al6  1  0.23102060  0.19917108  0.56267720  1
  Al  Al7  1  0.77230608  0.09760281  0.29598875  1
  Al  Al8  1  0.89621351  0.19897389  0.05965723  1
  Al  Al9  1  0.44892203  0.09715804  0.81261539  1
  Al  Al10  1  0.55050681  0.20493326  0.56051192  1
  Al  Al11  1  0.11057425  0.42395892  0.32090858  1
  Al  Al12  1  0.78211180  0.41831668  0.82214528  1
  Al  Al13  1  0.87981732  0.54170739  0.63276435  1
  Al  Al14  1  0.44199800  0.42014839  0.31873557  1
  Al  Al15  1  0.12144564  0.41848843  0.80320487  1
  Al  Al16  1  0.22726261  0.53677607  0.56208895  1
  Al  Al17  1  0.77879608  0.42368230  0.30677306  1
  Al  Al18  1  0.89292981  0.53488051  0.12804411  1
  Al  Al19  1  0.45257480  0.41762092  0.79525392  1
  Al  Al20  1  0.55425628  0.53936232  0.54136817  1
  Al  Al21  1  0.10467262  0.77086741  0.30740165  1
  Al  Al22  1  0.21473936  0.88583769  0.06650175  1
  Al  Al23  1  0.77659339  0.76447847  0.82506812  1
  Al  Al24  1  0.43654175  0.77551045  0.31963640  1
  Al  Al25  1  0.55183207  0.88454468  0.06725004  1
  Al  Al26  1  0.11701617  0.76009226  0.80850416  1
  Al  Al27  1  0.22902389  0.87048672  0.55079478  1
  Al  Al28  1  0.77173159  0.77058488  0.30183528  1
  Al  Al29  1  0.88788848  0.87699825  0.05949024  1
  Al  Al30  1  0.55155603  0.87620948  0.54949301  1
  Gd  Gd31  1  0.89708158  0.20154420  0.56437821  1
  Gd  Gd32  1  0.21597197  0.53756755  0.05838803  1
  Gd  Gd33  1  0.55076538  0.54316595  0.07559213  1
  Gd  Gd34  1  0.88626019  0.86371714  0.56507002  1
  Gd  Gd35  1  0.45046728  0.76264083  0.79263456  1
  N  N36  1  0.22136864  0.20256904  0.37487481  1
  N  N37  1  0.11074860  0.09869518  0.11665359  1
  N  N38  1  0.89627496  0.19848901  0.86732979  1
  N  N39  1  0.74965012  0.10623631  0.64024964  1
  N  N40  1  0.55786899  0.20067234  0.37392172  1
  N  N41  1  0.44259296  0.09835775  0.12379921  1
  N  N42  1  0.22772765  0.20432224  0.87315299  1
  N  N43  1  0.15183990  0.07109173  0.63577785  1
  N  N44  1  0.88620571  0.20381090  0.34564794  1
  N  N45  1  0.77464104  0.09570933  0.10807070  1
  N  N46  1  0.55138225  0.20875521  0.87287889  1
  N  N47  1  0.44586346  0.09313899  0.62144676  1
  N  N48  1  0.21557264  0.54474147  0.37022143  1
  N  N49  1  0.11020483  0.40418788  0.13459005  1
  N  N50  1  0.89537809  0.53285858  0.83112869  1
  N  N51  1  0.75711339  0.44894523  0.61804277  1
  N  N52  1  0.55319900  0.53890281  0.35210033  1
  N  N53  1  0.45250923  0.39525327  0.14036738  1
  N  N54  1  0.22932341  0.53260727  0.84005192  1
  N  N55  1  0.11164017  0.42440016  0.61356000  1
  N  N56  1  0.88190778  0.54623464  0.32762198  1
  N  N57  1  0.80174777  0.40946563  0.11750428  1
  N  N58  1  0.56643235  0.51199774  0.85956646  1
  N  N59  1  0.44781671  0.42511966  0.60585981  1
  N  N60  1  0.20975679  0.88334123  0.36721500  1
  N  N61  1  0.09815158  0.78966946  0.12635694  1
  N  N62  1  0.89592935  0.86696418  0.86746493  1
  N  N63  1  0.74590152  0.76032072  0.63896971  1
  N  N64  1  0.55717786  0.88086849  0.36521601  1
  N  N65  1  0.42532570  0.80065367  0.13308753  1
  N  N66  1  0.20610499  0.87745462  0.88323608  1
  N  N67  1  0.14294750  0.75090917  0.62508686  1
  N  N68  1  0.88172307  0.87914142  0.34777927  1
  N  N69  1  0.77796070  0.76342692  0.11342551  1
  N  N70  1  0.56582504  0.88931778  0.88513192  1
  N  N71  1  0.44706495  0.75895482  0.57299545  1
