# generated using pymatgen
data_Gd5Al31N36
_symmetry_space_group_name_H-M   'P 1'
_cell_length_a   9.73263468
_cell_length_b   9.70997236
_cell_length_c   10.42178785
_cell_angle_alpha   89.79200589
_cell_angle_beta   89.46412784
_cell_angle_gamma   60.25128894
_symmetry_Int_Tables_number   1
_chemical_formula_structural   Gd5Al31N36
_chemical_formula_sum   'Gd5 Al31 N36'
_cell_volume   855.05908792
_cell_formula_units_Z   1
loop_
 _symmetry_equiv_pos_site_id
 _symmetry_equiv_pos_as_xyz
  1  'x, y, z'
loop_
 _atom_site_type_symbol
 _atom_site_label
 _atom_site_symmetry_multiplicity
 _atom_site_fract_x
 _atom_site_fract_y
 _atom_site_fract_z
 _atom_site_occupancy
  Al  Al0  1  0.11589916  0.09530432  0.30938086  1
  Al  Al1  1  0.22084863  0.20266927  0.06046179  1
  Al  Al2  1  0.78905525  0.08765452  0.87690684  1
  Al  Al3  1  0.43568065  0.10041457  0.30216734  1
  Al  Al4  1  0.55211403  0.20085505  0.06019725  1
  Al  Al5  1  0.12313556  0.08626284  0.81556968  1
  Al  Al6  1  0.23322300  0.19847122  0.56132277  1
  Al  Al7  1  0.76329563  0.10300501  0.36359960  1
  Al  Al8  1  0.89253528  0.20222892  0.13058831  1
  Al  Al9  1  0.45239072  0.09607792  0.81048160  1
  Al  Al10  1  0.53786578  0.21224970  0.54896710  1
  Al  Al11  1  0.11105359  0.42302190  0.31729567  1
  Al  Al12  1  0.79892017  0.41057886  0.87988424  1
  Al  Al13  1  0.87165688  0.54577196  0.62411541  1
  Al  Al14  1  0.43237804  0.42483827  0.31114923  1
  Al  Al15  1  0.11808039  0.42027068  0.79677745  1
  Al  Al16  1  0.22746071  0.53415593  0.56230602  1
  Al  Al17  1  0.77451925  0.43608554  0.36900796  1
  Al  Al18  1  0.89293178  0.53294928  0.13106998  1
  Al  Al19  1  0.45761856  0.41507759  0.79764684  1
  Al  Al20  1  0.54227192  0.54499532  0.53954255  1
  Al  Al21  1  0.11001430  0.76670383  0.31777476  1
  Al  Al22  1  0.20913181  0.88834113  0.06699051  1
  Al  Al23  1  0.79306522  0.75794753  0.88669395  1
  Al  Al24  1  0.43130215  0.77798870  0.30869949  1
  Al  Al25  1  0.55038771  0.88505285  0.06353995  1
  Al  Al26  1  0.12158044  0.75752466  0.80346407  1
  Al  Al27  1  0.23603649  0.86727665  0.55358879  1
  Al  Al28  1  0.77010359  0.75696517  0.37020339  1
  Al  Al29  1  0.87893200  0.88059428  0.13997081  1
  Al  Al30  1  0.54193703  0.87990479  0.54396556  1
  Gd  Gd31  1  0.89586425  0.20878908  0.60200796  1
  Gd  Gd32  1  0.20901660  0.54686349  0.05480855  1
  Gd  Gd33  1  0.56138158  0.53581670  0.08660003  1
  Gd  Gd34  1  0.88606379  0.86696093  0.60294458  1
  Gd  Gd35  1  0.45227441  0.75815270  0.80389152  1
  N  N36  1  0.21955580  0.20487850  0.37527428  1
  N  N37  1  0.11579183  0.09637600  0.12556277  1
  N  N38  1  0.89650240  0.19761082  0.82445252  1
  N  N39  1  0.75242675  0.11005777  0.54762934  1
  N  N40  1  0.53450554  0.21194003  0.36454552  1
  N  N41  1  0.44107180  0.09768305  0.11847232  1
  N  N42  1  0.22573713  0.20572138  0.87150717  1
  N  N43  1  0.16224154  0.06581172  0.63210809  1
  N  N44  1  0.88175141  0.21248921  0.32345095  1
  N  N45  1  0.77678791  0.09557960  0.08530755  1
  N  N46  1  0.55801540  0.20448368  0.86914669  1
  N  N47  1  0.44933886  0.09251182  0.62095693  1
  N  N48  1  0.21265926  0.54398222  0.37219524  1
  N  N49  1  0.11256917  0.40541889  0.13427799  1
  N  N50  1  0.88401735  0.54223957  0.81305617  1
  N  N51  1  0.76126617  0.45609316  0.54967459  1
  N  N52  1  0.54150941  0.54541839  0.34664264  1
  N  N53  1  0.44534657  0.39989463  0.13352522  1
  N  N54  1  0.22867873  0.53144136  0.83770335  1
  N  N55  1  0.11073286  0.42200645  0.61117512  1
  N  N56  1  0.87852486  0.54461256  0.31366163  1
  N  N57  1  0.82136401  0.40438249  0.06188715  1
  N  N58  1  0.57386992  0.50635964  0.86437694  1
  N  N59  1  0.44788029  0.42407174  0.60873105  1
  N  N60  1  0.21352550  0.88135782  0.37173765  1
  N  N61  1  0.10069025  0.79070237  0.13830210  1
  N  N62  1  0.89496556  0.86866484  0.82716085  1
  N  N63  1  0.76050783  0.74525293  0.55269602  1
  N  N64  1  0.54193989  0.88542986  0.35863942  1
  N  N65  1  0.42493916  0.79782517  0.12348099  1
  N  N66  1  0.20070396  0.87889172  0.88496107  1
  N  N67  1  0.15237088  0.74474505  0.61997686  1
  N  N68  1  0.87611252  0.87562547  0.33131453  1
  N  N69  1  0.79112766  0.75247636  0.07498172  1
  N  N70  1  0.56910900  0.88879975  0.88006164  1
  N  N71  1  0.45070448  0.75646457  0.58728668  1
