# generated using pymatgen
data_Gd5Al31N36
_symmetry_space_group_name_H-M   'P 1'
_cell_length_a   9.68794818
_cell_length_b   9.69057894
_cell_length_c   10.31220391
_cell_angle_alpha   89.83122158
_cell_angle_beta   89.90176459
_cell_angle_gamma   59.97255222
_symmetry_Int_Tables_number   1
_chemical_formula_structural   Gd5Al31N36
_chemical_formula_sum   'Gd5 Al31 N36'
_cell_volume   838.18825107
_cell_formula_units_Z   1
loop_
 _symmetry_equiv_pos_site_id
 _symmetry_equiv_pos_as_xyz
  1  'x, y, z'
loop_
 _atom_site_type_symbol
 _atom_site_label
 _atom_site_symmetry_multiplicity
 _atom_site_fract_x
 _atom_site_fract_y
 _atom_site_fract_z
 _atom_site_occupancy
  Al  Al0  1  0.10989685  0.09718548  0.30137085  1
  Al  Al1  1  0.22311384  0.20180773  0.06355372  1
  Al  Al2  1  0.77186198  0.09701315  0.82167455  1
  Al  Al3  1  0.44332438  0.09801180  0.31023851  1
  Al  Al4  1  0.55527108  0.19934693  0.06005546  1
  Al  Al5  1  0.11591711  0.09188634  0.82017918  1
  Al  Al6  1  0.23188551  0.19802848  0.56340472  1
  Al  Al7  1  0.77376029  0.09637085  0.29600183  1
  Al  Al8  1  0.89488396  0.20193347  0.05882979  1
  Al  Al9  1  0.44781757  0.09835570  0.81387583  1
  Al  Al10  1  0.55110951  0.20422101  0.56054664  1
  Al  Al11  1  0.10691378  0.42536215  0.32102415  1
  Al  Al12  1  0.77816883  0.42540008  0.81151771  1
  Al  Al13  1  0.87967574  0.54293797  0.57681098  1
  Al  Al14  1  0.44521517  0.41959622  0.31997313  1
  Al  Al15  1  0.11252486  0.42331354  0.80442414  1
  Al  Al16  1  0.22717523  0.53642226  0.56193682  1
  Al  Al17  1  0.78382729  0.42480916  0.30720522  1
  Al  Al18  1  0.89403753  0.53227620  0.07192308  1
  Al  Al19  1  0.44864607  0.41964782  0.79546335  1
  Al  Al20  1  0.55540702  0.53811967  0.54556946  1
  Al  Al21  1  0.10583667  0.76935258  0.30761169  1
  Al  Al22  1  0.21375805  0.88614478  0.06726508  1
  Al  Al23  1  0.77761063  0.76078338  0.82336501  1
  Al  Al24  1  0.43915336  0.77238893  0.32024446  1
  Al  Al25  1  0.55239097  0.88391017  0.06840108  1
  Al  Al26  1  0.11470756  0.76098702  0.80936435  1
  Al  Al27  1  0.23028823  0.86913801  0.55019257  1
  Al  Al28  1  0.77715120  0.76139780  0.30345453  1
  Al  Al29  1  0.88774869  0.87627289  0.06000601  1
  Al  Al30  1  0.55357510  0.87468384  0.54993923  1
  Gd  Gd31  1  0.89827576  0.20165863  0.56517615  1
  Gd  Gd32  1  0.21778366  0.53658643  0.06043425  1
  Gd  Gd33  1  0.55373444  0.54240386  0.07245501  1
  Gd  Gd34  1  0.88670151  0.86521676  0.56515290  1
  Gd  Gd35  1  0.44405844  0.76931293  0.79376286  1
  N  N36  1  0.22228513  0.20183814  0.37504989  1
  N  N37  1  0.10985749  0.09958380  0.11659554  1
  N  N38  1  0.89191648  0.20452052  0.86599771  1
  N  N39  1  0.75028802  0.10755913  0.64028225  1
  N  N40  1  0.55944136  0.19905670  0.37409446  1
  N  N41  1  0.44212151  0.09921313  0.12400602  1
  N  N42  1  0.22557849  0.20602321  0.87363617  1
  N  N43  1  0.15296901  0.06929422  0.63646594  1
  N  N44  1  0.88759695  0.20241658  0.34698634  1
  N  N45  1  0.77520488  0.09598352  0.10747972  1
  N  N46  1  0.54994133  0.21036158  0.87313079  1
  N  N47  1  0.44720261  0.09169046  0.62209185  1
  N  N48  1  0.21719103  0.54307974  0.36971377  1
  N  N49  1  0.10248156  0.40930733  0.13612571  1
  N  N50  1  0.89263512  0.53468303  0.86807346  1
  N  N51  1  0.76000004  0.45004470  0.62574304  1
  N  N52  1  0.55755866  0.53639079  0.35595479  1
  N  N53  1  0.45579720  0.39586112  0.14101753  1
  N  N54  1  0.22567903  0.53363284  0.84107949  1
  N  N55  1  0.10859008  0.42495580  0.61579541  1
  N  N56  1  0.88385716  0.54331731  0.37112081  1
  N  N57  1  0.80391425  0.41187197  0.12387411  1
  N  N58  1  0.56206392  0.51625134  0.85586717  1
  N  N59  1  0.44749442  0.42412310  0.60620677  1
  N  N60  1  0.21179227  0.88132099  0.36664744  1
  N  N61  1  0.09827019  0.78898933  0.12636904  1
  N  N62  1  0.89369939  0.86785000  0.86720498  1
  N  N63  1  0.75204726  0.75350557  0.63826183  1
  N  N64  1  0.55964000  0.87824977  0.36500239  1
  N  N65  1  0.42563844  0.79904463  0.13283026  1
  N  N66  1  0.20100678  0.88047049  0.88439467  1
  N  N67  1  0.14364391  0.75047448  0.62524535  1
  N  N68  1  0.88300453  0.87661694  0.34716264  1
  N  N69  1  0.78008594  0.75781528  0.11647421  1
  N  N70  1  0.56666808  0.88936518  0.88560492  1
  N  N71  1  0.44853098  0.75820961  0.57413170  1
