# generated using pymatgen
data_Gd5Al31N36
_symmetry_space_group_name_H-M   'P 1'
_cell_length_a   9.69993574
_cell_length_b   9.73267184
_cell_length_c   10.59050080
_cell_angle_alpha   89.65796028
_cell_angle_beta   89.54233723
_cell_angle_gamma   60.12020565
_symmetry_Int_Tables_number   1
_chemical_formula_structural   Gd5Al31N36
_chemical_formula_sum   'Gd5 Al31 N36'
_cell_volume   866.87772299
_cell_formula_units_Z   1
loop_
 _symmetry_equiv_pos_site_id
 _symmetry_equiv_pos_as_xyz
  1  'x, y, z'
loop_
 _atom_site_type_symbol
 _atom_site_label
 _atom_site_symmetry_multiplicity
 _atom_site_fract_x
 _atom_site_fract_y
 _atom_site_fract_z
 _atom_site_occupancy
  Al  Al0  1  0.11081048  0.10094082  0.39838515  1
  Al  Al1  1  0.21537883  0.21004740  0.15337374  1
  Al  Al2  1  0.78127845  0.08822303  0.91741412  1
  Al  Al3  1  0.44066122  0.09245973  0.33075102  1
  Al  Al4  1  0.56460461  0.19405226  0.15937527  1
  Al  Al5  1  0.10989901  0.09824108  0.91724816  1
  Al  Al6  1  0.22519905  0.20142374  0.65067172  1
  Al  Al7  1  0.76665036  0.10147271  0.39674291  1
  Al  Al8  1  0.89904089  0.19671285  0.15627056  1
  Al  Al9  1  0.45623821  0.08613876  0.83349681  1
  Al  Al10  1  0.55352861  0.20623935  0.64386723  1
  Al  Al11  1  0.11104318  0.43146499  0.40548342  1
  Al  Al12  1  0.79757570  0.41105682  0.91659382  1
  Al  Al13  1  0.87876721  0.54029675  0.64773557  1
  Al  Al14  1  0.43220553  0.42858975  0.33239308  1
  Al  Al15  1  0.10820728  0.41372980  0.89324039  1
  Al  Al16  1  0.22604810  0.53289758  0.65163535  1
  Al  Al17  1  0.78344821  0.42688171  0.39262825  1
  Al  Al18  1  0.90034231  0.52946345  0.15562423  1
  Al  Al19  1  0.46234020  0.41629003  0.83346000  1
  Al  Al20  1  0.54412997  0.54378710  0.56061391  1
  Al  Al21  1  0.10698854  0.76732206  0.33518074  1
  Al  Al22  1  0.21434607  0.88609889  0.09670137  1
  Al  Al23  1  0.79337976  0.75439026  0.91739355  1
  Al  Al24  1  0.43125661  0.77662631  0.33449081  1
  Al  Al25  1  0.54826478  0.88729172  0.08901927  1
  Al  Al26  1  0.11580862  0.76650367  0.83710968  1
  Al  Al27  1  0.23176405  0.86297146  0.57042222  1
  Al  Al28  1  0.77595663  0.75334401  0.39532136  1
  Al  Al29  1  0.87447180  0.88302897  0.16418565  1
  Al  Al30  1  0.54192041  0.87633058  0.56552444  1
  Gd  Gd31  1  0.88831936  0.21150501  0.65545414  1
  Gd  Gd32  1  0.21119416  0.55667516  0.08981841  1
  Gd  Gd33  1  0.56065117  0.54378223  0.11432306  1
  Gd  Gd34  1  0.87591274  0.87172416  0.64100063  1
  Gd  Gd35  1  0.45330589  0.75594535  0.82536982  1
  N  N36  1  0.21181103  0.21595831  0.33948622  1
  N  N37  1  0.11115410  0.10429461  0.09838126  1
  N  N38  1  0.89528347  0.19590340  0.86979726  1
  N  N39  1  0.75029463  0.11486699  0.57124027  1
  N  N40  1  0.55361337  0.20293665  0.34641307  1
  N  N41  1  0.44420203  0.09466069  0.14499842  1
  N  N42  1  0.22056977  0.19765793  0.83729095  1
  N  N43  1  0.13744744  0.08756432  0.57938416  1
  N  N44  1  0.88885268  0.20394277  0.34202393  1
  N  N45  1  0.77543586  0.09459107  0.10007907  1
  N  N46  1  0.57318626  0.19396203  0.83718188  1
  N  N47  1  0.45291489  0.08095416  0.64455886  1
  N  N48  1  0.21152104  0.54557541  0.35821025  1
  N  N49  1  0.10108757  0.41024231  0.07518719  1
  N  N50  1  0.88565969  0.53695116  0.83768523  1
  N  N51  1  0.76767054  0.44878515  0.57252258  1
  N  N52  1  0.54681186  0.54270247  0.37198462  1
  N  N53  1  0.44930232  0.40630107  0.15063097  1
  N  N54  1  0.22579728  0.52843223  0.85425239  1
  N  N55  1  0.10983101  0.42717797  0.59624166  1
  N  N56  1  0.89229207  0.53667372  0.33726967  1
  N  N57  1  0.81696035  0.40594106  0.09741035  1
  N  N58  1  0.57466185  0.50821831  0.89613999  1
  N  N59  1  0.44891697  0.43022546  0.64021796  1
  N  N60  1  0.21609680  0.87120635  0.39141341  1
  N  N61  1  0.09157585  0.80548945  0.15986990  1
  N  N62  1  0.89260890  0.86836256  0.86178523  1
  N  N63  1  0.76436501  0.74098398  0.57623313  1
  N  N64  1  0.54403587  0.88069461  0.38609815  1
  N  N65  1  0.42337669  0.80369361  0.15530712  1
  N  N66  1  0.20906310  0.87143733  0.91344958  1
  N  N67  1  0.14318292  0.75420076  0.65553437  1
  N  N68  1  0.87345609  0.87739630  0.35284782  1
  N  N69  1  0.78895145  0.75141244  0.10216128  1
  N  N70  1  0.56795725  0.88568689  0.90846140  1
  N  N71  1  0.44620457  0.75734124  0.61151860  1
