# generated using pymatgen
data_Gd5Al31N36
_symmetry_space_group_name_H-M   'P 1'
_cell_length_a   9.70374701
_cell_length_b   9.71739324
_cell_length_c   10.34036234
_cell_angle_alpha   90.00802948
_cell_angle_beta   89.87143050
_cell_angle_gamma   60.06463741
_symmetry_Int_Tables_number   1
_chemical_formula_structural   Gd5Al31N36
_chemical_formula_sum   'Gd5 Al31 N36'
_cell_volume   844.96083750
_cell_formula_units_Z   1
loop_
 _symmetry_equiv_pos_site_id
 _symmetry_equiv_pos_as_xyz
  1  'x, y, z'
loop_
 _atom_site_type_symbol
 _atom_site_label
 _atom_site_symmetry_multiplicity
 _atom_site_fract_x
 _atom_site_fract_y
 _atom_site_fract_z
 _atom_site_occupancy
  Al  Al0  1  0.10917032  0.09822738  0.30135037  1
  Al  Al1  1  0.22468402  0.20017339  0.06245715  1
  Al  Al2  1  0.77282827  0.09503748  0.82089288  1
  Al  Al3  1  0.44205227  0.09925875  0.30964579  1
  Al  Al4  1  0.55483840  0.19852750  0.05969959  1
  Al  Al5  1  0.12071399  0.08801294  0.81884602  1
  Al  Al6  1  0.23076328  0.19940893  0.56283268  1
  Al  Al7  1  0.77206502  0.09776021  0.29617560  1
  Al  Al8  1  0.89797787  0.19528773  0.06175021  1
  Al  Al9  1  0.44891818  0.09723887  0.81236201  1
  Al  Al10  1  0.55021688  0.20514706  0.56065012  1
  Al  Al11  1  0.11094700  0.42368162  0.32057715  1
  Al  Al12  1  0.78794620  0.41741873  0.85031195  1
  Al  Al13  1  0.87766026  0.54020794  0.63364675  1
  Al  Al14  1  0.44085853  0.41994408  0.31840750  1
  Al  Al15  1  0.12249422  0.41806100  0.80233608  1
  Al  Al16  1  0.22675368  0.53685222  0.56246369  1
  Al  Al17  1  0.77763653  0.42636730  0.31626076  1
  Al  Al18  1  0.89307087  0.53466670  0.12899561  1
  Al  Al19  1  0.45398533  0.41745696  0.79521329  1
  Al  Al20  1  0.55208078  0.54076945  0.53898194  1
  Al  Al21  1  0.10446257  0.77107302  0.30755211  1
  Al  Al22  1  0.21502862  0.88563776  0.06640864  1
  Al  Al23  1  0.77611163  0.76530052  0.82479216  1
  Al  Al24  1  0.43532514  0.77695671  0.31939050  1
  Al  Al25  1  0.55185219  0.88465294  0.06709030  1
  Al  Al26  1  0.11726999  0.76001516  0.80843009  1
  Al  Al27  1  0.22836300  0.87115855  0.55116953  1
  Al  Al28  1  0.77132989  0.77136872  0.30116479  1
  Al  Al29  1  0.88794557  0.87658533  0.05942360  1
  Al  Al30  1  0.55162820  0.87582201  0.54979356  1
  Gd  Gd31  1  0.89648828  0.20133877  0.56547531  1
  Gd  Gd32  1  0.21558281  0.53745809  0.05820026  1
  Gd  Gd33  1  0.54848105  0.54404800  0.07912661  1
  Gd  Gd34  1  0.88589105  0.86341532  0.56550304  1
  Gd  Gd35  1  0.45164696  0.76146852  0.79266051  1
  N  N36  1  0.22137624  0.20269197  0.37485325  1
  N  N37  1  0.11166360  0.09799453  0.11715236  1
  N  N38  1  0.89839767  0.19521423  0.86829729  1
  N  N39  1  0.74858713  0.10588420  0.64055347  1
  N  N40  1  0.55773910  0.20089658  0.37393620  1
  N  N41  1  0.44271629  0.09813125  0.12379894  1
  N  N42  1  0.22764952  0.20450116  0.87322915  1
  N  N43  1  0.15228584  0.07133982  0.63598157  1
  N  N44  1  0.88584230  0.20469648  0.34379310  1
  N  N45  1  0.77446367  0.09508506  0.10837023  1
  N  N46  1  0.55149095  0.20881947  0.87292274  1
  N  N47  1  0.44569869  0.09326264  0.62130849  1
  N  N48  1  0.21505162  0.54487900  0.37028859  1
  N  N49  1  0.11053069  0.40383985  0.13449349  1
  N  N50  1  0.89553446  0.53244130  0.83042224  1
  N  N51  1  0.75905700  0.45088916  0.59464389  1
  N  N52  1  0.54993643  0.54095732  0.34879816  1
  N  N53  1  0.45154820  0.39429704  0.14023062  1
  N  N54  1  0.23000945  0.53247242  0.83986726  1
  N  N55  1  0.11120575  0.42468012  0.61369634  1
  N  N56  1  0.88188074  0.54667044  0.32427197  1
  N  N57  1  0.80269152  0.41039859  0.10492019  1
  N  N58  1  0.56898659  0.51110065  0.86031599  1
  N  N59  1  0.44747979  0.42564291  0.60570497  1
  N  N60  1  0.20917095  0.88384604  0.36738017  1
  N  N61  1  0.09821816  0.78967249  0.12633568  1
  N  N62  1  0.89616437  0.86669156  0.86746175  1
  N  N63  1  0.74571652  0.75994539  0.63984010  1
  N  N64  1  0.55723818  0.88083139  0.36527499  1
  N  N65  1  0.42493414  0.80179086  0.13298958  1
  N  N66  1  0.20689488  0.87679887  0.88313655  1
  N  N67  1  0.14256522  0.75111143  0.62503504  1
  N  N68  1  0.88156079  0.87928056  0.34791187  1
  N  N69  1  0.77789355  0.76356740  0.11289378  1
  N  N70  1  0.56562516  0.88954041  0.88499483  1
  N  N71  1  0.44602733  0.75958806  0.57299643  1
