# generated using pymatgen
data_Gd5Al31N36
_symmetry_space_group_name_H-M   'P 1'
_cell_length_a   9.66464911
_cell_length_b   9.69952785
_cell_length_c   10.69277092
_cell_angle_alpha   89.46260407
_cell_angle_beta   89.31837169
_cell_angle_gamma   59.87656417
_symmetry_Int_Tables_number   1
_chemical_formula_structural   Gd5Al31N36
_chemical_formula_sum   'Gd5 Al31 N36'
_cell_volume   866.92583034
_cell_formula_units_Z   1
loop_
 _symmetry_equiv_pos_site_id
 _symmetry_equiv_pos_as_xyz
  1  'x, y, z'
loop_
 _atom_site_type_symbol
 _atom_site_label
 _atom_site_symmetry_multiplicity
 _atom_site_fract_x
 _atom_site_fract_y
 _atom_site_fract_z
 _atom_site_occupancy
  Al  Al0  1  0.11015103  0.10143791  0.39868239  1
  Al  Al1  1  0.21579783  0.21065969  0.15298351  1
  Al  Al2  1  0.77998957  0.08960025  0.91808680  1
  Al  Al3  1  0.44068442  0.09167202  0.33149743  1
  Al  Al4  1  0.56285971  0.19770847  0.16528578  1
  Al  Al5  1  0.11062383  0.09592803  0.91822222  1
  Al  Al6  1  0.22470020  0.20160201  0.65143521  1
  Al  Al7  1  0.76878695  0.09963599  0.39807833  1
  Al  Al8  1  0.89865746  0.19833123  0.15618604  1
  Al  Al9  1  0.45706935  0.08729800  0.83179237  1
  Al  Al10  1  0.55369225  0.20614225  0.64067575  1
  Al  Al11  1  0.10667669  0.42699618  0.40843631  1
  Al  Al12  1  0.79590253  0.41190141  0.91591534  1
  Al  Al13  1  0.88024216  0.53879204  0.64772524  1
  Al  Al14  1  0.43357333  0.42947017  0.34107715  1
  Al  Al15  1  0.10981087  0.41485306  0.88998435  1
  Al  Al16  1  0.22637958  0.54043430  0.59058033  1
  Al  Al17  1  0.78361420  0.42666447  0.39319283  1
  Al  Al18  1  0.89992052  0.53062128  0.15471392  1
  Al  Al19  1  0.45337913  0.42196096  0.82170975  1
  Al  Al20  1  0.54661881  0.54461720  0.56168592  1
  Al  Al21  1  0.10768039  0.76727555  0.34059744  1
  Al  Al22  1  0.21524618  0.88331220  0.09784922  1
  Al  Al23  1  0.79460725  0.75454789  0.91927786  1
  Al  Al24  1  0.43289536  0.77527533  0.33361481  1
  Al  Al25  1  0.54935045  0.88818066  0.08951904  1
  Al  Al26  1  0.12127787  0.75673941  0.83100818  1
  Al  Al27  1  0.23091322  0.86446280  0.57009391  1
  Al  Al28  1  0.77645939  0.75367399  0.39624601  1
  Al  Al29  1  0.87635385  0.88212209  0.16566910  1
  Al  Al30  1  0.54140015  0.87567451  0.56497344  1
  Gd  Gd31  1  0.88887179  0.20986091  0.65808364  1
  Gd  Gd32  1  0.21300193  0.55827493  0.07577591  1
  Gd  Gd33  1  0.55611915  0.54256007  0.11074117  1
  Gd  Gd34  1  0.86992241  0.87323553  0.64831584  1
  Gd  Gd35  1  0.45422973  0.75772933  0.82617045  1
  N  N36  1  0.21080794  0.21670263  0.33776805  1
  N  N37  1  0.11229480  0.10300603  0.09795377  1
  N  N38  1  0.89560094  0.19572233  0.87100654  1
  N  N39  1  0.75317324  0.11339337  0.57035214  1
  N  N40  1  0.55378385  0.20173236  0.35091538  1
  N  N41  1  0.44556947  0.09532235  0.14781135  1
  N  N42  1  0.22059855  0.19622418  0.83661086  1
  N  N43  1  0.13700910  0.08890297  0.57810462  1
  N  N44  1  0.88877694  0.20417802  0.34039313  1
  N  N45  1  0.77411092  0.09681569  0.10104229  1
  N  N46  1  0.57388980  0.19562628  0.83187714  1
  N  N47  1  0.45392232  0.07967372  0.64431039  1
  N  N48  1  0.21655902  0.54798645  0.40221633  1
  N  N49  1  0.10182588  0.41161456  0.07482711  1
  N  N50  1  0.88434675  0.53791786  0.83710905  1
  N  N51  1  0.77034163  0.44660447  0.57215458  1
  N  N52  1  0.54800722  0.54353783  0.37510059  1
  N  N53  1  0.43840048  0.41286280  0.16497826  1
  N  N54  1  0.22747784  0.52819696  0.86222111  1
  N  N55  1  0.10739947  0.42326909  0.59397283  1
  N  N56  1  0.89331330  0.53680903  0.33561688  1
  N  N57  1  0.81448418  0.40856062  0.09629768  1
  N  N58  1  0.57067956  0.50718348  0.89444738  1
  N  N59  1  0.44679366  0.43191432  0.63486590  1
  N  N60  1  0.21740741  0.87150383  0.39223469  1
  N  N61  1  0.09753030  0.79709822  0.16644638  1
  N  N62  1  0.89534851  0.86717893  0.86425416  1
  N  N63  1  0.76553087  0.73968029  0.57454437  1
  N  N64  1  0.54367176  0.87980887  0.38715405  1
  N  N65  1  0.42580853  0.80211580  0.15599397  1
  N  N66  1  0.20893594  0.86645686  0.91484108  1
  N  N67  1  0.13926057  0.75445176  0.64961896  1
  N  N68  1  0.87387675  0.87665300  0.35171637  1
  N  N69  1  0.78979083  0.75258307  0.10224468  1
  N  N70  1  0.56784041  0.88799616  0.91050767  1
  N  N71  1  0.44546229  0.75783808  0.61419537  1
