# generated using pymatgen
data_Gd5Al31N36
_symmetry_space_group_name_H-M   'P 1'
_cell_length_a   9.71512888
_cell_length_b   9.74331235
_cell_length_c   10.54834575
_cell_angle_alpha   89.66648719
_cell_angle_beta   89.61419825
_cell_angle_gamma   60.11193205
_symmetry_Int_Tables_number   1
_chemical_formula_structural   Gd5Al31N36
_chemical_formula_sum   'Gd5 Al31 N36'
_cell_volume   865.65992973
_cell_formula_units_Z   1
loop_
 _symmetry_equiv_pos_site_id
 _symmetry_equiv_pos_as_xyz
  1  'x, y, z'
loop_
 _atom_site_type_symbol
 _atom_site_label
 _atom_site_symmetry_multiplicity
 _atom_site_fract_x
 _atom_site_fract_y
 _atom_site_fract_z
 _atom_site_occupancy
  Al  Al0  1  0.11131303  0.10089682  0.39867189  1
  Al  Al1  1  0.21553828  0.20885651  0.15257997  1
  Al  Al2  1  0.78326639  0.08690346  0.91708622  1
  Al  Al3  1  0.44089707  0.09317056  0.32961221  1
  Al  Al4  1  0.56382894  0.19397351  0.15549381  1
  Al  Al5  1  0.11019211  0.09845894  0.91647905  1
  Al  Al6  1  0.22552919  0.20218718  0.65026856  1
  Al  Al7  1  0.76620520  0.10260396  0.39664388  1
  Al  Al8  1  0.89973167  0.19523862  0.15571163  1
  Al  Al9  1  0.45614313  0.08544255  0.83274220  1
  Al  Al10  1  0.55095575  0.21277494  0.64554534  1
  Al  Al11  1  0.11103173  0.43141553  0.40539880  1
  Al  Al12  1  0.79784354  0.41123714  0.91717265  1
  Al  Al13  1  0.87939020  0.54052715  0.64760385  1
  Al  Al14  1  0.43247994  0.42843929  0.35063828  1
  Al  Al15  1  0.10863751  0.41367478  0.89407543  1
  Al  Al16  1  0.23155991  0.53057214  0.65492888  1
  Al  Al17  1  0.78511272  0.42633328  0.39204500  1
  Al  Al18  1  0.89926350  0.52859996  0.15521923  1
  Al  Al19  1  0.45956343  0.40986810  0.87859069  1
  Al  Al20  1  0.54447518  0.54395316  0.55991599  1
  Al  Al21  1  0.10572120  0.77045054  0.33512477  1
  Al  Al22  1  0.21452291  0.88615858  0.09566856  1
  Al  Al23  1  0.79338158  0.75409257  0.91671711  1
  Al  Al24  1  0.43080252  0.77881518  0.33420511  1
  Al  Al25  1  0.54821070  0.88663020  0.08837535  1
  Al  Al26  1  0.11653946  0.76583707  0.83845828  1
  Al  Al27  1  0.23217530  0.86282243  0.57169810  1
  Al  Al28  1  0.77570835  0.75358088  0.39548868  1
  Al  Al29  1  0.87357684  0.88394918  0.16385828  1
  Al  Al30  1  0.54218982  0.87751732  0.56635922  1
  Gd  Gd31  1  0.88756095  0.21223157  0.65481182  1
  Gd  Gd32  1  0.20339326  0.55738617  0.10288863  1
  Gd  Gd33  1  0.56152418  0.54277019  0.12007311  1
  Gd  Gd34  1  0.87718059  0.87143060  0.63994617  1
  Gd  Gd35  1  0.45356115  0.75387551  0.82542261  1
  N  N36  1  0.21246113  0.21595246  0.33977138  1
  N  N37  1  0.11122439  0.10392208  0.09831425  1
  N  N38  1  0.89537848  0.19601817  0.86970956  1
  N  N39  1  0.74888235  0.11539466  0.57176290  1
  N  N40  1  0.55360862  0.20632289  0.34050478  1
  N  N41  1  0.44414860  0.09332651  0.14468434  1
  N  N42  1  0.22083761  0.19807545  0.83740291  1
  N  N43  1  0.13756574  0.08763975  0.57998064  1
  N  N44  1  0.88946123  0.20357146  0.34235680  1
  N  N45  1  0.77592203  0.09359573  0.09974245  1
  N  N46  1  0.57175652  0.19568936  0.83849528  1
  N  N47  1  0.45327168  0.08247098  0.64458869  1
  N  N48  1  0.21084186  0.54491454  0.34807388  1
  N  N49  1  0.09896958  0.40843168  0.07497900  1
  N  N50  1  0.88646189  0.53672135  0.83779827  1
  N  N51  1  0.76762847  0.44960892  0.57167130  1
  N  N52  1  0.54813653  0.54315235  0.36731688  1
  N  N53  1  0.45090473  0.40042883  0.11943865  1
  N  N54  1  0.22804780  0.52710816  0.85633030  1
  N  N55  1  0.11011765  0.42861123  0.59600426  1
  N  N56  1  0.89275550  0.53696360  0.33737242  1
  N  N57  1  0.81672807  0.40486272  0.09825268  1
  N  N58  1  0.57698524  0.50872995  0.89667691  1
  N  N59  1  0.44426625  0.42886031  0.61129178  1
  N  N60  1  0.21668288  0.87098297  0.39187559  1
  N  N61  1  0.08911471  0.81044463  0.15998938  1
  N  N62  1  0.89298762  0.86785631  0.86162734  1
  N  N63  1  0.76425088  0.74142548  0.57667257  1
  N  N64  1  0.54430904  0.88191651  0.38592868  1
  N  N65  1  0.42287338  0.80408311  0.15448708  1
  N  N66  1  0.20905673  0.87229376  0.91254483  1
  N  N67  1  0.14433534  0.75318977  0.65641206  1
  N  N68  1  0.87312249  0.87789943  0.35372702  1
  N  N69  1  0.78947866  0.75080688  0.10237117  1
  N  N70  1  0.56842795  0.88503225  0.90749395  1
  N  N71  1  0.44708170  0.75739451  0.61041872  1
