# generated using pymatgen
data_Gd5Al31N36
_symmetry_space_group_name_H-M   'P 1'
_cell_length_a   9.69447757
_cell_length_b   9.71412482
_cell_length_c   10.51376114
_cell_angle_alpha   89.51347608
_cell_angle_beta   89.21320755
_cell_angle_gamma   60.02389184
_symmetry_Int_Tables_number   1
_chemical_formula_structural   Gd5Al31N36
_chemical_formula_sum   'Gd5 Al31 N36'
_cell_volume   857.58981577
_cell_formula_units_Z   1
loop_
 _symmetry_equiv_pos_site_id
 _symmetry_equiv_pos_as_xyz
  1  'x, y, z'
loop_
 _atom_site_type_symbol
 _atom_site_label
 _atom_site_symmetry_multiplicity
 _atom_site_fract_x
 _atom_site_fract_y
 _atom_site_fract_z
 _atom_site_occupancy
  Al  Al0  1  0.11215666  0.09831739  0.30841927  1
  Al  Al1  1  0.22315412  0.20029301  0.05364684  1
  Al  Al2  1  0.79596428  0.08185072  0.89370545  1
  Al  Al3  1  0.43318993  0.10255044  0.30119975  1
  Al  Al4  1  0.54996911  0.20153678  0.05882848  1
  Al  Al5  1  0.12734749  0.08028051  0.81605594  1
  Al  Al6  1  0.23206246  0.19401395  0.56334728  1
  Al  Al7  1  0.76462750  0.10171217  0.36855240  1
  Al  Al8  1  0.89071432  0.20261698  0.12927561  1
  Al  Al9  1  0.45780909  0.09092793  0.80891519  1
  Al  Al10  1  0.53584873  0.21271049  0.54722321  1
  Al  Al11  1  0.10174821  0.43328617  0.38450462  1
  Al  Al12  1  0.80130270  0.40870468  0.88802470  1
  Al  Al13  1  0.87509667  0.54351904  0.62247848  1
  Al  Al14  1  0.43160496  0.42536799  0.31167427  1
  Al  Al15  1  0.11481101  0.41882917  0.84173986  1
  Al  Al16  1  0.22818722  0.54020250  0.56869614  1
  Al  Al17  1  0.77774351  0.43173362  0.36626946  1
  Al  Al18  1  0.90094577  0.53047717  0.13144071  1
  Al  Al19  1  0.46255507  0.41030873  0.79693513  1
  Al  Al20  1  0.54256547  0.54691145  0.53510217  1
  Al  Al21  1  0.10664810  0.77107505  0.31819235  1
  Al  Al22  1  0.20950366  0.89079677  0.06824496  1
  Al  Al23  1  0.79658723  0.75304257  0.89450311  1
  Al  Al24  1  0.42925246  0.77999751  0.30878052  1
  Al  Al25  1  0.55049651  0.88482627  0.06512631  1
  Al  Al26  1  0.12500620  0.75513952  0.80471692  1
  Al  Al27  1  0.22872788  0.87143485  0.55271466  1
  Al  Al28  1  0.77227244  0.75768378  0.36862564  1
  Al  Al29  1  0.87785452  0.88145770  0.14001767  1
  Al  Al30  1  0.54146539  0.87803770  0.54012112  1
  Gd  Gd31  1  0.88105224  0.21580278  0.62106393  1
  Gd  Gd32  1  0.21678964  0.55449668  0.05216187  1
  Gd  Gd33  1  0.55791116  0.53914781  0.08768298  1
  Gd  Gd34  1  0.87348579  0.87195200  0.62058869  1
  Gd  Gd35  1  0.45913698  0.75332732  0.80132648  1
  N  N36  1  0.21820194  0.20423343  0.37537694  1
  N  N37  1  0.11552703  0.10002494  0.12509684  1
  N  N38  1  0.90128115  0.19359780  0.83849563  1
  N  N39  1  0.75332424  0.10873458  0.54675854  1
  N  N40  1  0.53277521  0.21229787  0.36572998  1
  N  N41  1  0.43998178  0.09855475  0.11838837  1
  N  N42  1  0.23519775  0.19137910  0.86523859  1
  N  N43  1  0.15063172  0.07020215  0.63164741  1
  N  N44  1  0.87771404  0.21146642  0.31749038  1
  N  N45  1  0.77903034  0.09338519  0.07679289  1
  N  N46  1  0.56107575  0.20061113  0.86900023  1
  N  N47  1  0.45068195  0.08920267  0.62035810  1
  N  N48  1  0.21441819  0.55021344  0.37635289  1
  N  N49  1  0.10260879  0.41797443  0.06444451  1
  N  N50  1  0.88653094  0.53771840  0.81072827  1
  N  N51  1  0.76363465  0.45525176  0.54545433  1
  N  N52  1  0.54200167  0.54651479  0.34558721  1
  N  N53  1  0.44865711  0.39653288  0.13648632  1
  N  N54  1  0.23271707  0.52794413  0.83285998  1
  N  N55  1  0.10473544  0.42779500  0.57956453  1
  N  N56  1  0.89068001  0.53827058  0.31353515  1
  N  N57  1  0.81617975  0.40861372  0.06874730  1
  N  N58  1  0.57688609  0.50258873  0.86581901  1
  N  N59  1  0.45132125  0.42402412  0.60931691  1
  N  N60  1  0.21054860  0.88451163  0.37244120  1
  N  N61  1  0.09933732  0.79582743  0.14049245  1
  N  N62  1  0.90037104  0.86349285  0.83969730  1
  N  N63  1  0.76204562  0.74400359  0.54988366  1
  N  N64  1  0.54173326  0.88546674  0.35768102  1
  N  N65  1  0.42369334  0.80046789  0.12620327  1
  N  N66  1  0.20788775  0.87244387  0.88614308  1
  N  N67  1  0.14226114  0.75219303  0.62236246  1
  N  N68  1  0.87225015  0.87906987  0.32720785  1
  N  N69  1  0.78801294  0.75326173  0.07992584  1
  N  N70  1  0.57292323  0.88428450  0.88154652  1
  N  N71  1  0.44634455  0.75825380  0.58601430  1
