# generated using pymatgen
data_Gd5Al31N36
_symmetry_space_group_name_H-M   'P 1'
_cell_length_a   9.69483865
_cell_length_b   9.69731532
_cell_length_c   10.33090671
_cell_angle_alpha   89.81620442
_cell_angle_beta   89.88639282
_cell_angle_gamma   59.98400868
_symmetry_Int_Tables_number   1
_chemical_formula_structural   Gd5Al31N36
_chemical_formula_sum   'Gd5 Al31 N36'
_cell_volume   840.98624836
_cell_formula_units_Z   1
loop_
 _symmetry_equiv_pos_site_id
 _symmetry_equiv_pos_as_xyz
  1  'x, y, z'
loop_
 _atom_site_type_symbol
 _atom_site_label
 _atom_site_symmetry_multiplicity
 _atom_site_fract_x
 _atom_site_fract_y
 _atom_site_fract_z
 _atom_site_occupancy
  Al  Al0  1  0.10985429  0.09718492  0.30116743  1
  Al  Al1  1  0.22381987  0.20095254  0.06280297  1
  Al  Al2  1  0.77188641  0.09680153  0.82123331  1
  Al  Al3  1  0.44309587  0.09822364  0.30998230  1
  Al  Al4  1  0.55532654  0.19937662  0.05997003  1
  Al  Al5  1  0.11598734  0.09170125  0.81988433  1
  Al  Al6  1  0.23214755  0.19776674  0.56299453  1
  Al  Al7  1  0.77367821  0.09647897  0.29578822  1
  Al  Al8  1  0.89518949  0.20123265  0.05804807  1
  Al  Al9  1  0.44807177  0.09810670  0.81355031  1
  Al  Al10  1  0.55112078  0.20427510  0.56044586  1
  Al  Al11  1  0.10818179  0.42479840  0.32150399  1
  Al  Al12  1  0.77729862  0.42375619  0.81173230  1
  Al  Al13  1  0.88086333  0.54252102  0.60533890  1
  Al  Al14  1  0.44505652  0.41965692  0.31961974  1
  Al  Al15  1  0.11523099  0.42166463  0.80457160  1
  Al  Al16  1  0.22753513  0.53640054  0.56143878  1
  Al  Al17  1  0.78243428  0.42401818  0.30727951  1
  Al  Al18  1  0.89366870  0.53371446  0.09818451  1
  Al  Al19  1  0.44875085  0.41950072  0.79516727  1
  Al  Al20  1  0.55495876  0.53840484  0.54482222  1
  Al  Al21  1  0.10574179  0.76938081  0.30745342  1
  Al  Al22  1  0.21374156  0.88615641  0.06717136  1
  Al  Al23  1  0.77697669  0.76219205  0.82374087  1
  Al  Al24  1  0.43906333  0.77242801  0.31999053  1
  Al  Al25  1  0.55187876  0.88432337  0.06796782  1
  Al  Al26  1  0.11474991  0.76090469  0.80914292  1
  Al  Al27  1  0.23028477  0.86910469  0.55010344  1
  Al  Al28  1  0.77580500  0.76370185  0.30367562  1
  Al  Al29  1  0.88786975  0.87678210  0.05951856  1
  Al  Al30  1  0.55284599  0.87524842  0.54921157  1
  Gd  Gd31  1  0.89844567  0.20159953  0.56449709  1
  Gd  Gd32  1  0.21808922  0.53688477  0.05979632  1
  Gd  Gd33  1  0.55338602  0.54266403  0.07180927  1
  Gd  Gd34  1  0.88689610  0.86525308  0.56448734  1
  Gd  Gd35  1  0.44413917  0.76919218  0.79340155  1
  N  N36  1  0.22237036  0.20153277  0.37502014  1
  N  N37  1  0.10988997  0.09954599  0.11646971  1
  N  N38  1  0.89209891  0.20370805  0.86588963  1
  N  N39  1  0.75042685  0.10751072  0.64002122  1
  N  N40  1  0.55929203  0.19919192  0.37396672  1
  N  N41  1  0.44234928  0.09904989  0.12389336  1
  N  N42  1  0.22623334  0.20516868  0.87346766  1
  N  N43  1  0.15287939  0.06939459  0.63636822  1
  N  N44  1  0.88758024  0.20208658  0.34683922  1
  N  N45  1  0.77520716  0.09599008  0.10744329  1
  N  N46  1  0.55005926  0.21019588  0.87302280  1
  N  N47  1  0.44698199  0.09194018  0.62196109  1
  N  N48  1  0.21742047  0.54319597  0.36971799  1
  N  N49  1  0.10698713  0.40666418  0.13569111  1
  N  N50  1  0.89276831  0.53424070  0.84846325  1
  N  N51  1  0.75804465  0.44897329  0.62487687  1
  N  N52  1  0.55685448  0.53654250  0.35578555  1
  N  N53  1  0.45585106  0.39594940  0.14077672  1
  N  N54  1  0.22620448  0.53351177  0.84109296  1
  N  N55  1  0.11107395  0.42388999  0.61492407  1
  N  N56  1  0.88369453  0.54366583  0.35241300  1
  N  N57  1  0.80284057  0.41004066  0.12271796  1
  N  N58  1  0.56161769  0.51629258  0.85581530  1
  N  N59  1  0.44746475  0.42414261  0.60616313  1
  N  N60  1  0.21168525  0.88134906  0.36664338  1
  N  N61  1  0.09810680  0.78905615  0.12638805  1
  N  N62  1  0.89385957  0.86795978  0.86728922  1
  N  N63  1  0.74918118  0.75804324  0.63796396  1
  N  N64  1  0.55880327  0.87891236  0.36480085  1
  N  N65  1  0.42568737  0.79903529  0.13277394  1
  N  N66  1  0.20116224  0.88028469  0.88437691  1
  N  N67  1  0.14367633  0.75031568  0.62526597  1
  N  N68  1  0.88289647  0.87720175  0.34711319  1
  N  N69  1  0.77893902  0.76061826  0.11558834  1
  N  N70  1  0.56626759  0.88939295  0.88558964  1
  N  N71  1  0.44837456  0.75830982  0.57403416  1
