# generated using pymatgen
data_Gd5Al31N36
_symmetry_space_group_name_H-M   'P 1'
_cell_length_a   9.69192663
_cell_length_b   9.71196653
_cell_length_c   10.52795854
_cell_angle_alpha   89.49148334
_cell_angle_beta   89.14775756
_cell_angle_gamma   60.01881667
_symmetry_Int_Tables_number   1
_chemical_formula_structural   Gd5Al31N36
_chemical_formula_sum   'Gd5 Al31 N36'
_cell_volume   858.27361126
_cell_formula_units_Z   1
loop_
 _symmetry_equiv_pos_site_id
 _symmetry_equiv_pos_as_xyz
  1  'x, y, z'
loop_
 _atom_site_type_symbol
 _atom_site_label
 _atom_site_symmetry_multiplicity
 _atom_site_fract_x
 _atom_site_fract_y
 _atom_site_fract_z
 _atom_site_occupancy
  Al  Al0  1  0.11230710  0.09836854  0.30873827  1
  Al  Al1  1  0.22453941  0.19798662  0.05302523  1
  Al  Al2  1  0.79577673  0.08187190  0.89339872  1
  Al  Al3  1  0.43369138  0.10220738  0.30155446  1
  Al  Al4  1  0.54990343  0.20163556  0.05831978  1
  Al  Al5  1  0.12738635  0.08006461  0.81564335  1
  Al  Al6  1  0.23157639  0.19495419  0.56312944  1
  Al  Al7  1  0.76470817  0.10165300  0.36901353  1
  Al  Al8  1  0.89040532  0.20245363  0.12964344  1
  Al  Al9  1  0.45733303  0.09091543  0.80861067  1
  Al  Al10  1  0.53584095  0.21273617  0.54752854  1
  Al  Al11  1  0.10180178  0.43350163  0.38582026  1
  Al  Al12  1  0.80030997  0.40870455  0.88770270  1
  Al  Al13  1  0.87753640  0.54243477  0.62305751  1
  Al  Al14  1  0.43247333  0.42520075  0.31206535  1
  Al  Al15  1  0.11169674  0.41930350  0.85979703  1
  Al  Al16  1  0.22773687  0.54003351  0.56791543  1
  Al  Al17  1  0.77884361  0.43160627  0.36583800  1
  Al  Al18  1  0.90100367  0.53042891  0.12901652  1
  Al  Al19  1  0.46067099  0.41084027  0.79773845  1
  Al  Al20  1  0.54319065  0.54675728  0.53508245  1
  Al  Al21  1  0.10650483  0.77194825  0.31814576  1
  Al  Al22  1  0.20930553  0.89196149  0.06792301  1
  Al  Al23  1  0.79606021  0.75336111  0.89383732  1
  Al  Al24  1  0.42946333  0.78002677  0.30890457  1
  Al  Al25  1  0.55043777  0.88497014  0.06486090  1
  Al  Al26  1  0.12494311  0.75404623  0.80530512  1
  Al  Al27  1  0.22887342  0.87128200  0.55293873  1
  Al  Al28  1  0.77330484  0.75672910  0.36830119  1
  Al  Al29  1  0.87720534  0.88224074  0.14005687  1
  Al  Al30  1  0.54211920  0.87758572  0.53992085  1
  Gd  Gd31  1  0.88073974  0.21619846  0.62124201  1
  Gd  Gd32  1  0.21743407  0.55626240  0.05496436  1
  Gd  Gd33  1  0.55815019  0.53918402  0.08804865  1
  Gd  Gd34  1  0.87376988  0.87160815  0.62058964  1
  Gd  Gd35  1  0.45897671  0.75315557  0.80126683  1
  N  N36  1  0.21876029  0.20392459  0.37442876  1
  N  N37  1  0.11528423  0.10103217  0.12568612  1
  N  N38  1  0.90110010  0.19360378  0.83835147  1
  N  N39  1  0.75349781  0.10861148  0.54688372  1
  N  N40  1  0.53299097  0.21225468  0.36609553  1
  N  N41  1  0.43983687  0.09893927  0.11877196  1
  N  N42  1  0.23650210  0.18858549  0.86598502  1
  N  N43  1  0.15034141  0.07054914  0.63131276  1
  N  N44  1  0.87777346  0.21124259  0.31741317  1
  N  N45  1  0.77874488  0.09367843  0.07644472  1
  N  N46  1  0.56074192  0.20049167  0.86902400  1
  N  N47  1  0.45053950  0.08914736  0.62014027  1
  N  N48  1  0.21483432  0.55073922  0.37438350  1
  N  N49  1  0.09944811  0.41933141  0.05114547  1
  N  N50  1  0.88677535  0.53716780  0.81133744  1
  N  N51  1  0.76456442  0.45541918  0.54484764  1
  N  N52  1  0.54279626  0.54640941  0.34547195  1
  N  N53  1  0.44891631  0.39612234  0.13699309  1
  N  N54  1  0.23205257  0.52806134  0.83661384  1
  N  N55  1  0.10367004  0.42906988  0.57390096  1
  N  N56  1  0.89297983  0.53713746  0.31083066  1
  N  N57  1  0.81596330  0.40824587  0.06872701  1
  N  N58  1  0.57598656  0.50259473  0.86648633  1
  N  N59  1  0.45074948  0.42430824  0.60961881  1
  N  N60  1  0.21071072  0.88459190  0.37275629  1
  N  N61  1  0.09851719  0.79799802  0.14066342  1
  N  N62  1  0.89986754  0.86378000  0.83928390  1
  N  N63  1  0.76297864  0.74310429  0.54942374  1
  N  N64  1  0.54257844  0.88483008  0.35752527  1
  N  N65  1  0.42343696  0.80079501  0.12630358  1
  N  N66  1  0.20753922  0.87229043  0.88623849  1
  N  N67  1  0.14273690  0.75146269  0.62280096  1
  N  N68  1  0.87219961  0.87917523  0.32698262  1
  N  N69  1  0.78814475  0.75351242  0.07935263  1
  N  N70  1  0.57263425  0.88419752  0.88157934  1
  N  N71  1  0.44658255  0.75815441  0.58602202  1
