# generated using pymatgen
data_Gd5Al31N36
_symmetry_space_group_name_H-M   'P 1'
_cell_length_a   9.70405293
_cell_length_b   9.73122254
_cell_length_c   10.51838439
_cell_angle_alpha   89.52428955
_cell_angle_beta   89.70208191
_cell_angle_gamma   59.77483011
_symmetry_Int_Tables_number   1
_chemical_formula_structural   Gd5Al31N36
_chemical_formula_sum   'Gd5 Al31 N36'
_cell_volume   858.21298815
_cell_formula_units_Z   1
loop_
 _symmetry_equiv_pos_site_id
 _symmetry_equiv_pos_as_xyz
  1  'x, y, z'
loop_
 _atom_site_type_symbol
 _atom_site_label
 _atom_site_symmetry_multiplicity
 _atom_site_fract_x
 _atom_site_fract_y
 _atom_site_fract_z
 _atom_site_occupancy
  Al  Al0  1  0.11074973  0.10252116  0.39337188  1
  Al  Al1  1  0.21629406  0.20366780  0.15000654  1
  Al  Al2  1  0.77879794  0.09455525  0.91785229  1
  Al  Al3  1  0.43875232  0.10247412  0.36625984  1
  Al  Al4  1  0.55874232  0.19426484  0.15145702  1
  Al  Al5  1  0.10782957  0.10421046  0.91410415  1
  Al  Al6  1  0.23115689  0.20090005  0.65007191  1
  Al  Al7  1  0.77179740  0.09808566  0.39296608  1
  Al  Al8  1  0.89783187  0.19687793  0.15492728  1
  Al  Al9  1  0.44641087  0.10399271  0.89641403  1
  Al  Al10  1  0.54887116  0.20801375  0.64610897  1
  Al  Al11  1  0.10856837  0.42623837  0.41466369  1
  Al  Al12  1  0.79062127  0.41936343  0.91541906  1
  Al  Al13  1  0.87999223  0.54418360  0.64918888  1
  Al  Al14  1  0.43836936  0.42057743  0.40836201  1
  Al  Al15  1  0.10888441  0.42488002  0.89242395  1
  Al  Al16  1  0.22701646  0.53857757  0.65103680  1
  Al  Al17  1  0.78494596  0.42850184  0.39277147  1
  Al  Al18  1  0.89571174  0.52868440  0.15302886  1
  Al  Al19  1  0.45002409  0.41437244  0.89574978  1
  Al  Al20  1  0.54902431  0.55100806  0.56457660  1
  Al  Al21  1  0.11017852  0.75683909  0.40295224  1
  Al  Al22  1  0.22015554  0.87940644  0.08797371  1
  Al  Al23  1  0.79087281  0.75644112  0.91999409  1
  Al  Al24  1  0.43309930  0.77743064  0.32822543  1
  Al  Al25  1  0.55440953  0.87722435  0.09385633  1
  Al  Al26  1  0.10634408  0.76353318  0.91181588  1
  Al  Al27  1  0.23428257  0.86974981  0.56458145  1
  Al  Al28  1  0.78233786  0.75412879  0.39068923  1
  Al  Al29  1  0.88842934  0.87375208  0.15705909  1
  Al  Al30  1  0.54605577  0.87906703  0.56006170  1
  Gd  Gd31  1  0.88718340  0.21162376  0.65285588  1
  Gd  Gd32  1  0.21290420  0.52773314  0.15451821  1
  Gd  Gd33  1  0.55563034  0.52608645  0.12842988  1
  Gd  Gd34  1  0.88148308  0.87046857  0.65466212  1
  Gd  Gd35  1  0.45378110  0.76006098  0.82706326  1
  N  N36  1  0.21423053  0.21679797  0.33577307  1
  N  N37  1  0.11024710  0.09869067  0.09970534  1
  N  N38  1  0.89174353  0.20267686  0.86848051  1
  N  N39  1  0.75055170  0.11015094  0.56963756  1
  N  N40  1  0.55212063  0.21244166  0.33420547  1
  N  N41  1  0.43948320  0.09713007  0.11549772  1
  N  N42  1  0.22568613  0.20166513  0.83902780  1
  N  N43  1  0.13614603  0.09157634  0.57657388  1
  N  N44  1  0.88820548  0.20653889  0.34168468  1
  N  N45  1  0.77750361  0.09313364  0.10277702  1
  N  N46  1  0.56438486  0.19928089  0.83358541  1
  N  N47  1  0.44346888  0.09981178  0.59238165  1
  N  N48  1  0.21934069  0.53443934  0.36879083  1
  N  N49  1  0.09639837  0.40805780  0.07193325  1
  N  N50  1  0.88326684  0.54344850  0.83838780  1
  N  N51  1  0.77018916  0.45227179  0.57308366  1
  N  N52  1  0.54798612  0.54316547  0.37104909  1
  N  N53  1  0.44595263  0.38630496  0.07157344  1
  N  N54  1  0.22106540  0.54108087  0.84145052  1
  N  N55  1  0.10781511  0.42808024  0.59992951  1
  N  N56  1  0.89674833  0.53478761  0.33677036  1
  N  N57  1  0.81026786  0.40788454  0.09774719  1
  N  N58  1  0.57201863  0.51310199  0.89364020  1
  N  N59  1  0.44510828  0.42719596  0.59198088  1
  N  N60  1  0.21793251  0.87535853  0.37894335  1
  N  N61  1  0.09906190  0.77908362  0.09643459  1
  N  N62  1  0.88842614  0.87366327  0.87018871  1
  N  N63  1  0.76870971  0.74601546  0.57326741  1
  N  N64  1  0.55098855  0.87783791  0.37510103  1
  N  N65  1  0.42911460  0.79079484  0.14752669  1
  N  N66  1  0.20718609  0.88334601  0.89963522  1
  N  N67  1  0.13342085  0.74972267  0.58618339  1
  N  N68  1  0.88870327  0.87147025  0.34382485  1
  N  N69  1  0.78941635  0.75014638  0.10583329  1
  N  N70  1  0.57005706  0.88573667  0.91009995  1
  N  N71  1  0.44658843  0.76389599  0.61022055  1
