# generated using pymatgen
data_Gd5Al31N36
_symmetry_space_group_name_H-M   'P 1'
_cell_length_a   9.73597508
_cell_length_b   9.74446698
_cell_length_c   10.31857019
_cell_angle_alpha   89.58622685
_cell_angle_beta   90.18636001
_cell_angle_gamma   59.76745662
_symmetry_Int_Tables_number   1
_chemical_formula_structural   Gd5Al31N36
_chemical_formula_sum   'Gd5 Al31 N36'
_cell_volume   845.74633290
_cell_formula_units_Z   1
loop_
 _symmetry_equiv_pos_site_id
 _symmetry_equiv_pos_as_xyz
  1  'x, y, z'
loop_
 _atom_site_type_symbol
 _atom_site_label
 _atom_site_symmetry_multiplicity
 _atom_site_fract_x
 _atom_site_fract_y
 _atom_site_fract_z
 _atom_site_occupancy
  Al  Al0  1  0.11535055  0.10091902  0.38894819  1
  Al  Al1  1  0.22287879  0.20199383  0.14741519  1
  Al  Al2  1  0.77699965  0.09539772  0.91492416  1
  Al  Al3  1  0.44227187  0.10061792  0.39752871  1
  Al  Al4  1  0.55675199  0.19504873  0.14668315  1
  Al  Al5  1  0.10314029  0.10855710  0.91292245  1
  Al  Al6  1  0.22992128  0.20223641  0.64834988  1
  Al  Al7  1  0.76942286  0.09969433  0.38813153  1
  Al  Al8  1  0.89426155  0.20261522  0.15199722  1
  Al  Al9  1  0.45036204  0.09755873  0.89607358  1
  Al  Al10  1  0.54992463  0.20532972  0.64720375  1
  Al  Al11  1  0.10924345  0.42717241  0.40900644  1
  Al  Al12  1  0.78631612  0.42083460  0.90127063  1
  Al  Al13  1  0.88155218  0.54251942  0.64792951  1
  Al  Al14  1  0.44294761  0.42708693  0.41452446  1
  Al  Al15  1  0.10752682  0.42520005  0.89108632  1
  Al  Al16  1  0.22458272  0.53913951  0.64950968  1
  Al  Al17  1  0.77741496  0.43367363  0.40189939  1
  Al  Al18  1  0.89236087  0.53165864  0.14748334  1
  Al  Al19  1  0.45137047  0.41221686  0.88448825  1
  Al  Al20  1  0.55824643  0.53521539  0.64473304  1
  Al  Al21  1  0.11168449  0.75741938  0.39979176  1
  Al  Al22  1  0.21229894  0.88308070  0.09249711  1
  Al  Al23  1  0.77948847  0.76362698  0.90773047  1
  Al  Al24  1  0.44389451  0.76647024  0.36037490  1
  Al  Al25  1  0.55394897  0.87969152  0.14980680  1
  Al  Al26  1  0.10024226  0.76500652  0.91081721  1
  Al  Al27  1  0.23971877  0.86661133  0.57306898  1
  Al  Al28  1  0.77535242  0.75796624  0.39261744  1
  Al  Al29  1  0.88470413  0.87428734  0.15370021  1
  Al  Al30  1  0.55670392  0.87660700  0.64136936  1
  Gd  Gd31  1  0.89513108  0.20100598  0.64758998  1
  Gd  Gd32  1  0.22275195  0.52468490  0.14979662  1
  Gd  Gd33  1  0.55938272  0.52607686  0.14439320  1
  Gd  Gd34  1  0.88361689  0.86868346  0.65072048  1
  Gd  Gd35  1  0.44363273  0.76592618  0.86642323  1
  N  N36  1  0.22352152  0.21304021  0.33530488  1
  N  N37  1  0.10889056  0.10198916  0.10288160  1
  N  N38  1  0.88936088  0.20285034  0.86569453  1
  N  N39  1  0.74755707  0.10921930  0.56794826  1
  N  N40  1  0.54661882  0.21444696  0.33372888  1
  N  N41  1  0.44442240  0.09266249  0.08614214  1
  N  N42  1  0.22468114  0.20174008  0.83772869  1
  N  N43  1  0.14208339  0.08829588  0.57417853  1
  N  N44  1  0.88723589  0.21002823  0.34293015  1
  N  N45  1  0.77672405  0.09455160  0.10322480  1
  N  N46  1  0.56326663  0.19702064  0.83330483  1
  N  N47  1  0.44342405  0.09816657  0.58476107  1
  N  N48  1  0.22235543  0.53501332  0.36781140  1
  N  N49  1  0.09718683  0.40968334  0.07431782  1
  N  N50  1  0.88385312  0.54399650  0.83689060  1
  N  N51  1  0.76884398  0.44870447  0.58350337  1
  N  N52  1  0.55137174  0.54102460  0.36398547  1
  N  N53  1  0.45798325  0.39034681  0.06364897  1
  N  N54  1  0.21801373  0.54236050  0.84246650  1
  N  N55  1  0.10744467  0.42848825  0.59727728  1
  N  N56  1  0.89189007  0.53674978  0.33616127  1
  N  N57  1  0.80445893  0.41335890  0.08513374  1
  N  N58  1  0.57629341  0.50269997  0.83477652  1
  N  N59  1  0.44404969  0.42529412  0.59958309  1
  N  N60  1  0.22375371  0.87250566  0.37587563  1
  N  N61  1  0.09639141  0.77838010  0.09943846  1
  N  N62  1  0.88545401  0.87528386  0.86973022  1
  N  N63  1  0.76307764  0.74731808  0.57383767  1
  N  N64  1  0.55434205  0.88031087  0.33769650  1
  N  N65  1  0.43215060  0.78543747  0.11231090  1
  N  N66  1  0.18910330  0.89235456  0.89539734  1
  N  N67  1  0.13485375  0.75038010  0.58584920  1
  N  N68  1  0.88738378  0.87110094  0.34392287  1
  N  N69  1  0.77608956  0.75768029  0.09638968  1
  N  N70  1  0.57844876  0.89130338  0.82755657  1
  N  N71  1  0.44909880  0.76068134  0.62458091  1
