# generated using pymatgen
data_Gd5Al31N36
_symmetry_space_group_name_H-M   'P 1'
_cell_length_a   9.68599557
_cell_length_b   9.68479171
_cell_length_c   10.29642530
_cell_angle_alpha   89.89981098
_cell_angle_beta   90.00730962
_cell_angle_gamma   59.89538258
_symmetry_Int_Tables_number   1
_chemical_formula_structural   Gd5Al31N36
_chemical_formula_sum   'Gd5 Al31 N36'
_cell_volume   835.58743667
_cell_formula_units_Z   1
loop_
 _symmetry_equiv_pos_site_id
 _symmetry_equiv_pos_as_xyz
  1  'x, y, z'
loop_
 _atom_site_type_symbol
 _atom_site_label
 _atom_site_symmetry_multiplicity
 _atom_site_fract_x
 _atom_site_fract_y
 _atom_site_fract_z
 _atom_site_occupancy
  Al  Al0  1  0.11054944  0.09675910  0.28929736  1
  Al  Al1  1  0.22193119  0.20288515  0.05168561  1
  Al  Al2  1  0.77115065  0.09828829  0.81041437  1
  Al  Al3  1  0.44436219  0.09688547  0.29820573  1
  Al  Al4  1  0.55491568  0.19924973  0.04833759  1
  Al  Al5  1  0.11480819  0.09347629  0.80836974  1
  Al  Al6  1  0.23185391  0.19833355  0.55115343  1
  Al  Al7  1  0.77452584  0.09564488  0.28381042  1
  Al  Al8  1  0.89430456  0.20306527  0.04698538  1
  Al  Al9  1  0.44696975  0.09966851  0.80186205  1
  Al  Al10  1  0.55099950  0.20407830  0.54865847  1
  Al  Al11  1  0.10736608  0.42478177  0.30676148  1
  Al  Al12  1  0.77822379  0.42784812  0.79678033  1
  Al  Al13  1  0.88022217  0.54201727  0.54994493  1
  Al  Al14  1  0.44595600  0.41924050  0.30847112  1
  Al  Al15  1  0.11014664  0.42528692  0.79038316  1
  Al  Al16  1  0.22656040  0.53637473  0.54976737  1
  Al  Al17  1  0.78474391  0.42457774  0.29365623  1
  Al  Al18  1  0.89304436  0.53197675  0.04901904  1
  Al  Al19  1  0.44790527  0.42089278  0.78300986  1
  Al  Al20  1  0.55661444  0.53757739  0.53417708  1
  Al  Al21  1  0.10654952  0.76862279  0.29535947  1
  Al  Al22  1  0.21330704  0.88623297  0.05540580  1
  Al  Al23  1  0.77753662  0.76041370  0.80856296  1
  Al  Al24  1  0.44025022  0.77149664  0.30789248  1
  Al  Al25  1  0.55313770  0.88321314  0.05568712  1
  Al  Al26  1  0.11383021  0.76194754  0.79722872  1
  Al  Al27  1  0.23089564  0.86892062  0.53776204  1
  Al  Al28  1  0.77847487  0.75992241  0.28967460  1
  Al  Al29  1  0.88744578  0.87539064  0.04757480  1
  Al  Al30  1  0.55542219  0.87316763  0.53811847  1
  Gd  Gd31  1  0.89847753  0.20057108  0.55346818  1
  Gd  Gd32  1  0.21722701  0.53584708  0.04829646  1
  Gd  Gd33  1  0.55331583  0.54180744  0.05938705  1
  Gd  Gd34  1  0.88659745  0.86563251  0.55340136  1
  Gd  Gd35  1  0.44122065  0.77209533  0.78187424  1
  N  N36  1  0.22284778  0.20164642  0.36222313  1
  N  N37  1  0.10958892  0.09989379  0.10452673  1
  N  N38  1  0.89083455  0.20694121  0.85346658  1
  N  N39  1  0.74958525  0.10809403  0.62906260  1
  N  N40  1  0.56041578  0.19812139  0.36211205  1
  N  N41  1  0.44182667  0.09902957  0.11166794  1
  N  N42  1  0.22415789  0.20799502  0.86123624  1
  N  N43  1  0.15372416  0.06905249  0.62453471  1
  N  N44  1  0.88818336  0.20236178  0.33456183  1
  N  N45  1  0.77538407  0.09577433  0.09498511  1
  N  N46  1  0.54890962  0.21187995  0.86145813  1
  N  N47  1  0.44766993  0.09117738  0.60990222  1
  N  N48  1  0.21721956  0.54245576  0.35695152  1
  N  N49  1  0.09862773  0.41126164  0.12243837  1
  N  N50  1  0.89201174  0.53577745  0.86011294  1
  N  N51  1  0.76311290  0.45016472  0.61105967  1
  N  N52  1  0.55890518  0.53580744  0.34384382  1
  N  N53  1  0.45551931  0.39572874  0.12939974  1
  N  N54  1  0.22436354  0.53450190  0.82827029  1
  N  N55  1  0.10693128  0.42576228  0.60198254  1
  N  N56  1  0.88490048  0.54232684  0.36152870  1
  N  N57  1  0.80382392  0.41370213  0.11074232  1
  N  N58  1  0.56215094  0.51789747  0.84161626  1
  N  N59  1  0.44736661  0.42432600  0.59366477  1
  N  N60  1  0.21274006  0.88063614  0.35407456  1
  N  N61  1  0.09838811  0.78851341  0.11390604  1
  N  N62  1  0.89282295  0.86806454  0.85418160  1
  N  N63  1  0.75590526  0.74890856  0.62336080  1
  N  N64  1  0.56136455  0.87662428  0.35263029  1
  N  N65  1  0.42603835  0.79857249  0.11997960  1
  N  N66  1  0.19882555  0.88219044  0.87264013  1
  N  N67  1  0.14393225  0.75087993  0.61285608  1
  N  N68  1  0.88377954  0.87533704  0.33475364  1
  N  N69  1  0.78078046  0.75596118  0.10323196  1
  N  N70  1  0.56705852  0.88973752  0.87225898  1
  N  N71  1  0.44929770  0.75793524  0.56222190  1
