# generated using pymatgen
data_Gd5Al31N36
_symmetry_space_group_name_H-M   'P 1'
_cell_length_a   9.72051565
_cell_length_b   9.75206499
_cell_length_c   10.41800043
_cell_angle_alpha   89.63849130
_cell_angle_beta   89.66042423
_cell_angle_gamma   59.78748639
_symmetry_Int_Tables_number   1
_chemical_formula_structural   Gd5Al31N36
_chemical_formula_sum   'Gd5 Al31 N36'
_cell_volume   853.40669877
_cell_formula_units_Z   1
loop_
 _symmetry_equiv_pos_site_id
 _symmetry_equiv_pos_as_xyz
  1  'x, y, z'
loop_
 _atom_site_type_symbol
 _atom_site_label
 _atom_site_symmetry_multiplicity
 _atom_site_fract_x
 _atom_site_fract_y
 _atom_site_fract_z
 _atom_site_occupancy
  Al  Al0  1  0.11217925  0.10265754  0.39131703  1
  Al  Al1  1  0.22202951  0.20219330  0.14778876  1
  Al  Al2  1  0.77793943  0.09579211  0.91761567  1
  Al  Al3  1  0.43794893  0.10609633  0.39446636  1
  Al  Al4  1  0.55585226  0.19317722  0.15086476  1
  Al  Al5  1  0.10882375  0.10531020  0.91317726  1
  Al  Al6  1  0.22953808  0.20229238  0.65112826  1
  Al  Al7  1  0.77104104  0.09740958  0.39168357  1
  Al  Al8  1  0.89787325  0.19801144  0.15470919  1
  Al  Al9  1  0.45246911  0.09379510  0.90143437  1
  Al  Al10  1  0.54872742  0.20874685  0.64799262  1
  Al  Al11  1  0.10897662  0.42639680  0.41301562  1
  Al  Al12  1  0.79245313  0.41845777  0.91385469  1
  Al  Al13  1  0.88068790  0.54272079  0.64949712  1
  Al  Al14  1  0.43801812  0.42071654  0.40678523  1
  Al  Al15  1  0.11041228  0.42398411  0.89134962  1
  Al  Al16  1  0.22612889  0.53984329  0.65146845  1
  Al  Al17  1  0.78547380  0.42866468  0.39178731  1
  Al  Al18  1  0.89588188  0.52905432  0.15061839  1
  Al  Al19  1  0.45042024  0.41217472  0.89584826  1
  Al  Al20  1  0.54982837  0.54865174  0.56559115  1
  Al  Al21  1  0.10779183  0.75822434  0.40297067  1
  Al  Al22  1  0.21879743  0.88200801  0.08933819  1
  Al  Al23  1  0.78074675  0.76193953  0.91577577  1
  Al  Al24  1  0.43081865  0.77367109  0.33355490  1
  Al  Al25  1  0.55635046  0.87988538  0.15164409  1
  Al  Al26  1  0.10592923  0.76502710  0.91258280  1
  Al  Al27  1  0.23140844  0.87148754  0.56600578  1
  Al  Al28  1  0.78216624  0.75497868  0.38914933  1
  Al  Al29  1  0.88737751  0.87609724  0.15396634  1
  Al  Al30  1  0.55214630  0.87614573  0.58848277  1
  Gd  Gd31  1  0.88713680  0.21005298  0.65089661  1
  Gd  Gd32  1  0.21168683  0.53039887  0.15358286  1
  Gd  Gd33  1  0.55580809  0.52710808  0.12540763  1
  Gd  Gd34  1  0.87838919  0.86996035  0.65848188  1
  Gd  Gd35  1  0.45096193  0.75657908  0.82878426  1
  N  N36  1  0.22047096  0.21435299  0.33565354  1
  N  N37  1  0.11106327  0.10059965  0.10147961  1
  N  N38  1  0.89294233  0.20191219  0.86782571  1
  N  N39  1  0.74932634  0.10772030  0.57035619  1
  N  N40  1  0.54951196  0.21039868  0.33519801  1
  N  N41  1  0.44464402  0.09105525  0.09222266  1
  N  N42  1  0.22803718  0.20098615  0.83826228  1
  N  N43  1  0.13701883  0.09220102  0.57663501  1
  N  N44  1  0.88845553  0.20655003  0.34315438  1
  N  N45  1  0.77570582  0.09586239  0.10415781  1
  N  N46  1  0.56316869  0.19917987  0.83404258  1
  N  N47  1  0.44134251  0.10241383  0.58112620  1
  N  N48  1  0.21882885  0.53579773  0.36934161  1
  N  N49  1  0.09772749  0.40778313  0.07222389  1
  N  N50  1  0.88563218  0.54185923  0.83848556  1
  N  N51  1  0.77007766  0.45183740  0.57384653  1
  N  N52  1  0.54850011  0.54177968  0.37134280  1
  N  N53  1  0.44539083  0.38653437  0.07417631  1
  N  N54  1  0.22160252  0.54183892  0.84263975  1
  N  N55  1  0.10822117  0.42801742  0.59960809  1
  N  N56  1  0.89741055  0.53496879  0.33556122  1
  N  N57  1  0.81077043  0.40805194  0.09801206  1
  N  N58  1  0.57484917  0.50818354  0.89297185  1
  N  N59  1  0.44441710  0.42687312  0.59230683  1
  N  N60  1  0.21562593  0.87602071  0.37954456  1
  N  N61  1  0.09877287  0.78125077  0.09849319  1
  N  N62  1  0.88918692  0.87387161  0.87491060  1
  N  N63  1  0.76923751  0.74399921  0.56964647  1
  N  N64  1  0.55431518  0.88084085  0.35162338  1
  N  N65  1  0.42658704  0.79038863  0.14934469  1
  N  N66  1  0.20451327  0.88613394  0.90008535  1
  N  N67  1  0.13049946  0.75182129  0.58839753  1
  N  N68  1  0.88826735  0.87167222  0.34262207  1
  N  N69  1  0.78085782  0.75509438  0.10420269  1
  N  N70  1  0.57843914  0.88525943  0.85170674  1
  N  N71  1  0.44544200  0.76347371  0.60673005  1
