# generated using pymatgen
data_Gd5Al31N36
_symmetry_space_group_name_H-M   'P 1'
_cell_length_a   9.70536913
_cell_length_b   9.71814221
_cell_length_c   10.50305907
_cell_angle_alpha   89.56543437
_cell_angle_beta   89.11943769
_cell_angle_gamma   60.21790813
_symmetry_Int_Tables_number   1
_chemical_formula_structural   Gd5Al31N36
_chemical_formula_sum   'Gd5 Al31 N36'
_cell_volume   859.68607367
_cell_formula_units_Z   1
loop_
 _symmetry_equiv_pos_site_id
 _symmetry_equiv_pos_as_xyz
  1  'x, y, z'
loop_
 _atom_site_type_symbol
 _atom_site_label
 _atom_site_symmetry_multiplicity
 _atom_site_fract_x
 _atom_site_fract_y
 _atom_site_fract_z
 _atom_site_occupancy
  Al  Al0  1  0.11190005  0.09902554  0.33686962  1
  Al  Al1  1  0.22504669  0.19779280  0.08096968  1
  Al  Al2  1  0.79566016  0.08198798  0.91894232  1
  Al  Al3  1  0.43291021  0.10259866  0.32929378  1
  Al  Al4  1  0.55287252  0.19906262  0.08473838  1
  Al  Al5  1  0.12588881  0.08221006  0.84096337  1
  Al  Al6  1  0.23160977  0.19521813  0.59107588  1
  Al  Al7  1  0.76375185  0.10150031  0.39460717  1
  Al  Al8  1  0.89061182  0.20200626  0.15698230  1
  Al  Al9  1  0.45715230  0.09028207  0.83494842  1
  Al  Al10  1  0.53554343  0.21272091  0.57415586  1
  Al  Al11  1  0.10706276  0.43707232  0.41110083  1
  Al  Al12  1  0.80007635  0.40867492  0.91428548  1
  Al  Al13  1  0.87677808  0.54265533  0.64975148  1
  Al  Al14  1  0.43108284  0.42502523  0.33475121  1
  Al  Al15  1  0.10802135  0.41846313  0.89190637  1
  Al  Al16  1  0.22832048  0.52998511  0.65562772  1
  Al  Al17  1  0.77901772  0.43192014  0.39305437  1
  Al  Al18  1  0.90180048  0.52991224  0.15615337  1
  Al  Al19  1  0.47079174  0.40532019  0.82984760  1
  Al  Al20  1  0.54145309  0.54620686  0.56169536  1
  Al  Al21  1  0.10635784  0.77007206  0.33824014  1
  Al  Al22  1  0.20833732  0.89481733  0.09445851  1
  Al  Al23  1  0.79355008  0.75413641  0.91916339  1
  Al  Al24  1  0.42800721  0.78054780  0.33668173  1
  Al  Al25  1  0.54906969  0.88538627  0.09181315  1
  Al  Al26  1  0.11887127  0.76341363  0.83794861  1
  Al  Al27  1  0.22947570  0.86873662  0.57932288  1
  Al  Al28  1  0.77355031  0.75563178  0.39382003  1
  Al  Al29  1  0.87568382  0.88277678  0.16457838  1
  Al  Al30  1  0.54268148  0.87726956  0.56652173  1
  Gd  Gd31  1  0.88109728  0.21508537  0.64484425  1
  Gd  Gd32  1  0.21976650  0.55369932  0.09152776  1
  Gd  Gd33  1  0.56210712  0.54053444  0.11775197  1
  Gd  Gd34  1  0.87909557  0.86853347  0.64188521  1
  Gd  Gd35  1  0.45648329  0.75361636  0.82767614  1
  N  N36  1  0.21832709  0.20506156  0.40214404  1
  N  N37  1  0.11475665  0.10268745  0.15351170  1
  N  N38  1  0.89958674  0.19469656  0.86276753  1
  N  N39  1  0.75272165  0.10704223  0.57322043  1
  N  N40  1  0.53241269  0.21349901  0.39231499  1
  N  N41  1  0.43985192  0.09934717  0.14564710  1
  N  N42  1  0.23605164  0.18929178  0.89167296  1
  N  N43  1  0.15003333  0.06966312  0.65686413  1
  N  N44  1  0.87744289  0.21124944  0.34525002  1
  N  N45  1  0.77961205  0.09303318  0.10218341  1
  N  N46  1  0.56223902  0.19779814  0.89645817  1
  N  N47  1  0.45017411  0.08915489  0.64687410  1
  N  N48  1  0.21039810  0.54852605  0.36255245  1
  N  N49  1  0.09926793  0.41919764  0.07616668  1
  N  N50  1  0.88626497  0.53734939  0.83834165  1
  N  N51  1  0.76321882  0.45564219  0.57259942  1
  N  N52  1  0.54232168  0.54608007  0.37233513  1
  N  N53  1  0.45792844  0.39335734  0.15867843  1
  N  N54  1  0.22973053  0.52698607  0.85399969  1
  N  N55  1  0.10614311  0.43134776  0.60238901  1
  N  N56  1  0.89307018  0.53637884  0.33818863  1
  N  N57  1  0.81855426  0.40641335  0.09498226  1
  N  N58  1  0.57635608  0.50459442  0.89587722  1
  N  N59  1  0.45446541  0.42086182  0.64248730  1
  N  N60  1  0.20890177  0.88358700  0.39875947  1
  N  N61  1  0.09426249  0.80306574  0.16021376  1
  N  N62  1  0.89603566  0.86573074  0.86366933  1
  N  N63  1  0.76279246  0.74289132  0.57626733  1
  N  N64  1  0.54266140  0.88485857  0.38393888  1
  N  N65  1  0.42112342  0.80256495  0.15345236  1
  N  N66  1  0.20619060  0.87684731  0.91336472  1
  N  N67  1  0.14676572  0.74954578  0.65581065  1
  N  N68  1  0.87178324  0.87915431  0.35217494  1
  N  N69  1  0.78678124  0.75299992  0.10507141  1
  N  N70  1  0.57072585  0.88416661  0.90782084  1
  N  N71  1  0.44665308  0.75782082  0.61172282  1
