# generated using pymatgen
data_Gd5Al31N36
_symmetry_space_group_name_H-M   'P 1'
_cell_length_a   9.69366154
_cell_length_b   9.71072839
_cell_length_c   10.51135332
_cell_angle_alpha   89.53786650
_cell_angle_beta   89.25739608
_cell_angle_gamma   60.02874437
_symmetry_Int_Tables_number   1
_chemical_formula_structural   Gd5Al31N36
_chemical_formula_sum   'Gd5 Al31 N36'
_cell_volume   857.07224864
_cell_formula_units_Z   1
loop_
 _symmetry_equiv_pos_site_id
 _symmetry_equiv_pos_as_xyz
  1  'x, y, z'
loop_
 _atom_site_type_symbol
 _atom_site_label
 _atom_site_symmetry_multiplicity
 _atom_site_fract_x
 _atom_site_fract_y
 _atom_site_fract_z
 _atom_site_occupancy
  Al  Al0  1  0.11191255  0.09820638  0.30794479  1
  Al  Al1  1  0.22128900  0.20348867  0.05469092  1
  Al  Al2  1  0.79597074  0.08195411  0.89384694  1
  Al  Al3  1  0.43332384  0.10258332  0.30069419  1
  Al  Al4  1  0.54993019  0.20163176  0.05908265  1
  Al  Al5  1  0.12729106  0.08103091  0.81669821  1
  Al  Al6  1  0.23236935  0.19358121  0.56314457  1
  Al  Al7  1  0.76465565  0.10176014  0.36828007  1
  Al  Al8  1  0.89111126  0.20274348  0.12881436  1
  Al  Al9  1  0.45748478  0.09141273  0.80961774  1
  Al  Al10  1  0.53589693  0.21268914  0.54718203  1
  Al  Al11  1  0.10383787  0.43188291  0.36888011  1
  Al  Al12  1  0.80228135  0.40897887  0.88788813  1
  Al  Al13  1  0.87183551  0.54505246  0.62225854  1
  Al  Al14  1  0.43158595  0.42532581  0.31112062  1
  Al  Al15  1  0.11891512  0.41752596  0.80773306  1
  Al  Al16  1  0.22854873  0.54009925  0.56840591  1
  Al  Al17  1  0.77671941  0.43182772  0.36683958  1
  Al  Al18  1  0.89973394  0.53092501  0.13370163  1
  Al  Al19  1  0.46306480  0.41038320  0.79694804  1
  Al  Al20  1  0.54210949  0.54694372  0.53529555  1
  Al  Al21  1  0.10652027  0.77089792  0.31801424  1
  Al  Al22  1  0.20982146  0.88973836  0.06821366  1
  Al  Al23  1  0.79703218  0.75246589  0.89452818  1
  Al  Al24  1  0.42922744  0.77990523  0.30862400  1
  Al  Al25  1  0.55052295  0.88477674  0.06506401  1
  Al  Al26  1  0.12525522  0.75539658  0.80477030  1
  Al  Al27  1  0.22862366  0.87149812  0.55276268  1
  Al  Al28  1  0.77134885  0.75872262  0.36914816  1
  Al  Al29  1  0.87841325  0.88092563  0.13974266  1
  Al  Al30  1  0.54100656  0.87842623  0.54038812  1
  Gd  Gd31  1  0.88124915  0.21542294  0.62124275  1
  Gd  Gd32  1  0.21429466  0.55141522  0.05047593  1
  Gd  Gd33  1  0.55773673  0.53916185  0.08690594  1
  Gd  Gd34  1  0.87338358  0.87230534  0.62096405  1
  Gd  Gd35  1  0.45918309  0.75342091  0.80131897  1
  N  N36  1  0.21753837  0.20486004  0.37686077  1
  N  N37  1  0.11582994  0.09890545  0.12460522  1
  N  N38  1  0.90127042  0.19365569  0.83846494  1
  N  N39  1  0.75330361  0.10875946  0.54651455  1
  N  N40  1  0.53259629  0.21240430  0.36560779  1
  N  N41  1  0.44044617  0.09806784  0.11814874  1
  N  N42  1  0.23238988  0.19659127  0.86528420  1
  N  N43  1  0.15086362  0.07015574  0.63191194  1
  N  N44  1  0.87763489  0.21175350  0.31738642  1
  N  N45  1  0.77924972  0.09329273  0.07693063  1
  N  N46  1  0.56123869  0.20075367  0.86904645  1
  N  N47  1  0.45069603  0.08926469  0.62060813  1
  N  N48  1  0.21366252  0.54939872  0.37823490  1
  N  N49  1  0.10865592  0.41398797  0.09439046  1
  N  N50  1  0.88591075  0.53868506  0.81055533  1
  N  N51  1  0.76310321  0.45493360  0.54587970  1
  N  N52  1  0.54132592  0.54655011  0.34590728  1
  N  N53  1  0.44834318  0.39730864  0.13598160  1
  N  N54  1  0.23262588  0.52778499  0.83145347  1
  N  N55  1  0.10819233  0.42486503  0.59539648  1
  N  N56  1  0.88650373  0.54054074  0.31608232  1
  N  N57  1  0.81695235  0.40879039  0.06804042  1
  N  N58  1  0.57741009  0.50261369  0.86541675  1
  N  N59  1  0.45149301  0.42391381  0.60920647  1
  N  N60  1  0.21046717  0.88445621  0.37239244  1
  N  N61  1  0.10043396  0.79365468  0.14026074  1
  N  N62  1  0.90059911  0.86344097  0.83990822  1
  N  N63  1  0.76159399  0.74480125  0.55014932  1
  N  N64  1  0.54102499  0.88607402  0.35800442  1
  N  N65  1  0.42402664  0.80018816  0.12630111  1
  N  N66  1  0.20809402  0.87282847  0.88597004  1
  N  N67  1  0.14205013  0.75229325  0.62208929  1
  N  N68  1  0.87229646  0.87904859  0.32708794  1
  N  N69  1  0.78839811  0.75281795  0.07988158  1
  N  N70  1  0.57281855  0.88453580  0.88156299  1
  N  N71  1  0.44627111  0.75829533  0.58601709  1
