# generated using pymatgen
data_Gd5Al31N36
_symmetry_space_group_name_H-M   'P 1'
_cell_length_a   9.68599647
_cell_length_b   9.68478787
_cell_length_c   10.29642253
_cell_angle_alpha   89.89983667
_cell_angle_beta   90.00733210
_cell_angle_gamma   59.89538877
_symmetry_Int_Tables_number   1
_chemical_formula_structural   Gd5Al31N36
_chemical_formula_sum   'Gd5 Al31 N36'
_cell_volume   835.58701216
_cell_formula_units_Z   1
loop_
 _symmetry_equiv_pos_site_id
 _symmetry_equiv_pos_as_xyz
  1  'x, y, z'
loop_
 _atom_site_type_symbol
 _atom_site_label
 _atom_site_symmetry_multiplicity
 _atom_site_fract_x
 _atom_site_fract_y
 _atom_site_fract_z
 _atom_site_occupancy
  Al  Al0  1  0.11054331  0.09673210  0.29554954  1
  Al  Al1  1  0.22192513  0.20285873  0.05794224  1
  Al  Al2  1  0.77114473  0.09826165  0.81666655  1
  Al  Al3  1  0.44435628  0.09685860  0.30445934  1
  Al  Al4  1  0.55491031  0.19922338  0.05459126  1
  Al  Al5  1  0.11480269  0.09344947  0.81462639  1
  Al  Al6  1  0.23184888  0.19830539  0.55741028  1
  Al  Al7  1  0.77452026  0.09561761  0.29006453  1
  Al  Al8  1  0.89429777  0.20303894  0.05323813  1
  Al  Al9  1  0.44696371  0.09964207  0.80811904  1
  Al  Al10  1  0.55099377  0.20405062  0.55491256  1
  Al  Al11  1  0.10736007  0.42475466  0.31301771  1
  Al  Al12  1  0.77821738  0.42782161  0.80303219  1
  Al  Al13  1  0.88021569  0.54199078  0.55620047  1
  Al  Al14  1  0.44595038  0.41921322  0.31472670  1
  Al  Al15  1  0.11014084  0.42526012  0.79663664  1
  Al  Al16  1  0.22655438  0.53634783  0.55602088  1
  Al  Al17  1  0.78473798  0.42455069  0.29991186  1
  Al  Al18  1  0.89303877  0.53194873  0.05527318  1
  Al  Al19  1  0.44789910  0.42086670  0.78926254  1
  Al  Al20  1  0.55660871  0.53754979  0.54043124  1
  Al  Al21  1  0.10654337  0.76859566  0.30161091  1
  Al  Al22  1  0.21330214  0.88620497  0.06165857  1
  Al  Al23  1  0.77753042  0.76038677  0.81481927  1
  Al  Al24  1  0.44024475  0.77146891  0.31414857  1
  Al  Al25  1  0.55313127  0.88318601  0.06194135  1
  Al  Al26  1  0.11382469  0.76192055  0.80348058  1
  Al  Al27  1  0.23088930  0.86889387  0.54401395  1
  Al  Al28  1  0.77846972  0.75989520  0.29592616  1
  Al  Al29  1  0.88744026  0.87536393  0.05382589  1
  Al  Al30  1  0.55541680  0.87314071  0.54437092  1
  Gd  Gd31  1  0.89847397  0.20054255  0.55972228  1
  Gd  Gd32  1  0.21722174  0.53581853  0.05454995  1
  Gd  Gd33  1  0.55330993  0.54178077  0.06564034  1
  Gd  Gd34  1  0.88659100  0.86560439  0.55965456  1
  Gd  Gd35  1  0.44121445  0.77207025  0.78812582  1
  N  N36  1  0.22284215  0.20161851  0.36847858  1
  N  N37  1  0.10958270  0.09986645  0.11077909  1
  N  N38  1  0.89082816  0.20691482  0.85971983  1
  N  N39  1  0.74958018  0.10806658  0.63531519  1
  N  N40  1  0.56041012  0.19809376  0.36836626  1
  N  N41  1  0.44182096  0.09900304  0.11792165  1
  N  N42  1  0.22415193  0.20796906  0.86749218  1
  N  N43  1  0.15371990  0.06902383  0.63079097  1
  N  N44  1  0.88817797  0.20233432  0.34081612  1
  N  N45  1  0.77537853  0.09574713  0.10123869  1
  N  N46  1  0.54890419  0.21185395  0.86771171  1
  N  N47  1  0.44766478  0.09114975  0.61615804  1
  N  N48  1  0.21721362  0.54242886  0.36320557  1
  N  N49  1  0.09862141  0.41123479  0.12869435  1
  N  N50  1  0.89200616  0.53574981  0.86636682  1
  N  N51  1  0.76310719  0.45013677  0.61731245  1
  N  N52  1  0.55889964  0.53577969  0.35009862  1
  N  N53  1  0.45551381  0.39570208  0.13565474  1
  N  N54  1  0.22435758  0.53447532  0.83452343  1
  N  N55  1  0.10692526  0.42573509  0.60823656  1
  N  N56  1  0.88489419  0.54230070  0.36778375  1
  N  N57  1  0.80381768  0.41367509  0.11699739  1
  N  N58  1  0.56214447  0.51787211  0.84786863  1
  N  N59  1  0.44736062  0.42429874  0.59991800  1
  N  N60  1  0.21273337  0.88060936  0.36032693  1
  N  N61  1  0.09838254  0.78848549  0.12015771  1
  N  N62  1  0.89281719  0.86803806  0.86043407  1
  N  N63  1  0.75589810  0.74888170  0.62961664  1
  N  N64  1  0.56135972  0.87659720  0.35888312  1
  N  N65  1  0.42603252  0.79854527  0.12623483  1
  N  N66  1  0.19882048  0.88216259  0.87889336  1
  N  N67  1  0.14392607  0.75085328  0.61910850  1
  N  N68  1  0.88377411  0.87530956  0.34100660  1
  N  N69  1  0.78077503  0.75593399  0.10948383  1
  N  N70  1  0.56705218  0.88971086  0.87851395  1
  N  N71  1  0.44929164  0.75790843  0.56847302  1
