# generated using pymatgen
data_Gd5Al31N36
_symmetry_space_group_name_H-M   'P 1'
_cell_length_a   9.68817998
_cell_length_b   9.71002765
_cell_length_c   10.54542722
_cell_angle_alpha   89.48473765
_cell_angle_beta   89.09825429
_cell_angle_gamma   60.00442784
_symmetry_Int_Tables_number   1
_chemical_formula_structural   Gd5Al31N36
_chemical_formula_sum   'Gd5 Al31 N36'
_cell_volume   859.05841167
_cell_formula_units_Z   1
loop_
 _symmetry_equiv_pos_site_id
 _symmetry_equiv_pos_as_xyz
  1  'x, y, z'
loop_
 _atom_site_type_symbol
 _atom_site_label
 _atom_site_symmetry_multiplicity
 _atom_site_fract_x
 _atom_site_fract_y
 _atom_site_fract_z
 _atom_site_occupancy
  Al  Al0  1  0.11227047  0.09829321  0.32721013  1
  Al  Al1  1  0.22487083  0.19695268  0.07190359  1
  Al  Al2  1  0.79543628  0.08186262  0.91169774  1
  Al  Al3  1  0.43429366  0.10183347  0.32021944  1
  Al  Al4  1  0.54982821  0.20153983  0.07659799  1
  Al  Al5  1  0.12715685  0.08010680  0.83408926  1
  Al  Al6  1  0.23156256  0.19510677  0.58106640  1
  Al  Al7  1  0.76480178  0.10157647  0.38802116  1
  Al  Al8  1  0.88989546  0.20246125  0.14829524  1
  Al  Al9  1  0.45692761  0.09077735  0.82715523  1
  Al  Al10  1  0.53593470  0.21263275  0.56654292  1
  Al  Al11  1  0.10210876  0.43332629  0.40342217  1
  Al  Al12  1  0.79972996  0.40861796  0.90599491  1
  Al  Al13  1  0.87875790  0.54192156  0.64148046  1
  Al  Al14  1  0.43366532  0.42487694  0.33073705  1
  Al  Al15  1  0.11111569  0.41914059  0.88181091  1
  Al  Al16  1  0.22795932  0.54015223  0.58460281  1
  Al  Al17  1  0.77922217  0.43152201  0.38422814  1
  Al  Al18  1  0.89997701  0.53044663  0.14700604  1
  Al  Al19  1  0.45921963  0.41127692  0.81711127  1
  Al  Al20  1  0.54370758  0.54657417  0.55378769  1
  Al  Al21  1  0.10624088  0.77292182  0.33625944  1
  Al  Al22  1  0.20918349  0.89232316  0.08622705  1
  Al  Al23  1  0.79577524  0.75331958  0.91199177  1
  Al  Al24  1  0.42977498  0.77990487  0.32765511  1
  Al  Al25  1  0.55038861  0.88485415  0.08322923  1
  Al  Al26  1  0.12500161  0.75318526  0.82497600  1
  Al  Al27  1  0.22905340  0.87111356  0.57178438  1
  Al  Al28  1  0.77395331  0.75631126  0.38683940  1
  Al  Al29  1  0.87667099  0.88273671  0.15843845  1
  Al  Al30  1  0.54280307  0.87727676  0.55839682  1
  Gd  Gd31  1  0.88041700  0.21643721  0.64011951  1
  Gd  Gd32  1  0.21657257  0.55577675  0.07663118  1
  Gd  Gd33  1  0.55722948  0.53965993  0.10573882  1
  Gd  Gd34  1  0.87461055  0.87115418  0.63932738  1
  Gd  Gd35  1  0.45854617  0.75316625  0.81936625  1
  N  N36  1  0.21907207  0.20359858  0.39252726  1
  N  N37  1  0.11493163  0.10113650  0.14455295  1
  N  N38  1  0.90072993  0.19358972  0.85668172  1
  N  N39  1  0.75384412  0.10825172  0.56555166  1
  N  N40  1  0.53306937  0.21222825  0.38526495  1
  N  N41  1  0.44005516  0.09876284  0.13760613  1
  N  N42  1  0.23649993  0.18797526  0.88523604  1
  N  N43  1  0.15016902  0.07082925  0.64982891  1
  N  N44  1  0.87757703  0.21119684  0.33573778  1
  N  N45  1  0.77855274  0.09371894  0.09444366  1
  N  N46  1  0.56022205  0.20043422  0.88765439  1
  N  N47  1  0.45046608  0.08899084  0.63876238  1
  N  N48  1  0.21503952  0.55112304  0.39152041  1
  N  N49  1  0.09856234  0.41853488  0.06950548  1
  N  N50  1  0.88716440  0.53659865  0.82992094  1
  N  N51  1  0.76534385  0.45531380  0.56301696  1
  N  N52  1  0.54323539  0.54632551  0.36433491  1
  N  N53  1  0.44963182  0.39553561  0.15605063  1
  N  N54  1  0.23164774  0.52816156  0.85877641  1
  N  N55  1  0.10400217  0.42943412  0.59054952  1
  N  N56  1  0.89334019  0.53694230  0.32844836  1
  N  N57  1  0.81503042  0.40823340  0.08691136  1
  N  N58  1  0.57538542  0.50271800  0.88489942  1
  N  N59  1  0.45032457  0.42445952  0.62861073  1
  N  N60  1  0.21071016  0.88467110  0.39176737  1
  N  N61  1  0.09796059  0.79916225  0.15916733  1
  N  N62  1  0.89937352  0.86389932  0.85744441  1
  N  N63  1  0.76394599  0.74269696  0.56773593  1
  N  N64  1  0.54318687  0.88444964  0.37623993  1
  N  N65  1  0.42318815  0.80113442  0.14535284  1
  N  N66  1  0.20725542  0.87249013  0.90487906  1
  N  N67  1  0.14383878  0.75039380  0.64225721  1
  N  N68  1  0.87203249  0.87938159  0.34513260  1
  N  N69  1  0.78827772  0.75345693  0.09730421  1
  N  N70  1  0.57220560  0.88392289  0.90016760  1
  N  N71  1  0.44697861  0.75810259  0.60445903  1
