# generated using pymatgen
data_Gd5Al31N36
_symmetry_space_group_name_H-M   'P 1'
_cell_length_a   9.68407353
_cell_length_b   9.69793192
_cell_length_c   10.52556205
_cell_angle_alpha   89.61854235
_cell_angle_beta   89.29561443
_cell_angle_gamma   60.03038030
_symmetry_Int_Tables_number   1
_chemical_formula_structural   Gd5Al31N36
_chemical_formula_sum   'Gd5 Al31 N36'
_cell_volume   856.27469448
_cell_formula_units_Z   1
loop_
 _symmetry_equiv_pos_site_id
 _symmetry_equiv_pos_as_xyz
  1  'x, y, z'
loop_
 _atom_site_type_symbol
 _atom_site_label
 _atom_site_symmetry_multiplicity
 _atom_site_fract_x
 _atom_site_fract_y
 _atom_site_fract_z
 _atom_site_occupancy
  Al  Al0  1  0.11203257  0.09760431  0.30847875  1
  Al  Al1  1  0.22070501  0.20439796  0.05917960  1
  Al  Al2  1  0.79593577  0.08236008  0.89359268  1
  Al  Al3  1  0.43427948  0.10138547  0.30154690  1
  Al  Al4  1  0.55002247  0.20200331  0.05886537  1
  Al  Al5  1  0.12724067  0.08286454  0.81756341  1
  Al  Al6  1  0.22993735  0.19802574  0.56114383  1
  Al  Al7  1  0.76482749  0.10183671  0.36815681  1
  Al  Al8  1  0.89163576  0.20264247  0.12875301  1
  Al  Al9  1  0.45595908  0.09322665  0.81041408  1
  Al  Al10  1  0.53562976  0.21289578  0.54719758  1
  Al  Al11  1  0.11125805  0.42555113  0.32248380  1
  Al  Al12  1  0.80260236  0.40971053  0.88639062  1
  Al  Al13  1  0.87330484  0.54445359  0.62171308  1
  Al  Al14  1  0.43176534  0.42588698  0.31101836  1
  Al  Al15  1  0.12081099  0.41790987  0.79515869  1
  Al  Al16  1  0.22586476  0.53763233  0.56431656  1
  Al  Al17  1  0.77653133  0.43246137  0.36813052  1
  Al  Al18  1  0.89449645  0.53339529  0.13513309  1
  Al  Al19  1  0.46192937  0.41127786  0.79724220  1
  Al  Al20  1  0.54142959  0.54671433  0.53580884  1
  Al  Al21  1  0.10698931  0.76965128  0.31802658  1
  Al  Al22  1  0.21067639  0.88880107  0.06753553  1
  Al  Al23  1  0.79653809  0.75289599  0.89312704  1
  Al  Al24  1  0.42956189  0.77944491  0.30908606  1
  Al  Al25  1  0.55039337  0.88493226  0.06452267  1
  Al  Al26  1  0.12582775  0.75484667  0.80483264  1
  Al  Al27  1  0.22841368  0.87142125  0.55323086  1
  Al  Al28  1  0.77149739  0.75858427  0.37047035  1
  Al  Al29  1  0.87891499  0.88089915  0.13945127  1
  Al  Al30  1  0.54042600  0.87912976  0.54101098  1
  Gd  Gd31  1  0.88192432  0.21500663  0.62130379  1
  Gd  Gd32  1  0.21038767  0.54880020  0.05180120  1
  Gd  Gd33  1  0.55914685  0.53861633  0.08645964  1
  Gd  Gd34  1  0.87351789  0.87260578  0.62153439  1
  Gd  Gd35  1  0.45945786  0.75344623  0.80075255  1
  N  N36  1  0.21721026  0.20551469  0.37616110  1
  N  N37  1  0.11611678  0.09775980  0.12481144  1
  N  N38  1  0.90106432  0.19391137  0.83807309  1
  N  N39  1  0.75339774  0.10879022  0.54595823  1
  N  N40  1  0.53282337  0.21265263  0.36514739  1
  N  N41  1  0.44125140  0.09790998  0.11882195  1
  N  N42  1  0.22887566  0.20295955  0.87032257  1
  N  N43  1  0.15190207  0.07083834  0.63244970  1
  N  N44  1  0.87738402  0.21229856  0.31684156  1
  N  N45  1  0.77949488  0.09354820  0.07680762  1
  N  N46  1  0.56113752  0.20130338  0.86947196  1
  N  N47  1  0.44971071  0.09017812  0.62111689  1
  N  N48  1  0.21214702  0.54700764  0.37567537  1
  N  N49  1  0.11475231  0.40803548  0.13287120  1
  N  N50  1  0.88522389  0.54028459  0.81201274  1
  N  N51  1  0.76282338  0.45489583  0.54677291  1
  N  N52  1  0.54093890  0.54634076  0.34629346  1
  N  N53  1  0.44638063  0.39945714  0.13483764  1
  N  N54  1  0.23226582  0.52833852  0.83534348  1
  N  N55  1  0.11174869  0.42192061  0.61048912  1
  N  N56  1  0.88018321  0.54404923  0.31555539  1
  N  N57  1  0.82027738  0.40785357  0.06557730  1
  N  N58  1  0.57730275  0.50289835  0.86572940  1
  N  N59  1  0.44988209  0.42441271  0.60914541  1
  N  N60  1  0.21029235  0.88392683  0.37255351  1
  N  N61  1  0.10249384  0.79078566  0.13932554  1
  N  N62  1  0.90064460  0.86392730  0.83991900  1
  N  N63  1  0.76158075  0.74515945  0.55091749  1
  N  N64  1  0.54102520  0.88599749  0.35870998  1
  N  N65  1  0.42487370  0.79946005  0.12645639  1
  N  N66  1  0.20835735  0.87362344  0.88569667  1
  N  N67  1  0.14248937  0.75042379  0.62153977  1
  N  N68  1  0.87256530  0.87898336  0.32603327  1
  N  N69  1  0.79046645  0.75181893  0.07801232  1
  N  N70  1  0.57169174  0.88586268  0.88189021  1
  N  N71  1  0.44614993  0.75833176  0.58599699  1
