# generated using pymatgen
data_Gd5Al31N36
_symmetry_space_group_name_H-M   'P 1'
_cell_length_a   9.72252747
_cell_length_b   9.70515522
_cell_length_c   10.44438901
_cell_angle_alpha   89.79695354
_cell_angle_beta   89.45436533
_cell_angle_gamma   60.23971529
_symmetry_Int_Tables_number   1
_chemical_formula_structural   Gd5Al31N36
_chemical_formula_sum   'Gd5 Al31 N36'
_cell_volume   855.49845587
_cell_formula_units_Z   1
loop_
 _symmetry_equiv_pos_site_id
 _symmetry_equiv_pos_as_xyz
  1  'x, y, z'
loop_
 _atom_site_type_symbol
 _atom_site_label
 _atom_site_symmetry_multiplicity
 _atom_site_fract_x
 _atom_site_fract_y
 _atom_site_fract_z
 _atom_site_occupancy
  Al  Al0  1  0.11513861  0.09540114  0.30911127  1
  Al  Al1  1  0.22085246  0.20271013  0.06034014  1
  Al  Al2  1  0.79105910  0.08656932  0.88373832  1
  Al  Al3  1  0.43555714  0.10030340  0.30202875  1
  Al  Al4  1  0.55103250  0.20136556  0.05904689  1
  Al  Al5  1  0.12353681  0.08618019  0.81594399  1
  Al  Al6  1  0.23290079  0.19842312  0.56103951  1
  Al  Al7  1  0.76369365  0.10271856  0.36593251  1
  Al  Al8  1  0.89265914  0.20210157  0.12955902  1
  Al  Al9  1  0.45287273  0.09605143  0.81038131  1
  Al  Al10  1  0.53750925  0.21248072  0.54847771  1
  Al  Al11  1  0.11107559  0.42303242  0.31713918  1
  Al  Al12  1  0.79925610  0.41069150  0.88039659  1
  Al  Al13  1  0.87212959  0.54560492  0.62359839  1
  Al  Al14  1  0.43230221  0.42496162  0.31092051  1
  Al  Al15  1  0.11842820  0.42015281  0.79652715  1
  Al  Al16  1  0.22708743  0.53454381  0.56204567  1
  Al  Al17  1  0.77482396  0.43526755  0.36873043  1
  Al  Al18  1  0.89292513  0.53308319  0.13145191  1
  Al  Al19  1  0.45812492  0.41452589  0.79762720  1
  Al  Al20  1  0.54232493  0.54512100  0.53902324  1
  Al  Al21  1  0.10926985  0.76720886  0.31753064  1
  Al  Al22  1  0.20950297  0.88820451  0.06690980  1
  Al  Al23  1  0.79339255  0.75742996  0.88731000  1
  Al  Al24  1  0.43118331  0.77798054  0.30861389  1
  Al  Al25  1  0.55047595  0.88489794  0.06341359  1
  Al  Al26  1  0.12200632  0.75718256  0.80380375  1
  Al  Al27  1  0.23516591  0.86765879  0.55340819  1
  Al  Al28  1  0.77046174  0.75737579  0.37005429  1
  Al  Al29  1  0.87892489  0.88092083  0.13902928  1
  Al  Al30  1  0.54200453  0.87962400  0.54350747  1
  Gd  Gd31  1  0.89387354  0.20961748  0.60594255  1
  Gd  Gd32  1  0.20911363  0.54689103  0.05447178  1
  Gd  Gd33  1  0.56135833  0.53604551  0.08635656  1
  Gd  Gd34  1  0.88382011  0.86854348  0.60709445  1
  Gd  Gd35  1  0.45275113  0.75788308  0.80348985  1
  N  N36  1  0.21907803  0.20486442  0.37522801  1
  N  N37  1  0.11604282  0.09627759  0.12543243  1
  N  N38  1  0.89689352  0.19721340  0.82630462  1
  N  N39  1  0.75276536  0.11003406  0.54633598  1
  N  N40  1  0.53422992  0.21203658  0.36428407  1
  N  N41  1  0.44131652  0.09749349  0.11857006  1
  N  N42  1  0.22595824  0.20569322  0.87154890  1
  N  N43  1  0.16103941  0.06644555  0.63207231  1
  N  N44  1  0.88041835  0.21219666  0.32114850  1
  N  N45  1  0.77894052  0.09429781  0.07787197  1
  N  N46  1  0.55793970  0.20450014  0.86919304  1
  N  N47  1  0.44969102  0.09214650  0.62084134  1
  N  N48  1  0.21233867  0.54431229  0.37223118  1
  N  N49  1  0.11284742  0.40544116  0.13438834  1
  N  N50  1  0.88405986  0.54219964  0.81258308  1
  N  N51  1  0.76182843  0.45568286  0.54900199  1
  N  N52  1  0.54138117  0.54548559  0.34665785  1
  N  N53  1  0.44574788  0.39964083  0.13359251  1
  N  N54  1  0.22901144  0.53132542  0.83768896  1
  N  N55  1  0.11113323  0.42180897  0.61127965  1
  N  N56  1  0.87845776  0.54460590  0.31358918  1
  N  N57  1  0.82149252  0.40468363  0.06182311  1
  N  N58  1  0.57406649  0.50629411  0.86455048  1
  N  N59  1  0.44810005  0.42413477  0.60871714  1
  N  N60  1  0.21314461  0.88148812  0.37177627  1
  N  N61  1  0.10102303  0.79058465  0.13821840  1
  N  N62  1  0.89559343  0.86830385  0.82919202  1
  N  N63  1  0.76120231  0.74527600  0.55212882  1
  N  N64  1  0.54183758  0.88537014  0.35873843  1
  N  N65  1  0.42508495  0.79785065  0.12377954  1
  N  N66  1  0.20127082  0.87864143  0.88507872  1
  N  N67  1  0.15078626  0.74548230  0.62000772  1
  N  N68  1  0.87490414  0.87699911  0.32921540  1
  N  N69  1  0.79111561  0.75230950  0.07496371  1
  N  N70  1  0.56921805  0.88865935  0.88022305  1
  N  N71  1  0.45031384  0.75658791  0.58725064  1
