# generated using pymatgen
data_Gd5Al31N36
_symmetry_space_group_name_H-M   'P 1'
_cell_length_a   9.70336361
_cell_length_b   9.71401408
_cell_length_c   10.34730908
_cell_angle_alpha   90.04024608
_cell_angle_beta   89.91081934
_cell_angle_gamma   60.09229138
_symmetry_Int_Tables_number   1
_chemical_formula_structural   Gd5Al31N36
_chemical_formula_sum   'Gd5 Al31 N36'
_cell_volume   845.43664546
_cell_formula_units_Z   1
loop_
 _symmetry_equiv_pos_site_id
 _symmetry_equiv_pos_as_xyz
  1  'x, y, z'
loop_
 _atom_site_type_symbol
 _atom_site_label
 _atom_site_symmetry_multiplicity
 _atom_site_fract_x
 _atom_site_fract_y
 _atom_site_fract_z
 _atom_site_occupancy
  Al  Al0  1  0.10825472  0.09925746  0.30177910  1
  Al  Al1  1  0.22449961  0.20025300  0.06247989  1
  Al  Al2  1  0.77293529  0.09493690  0.82084264  1
  Al  Al3  1  0.44202830  0.09924789  0.30946871  1
  Al  Al4  1  0.55483662  0.19829049  0.05944160  1
  Al  Al5  1  0.12078883  0.08756021  0.81876800  1
  Al  Al6  1  0.23080756  0.19948731  0.56256722  1
  Al  Al7  1  0.77205208  0.09899630  0.29644886  1
  Al  Al8  1  0.90014886  0.19198322  0.06119453  1
  Al  Al9  1  0.44885274  0.09728500  0.81232170  1
  Al  Al10  1  0.54980966  0.20504567  0.56046297  1
  Al  Al11  1  0.11176695  0.42320950  0.31989076  1
  Al  Al12  1  0.79303015  0.41783594  0.87951155  1
  Al  Al13  1  0.87560082  0.53882098  0.63409017  1
  Al  Al14  1  0.44011973  0.41982559  0.31795311  1
  Al  Al15  1  0.12216816  0.41795049  0.80137047  1
  Al  Al16  1  0.22613949  0.53672681  0.56266553  1
  Al  Al17  1  0.77653501  0.43378622  0.35643853  1
  Al  Al18  1  0.89211696  0.53192630  0.13067014  1
  Al  Al19  1  0.45486515  0.41788821  0.79612952  1
  Al  Al20  1  0.54635093  0.54338787  0.53892240  1
  Al  Al21  1  0.10427911  0.77125385  0.30757418  1
  Al  Al22  1  0.21522240  0.88522907  0.06635933  1
  Al  Al23  1  0.77605325  0.76476788  0.82424709  1
  Al  Al24  1  0.43415187  0.77809756  0.31863213  1
  Al  Al25  1  0.55214022  0.88454728  0.06678064  1
  Al  Al26  1  0.11719316  0.75990261  0.80849066  1
  Al  Al27  1  0.22833527  0.87110612  0.55142891  1
  Al  Al28  1  0.77089022  0.77230110  0.30004832  1
  Al  Al29  1  0.88785158  0.87608962  0.05926751  1
  Al  Al30  1  0.55125618  0.87576211  0.55003062  1
  Gd  Gd31  1  0.89723022  0.19893107  0.56978151  1
  Gd  Gd32  1  0.21526049  0.53735734  0.05786124  1
  Gd  Gd33  1  0.55070745  0.54256477  0.08393189  1
  Gd  Gd34  1  0.88539810  0.86239912  0.56557892  1
  Gd  Gd35  1  0.45181004  0.76099747  0.79432925  1
  N  N36  1  0.22154783  0.20272466  0.37478513  1
  N  N37  1  0.11212081  0.09743649  0.11787939  1
  N  N38  1  0.89950278  0.19244253  0.86529337  1
  N  N39  1  0.74765232  0.10514074  0.64039125  1
  N  N40  1  0.55754352  0.20115894  0.37394289  1
  N  N41  1  0.44281538  0.09788927  0.12378361  1
  N  N42  1  0.22746648  0.20453256  0.87324209  1
  N  N43  1  0.15302687  0.07105402  0.63574681  1
  N  N44  1  0.88503045  0.20715279  0.34411950  1
  N  N45  1  0.77457477  0.09502774  0.10866037  1
  N  N46  1  0.55159051  0.20873683  0.87287425  1
  N  N47  1  0.44552828  0.09331652  0.62120761  1
  N  N48  1  0.21470469  0.54500902  0.37046606  1
  N  N49  1  0.11061488  0.40363668  0.13490203  1
  N  N50  1  0.89459065  0.53115854  0.82558699  1
  N  N51  1  0.76300035  0.45382804  0.56088549  1
  N  N52  1  0.54622876  0.54325086  0.34732903  1
  N  N53  1  0.45110710  0.39372493  0.14001192  1
  N  N54  1  0.22991171  0.53228842  0.83956370  1
  N  N55  1  0.11090560  0.42443956  0.61300484  1
  N  N56  1  0.88158123  0.54671147  0.32082201  1
  N  N57  1  0.80791591  0.41169318  0.07259973  1
  N  N58  1  0.57098831  0.51074104  0.85973977  1
  N  N59  1  0.44741638  0.42567628  0.60604548  1
  N  N60  1  0.20883046  0.88432341  0.36765283  1
  N  N61  1  0.09813243  0.78959412  0.12645755  1
  N  N62  1  0.89614994  0.86605659  0.86736246  1
  N  N63  1  0.74502356  0.75908376  0.63963100  1
  N  N64  1  0.55712407  0.88057028  0.36540385  1
  N  N65  1  0.42500072  0.80184240  0.13246539  1
  N  N66  1  0.20684268  0.87650981  0.88337768  1
  N  N67  1  0.14212847  0.75128792  0.62493542  1
  N  N68  1  0.88135953  0.87970992  0.34806901  1
  N  N69  1  0.77796480  0.76301815  0.11268714  1
  N  N70  1  0.56594891  0.88969079  0.88498375  1
  N  N71  1  0.44554297  0.75978972  0.57447042  1
