# generated using pymatgen
data_Gd5Al31N36
_symmetry_space_group_name_H-M   'P 1'
_cell_length_a   9.74296713
_cell_length_b   9.70394502
_cell_length_c   10.38562179
_cell_angle_alpha   89.82004192
_cell_angle_beta   89.59330423
_cell_angle_gamma   60.18890090
_symmetry_Int_Tables_number   1
_chemical_formula_structural   Gd5Al31N36
_chemical_formula_sum   'Gd5 Al31 N36'
_cell_volume   851.95223633
_cell_formula_units_Z   1
loop_
 _symmetry_equiv_pos_site_id
 _symmetry_equiv_pos_as_xyz
  1  'x, y, z'
loop_
 _atom_site_type_symbol
 _atom_site_label
 _atom_site_symmetry_multiplicity
 _atom_site_fract_x
 _atom_site_fract_y
 _atom_site_fract_z
 _atom_site_occupancy
  Al  Al0  1  0.11829436  0.09484439  0.30910112  1
  Al  Al1  1  0.22265417  0.20283933  0.06041924  1
  Al  Al2  1  0.76960817  0.10155156  0.81751026  1
  Al  Al3  1  0.44001230  0.09981353  0.30567364  1
  Al  Al4  1  0.55556623  0.19898331  0.05977269  1
  Al  Al5  1  0.11852643  0.09016820  0.81359974  1
  Al  Al6  1  0.23051322  0.20003350  0.56141087  1
  Al  Al7  1  0.76697016  0.09245486  0.30479818  1
  Al  Al8  1  0.89641555  0.20413113  0.12602719  1
  Al  Al9  1  0.44799773  0.09792945  0.81034882  1
  Al  Al10  1  0.54450207  0.20634294  0.55885239  1
  Al  Al11  1  0.11239592  0.42386468  0.31744368  1
  Al  Al12  1  0.79828613  0.40971768  0.87714730  1
  Al  Al13  1  0.87289064  0.54165109  0.62417314  1
  Al  Al14  1  0.43883053  0.42128126  0.31765712  1
  Al  Al15  1  0.11726151  0.42170059  0.79800146  1
  Al  Al16  1  0.22623296  0.53608961  0.56233142  1
  Al  Al17  1  0.77538615  0.43691744  0.36838896  1
  Al  Al18  1  0.89354828  0.53577578  0.13031079  1
  Al  Al19  1  0.45372998  0.41803997  0.79803108  1
  Al  Al20  1  0.54357803  0.54400815  0.54099203  1
  Al  Al21  1  0.10100729  0.77247425  0.31280030  1
  Al  Al22  1  0.21209224  0.88857272  0.06666533  1
  Al  Al23  1  0.78703069  0.75351378  0.88305775  1
  Al  Al24  1  0.43200894  0.77741070  0.31048949  1
  Al  Al25  1  0.55139783  0.88491746  0.06439465  1
  Al  Al26  1  0.11939185  0.76017861  0.80969267  1
  Al  Al27  1  0.23407484  0.86681937  0.55383794  1
  Al  Al28  1  0.77197235  0.75889855  0.37060789  1
  Al  Al29  1  0.89183821  0.88164691  0.06088302  1
  Al  Al30  1  0.54083636  0.87977938  0.54570501  1
  Gd  Gd31  1  0.89560592  0.19729231  0.58424425  1
  Gd  Gd32  1  0.21773182  0.54103515  0.05953154  1
  Gd  Gd33  1  0.56316484  0.53485895  0.08742206  1
  Gd  Gd34  1  0.88955915  0.86392990  0.58602738  1
  Gd  Gd35  1  0.44899691  0.75912925  0.80337782  1
  N  N36  1  0.22205811  0.20531147  0.37472374  1
  N  N37  1  0.11763124  0.09675888  0.12547993  1
  N  N38  1  0.89665965  0.20051710  0.82159660  1
  N  N39  1  0.73640652  0.10926352  0.63817820  1
  N  N40  1  0.55295691  0.20229877  0.37363376  1
  N  N41  1  0.44273601  0.09789568  0.12068579  1
  N  N42  1  0.22404812  0.20706175  0.87141548  1
  N  N43  1  0.15742969  0.06792699  0.63016087  1
  N  N44  1  0.88357193  0.21092650  0.32633778  1
  N  N45  1  0.77300272  0.09647420  0.11582896  1
  N  N46  1  0.55093027  0.20865438  0.87404118  1
  N  N47  1  0.44354936  0.09310673  0.62051225  1
  N  N48  1  0.21427226  0.54492381  0.37055231  1
  N  N49  1  0.11292196  0.40603083  0.13398589  1
  N  N50  1  0.88328509  0.54179104  0.81180628  1
  N  N51  1  0.76356656  0.44990946  0.55097317  1
  N  N52  1  0.54411543  0.54542772  0.34813432  1
  N  N53  1  0.45288364  0.39454999  0.14029779  1
  N  N54  1  0.22694351  0.53289688  0.84169123  1
  N  N55  1  0.11041223  0.42389582  0.61116108  1
  N  N56  1  0.87971213  0.54586497  0.31427411  1
  N  N57  1  0.82204841  0.40642664  0.06094040  1
  N  N58  1  0.57207394  0.50697543  0.86486542  1
  N  N59  1  0.44545566  0.42565609  0.60736715  1
  N  N60  1  0.21279106  0.88038948  0.37020864  1
  N  N61  1  0.09595466  0.79369605  0.13161867  1
  N  N62  1  0.89699810  0.87121367  0.86243220  1
  N  N63  1  0.75836144  0.74341169  0.55767839  1
  N  N64  1  0.54407222  0.88448190  0.35967968  1
  N  N65  1  0.42611673  0.79723093  0.12461441  1
  N  N66  1  0.20078075  0.88236257  0.88535151  1
  N  N67  1  0.15032682  0.74628971  0.62746194  1
  N  N68  1  0.88178294  0.87825897  0.36121681  1
  N  N69  1  0.78888292  0.75193189  0.07124738  1
  N  N70  1  0.56552666  0.89024156  0.87872316  1
  N  N71  1  0.44870000  0.75648814  0.58606543  1
