# generated using pymatgen
data_Gd5Al31N36
_symmetry_space_group_name_H-M   'P 1'
_cell_length_a   9.68818454
_cell_length_b   9.71003070
_cell_length_c   10.54542277
_cell_angle_alpha   89.48472501
_cell_angle_beta   89.09822603
_cell_angle_gamma   60.00443125
_symmetry_Int_Tables_number   1
_chemical_formula_structural   Gd5Al31N36
_chemical_formula_sum   'Gd5 Al31 N36'
_cell_volume   859.05874719
_cell_formula_units_Z   1
loop_
 _symmetry_equiv_pos_site_id
 _symmetry_equiv_pos_as_xyz
  1  'x, y, z'
loop_
 _atom_site_type_symbol
 _atom_site_label
 _atom_site_symmetry_multiplicity
 _atom_site_fract_x
 _atom_site_fract_y
 _atom_site_fract_z
 _atom_site_occupancy
  Al  Al0  1  0.11228489  0.09835601  0.31264586  1
  Al  Al1  1  0.22488482  0.19701503  0.05733876  1
  Al  Al2  1  0.79544878  0.08192671  0.89713213  1
  Al  Al3  1  0.43430772  0.10189660  0.30565547  1
  Al  Al4  1  0.54984350  0.20160202  0.06203652  1
  Al  Al5  1  0.12716994  0.08017066  0.81952588  1
  Al  Al6  1  0.23157727  0.19516944  0.56650163  1
  Al  Al7  1  0.76481512  0.10163952  0.37345773  1
  Al  Al8  1  0.88990940  0.20252419  0.13373238  1
  Al  Al9  1  0.45694086  0.09084065  0.81259339  1
  Al  Al10  1  0.53594962  0.21269481  0.55198257  1
  Al  Al11  1  0.10212266  0.43338978  0.38885705  1
  Al  Al12  1  0.79974272  0.40868126  0.89143009  1
  Al  Al13  1  0.87877240  0.54198450  0.62691853  1
  Al  Al14  1  0.43368018  0.42493964  0.31617662  1
  Al  Al15  1  0.11112907  0.41920439  0.86724814  1
  Al  Al16  1  0.22797352  0.54021462  0.57004145  1
  Al  Al17  1  0.77923623  0.43158556  0.36966663  1
  Al  Al18  1  0.89999058  0.53050958  0.13244030  1
  Al  Al19  1  0.45923280  0.41134054  0.80254981  1
  Al  Al20  1  0.54372201  0.54663701  0.53922702  1
  Al  Al21  1  0.10625545  0.77298440  0.32169404  1
  Al  Al22  1  0.20919738  0.89238594  0.07166237  1
  Al  Al23  1  0.79578784  0.75338379  0.89742637  1
  Al  Al24  1  0.42978944  0.77996759  0.31309152  1
  Al  Al25  1  0.55040333  0.88491631  0.06866718  1
  Al  Al26  1  0.12501451  0.75324912  0.81041475  1
  Al  Al27  1  0.22906858  0.87117565  0.55722010  1
  Al  Al28  1  0.77396713  0.75637407  0.37227596  1
  Al  Al29  1  0.87668501  0.88279943  0.14387476  1
  Al  Al30  1  0.54281781  0.87733968  0.54383522  1
  Gd  Gd31  1  0.88043358  0.21649848  0.62555401  1
  Gd  Gd32  1  0.21658859  0.55583703  0.06206995  1
  Gd  Gd33  1  0.55724461  0.53972169  0.09117678  1
  Gd  Gd34  1  0.87462749  0.87121563  0.62476211  1
  Gd  Gd35  1  0.45855841  0.75323026  0.80480396  1
  N  N36  1  0.21908598  0.20366182  0.37796271  1
  N  N37  1  0.11494560  0.10119904  0.12998897  1
  N  N38  1  0.90074271  0.19365351  0.84211605  1
  N  N39  1  0.75385887  0.10831389  0.55098845  1
  N  N40  1  0.53308297  0.21229080  0.37070378  1
  N  N41  1  0.44006923  0.09882551  0.12304248  1
  N  N42  1  0.23651290  0.18803900  0.87067227  1
  N  N43  1  0.15018473  0.07089129  0.63526511  1
  N  N44  1  0.87759098  0.21126010  0.32117514  1
  N  N45  1  0.77856780  0.09378135  0.07987925  1
  N  N46  1  0.56023479  0.20049801  0.87309229  1
  N  N47  1  0.45048005  0.08905372  0.62420040  1
  N  N48  1  0.21505351  0.55118644  0.37695717  1
  N  N49  1  0.09857685  0.41859707  0.05494228  1
  N  N50  1  0.88717807  0.53666224  0.81535792  1
  N  N51  1  0.76535811  0.45537695  0.54845551  1
  N  N52  1  0.54324982  0.54638856  0.34977346  1
  N  N53  1  0.44964792  0.39559703  0.14148996  1
  N  N54  1  0.23166090  0.52822539  0.84421477  1
  N  N55  1  0.10401619  0.42949691  0.57598550  1
  N  N56  1  0.89335362  0.53700548  0.31388361  1
  N  N57  1  0.81504512  0.40829535  0.07234644  1
  N  N58  1  0.57539802  0.50278199  0.87033716  1
  N  N59  1  0.45033883  0.42452207  0.61404912  1
  N  N60  1  0.21072436  0.88473369  0.37720292  1
  N  N61  1  0.09797461  0.79922448  0.14460216  1
  N  N62  1  0.89938587  0.86396355  0.84287921  1
  N  N63  1  0.76396074  0.74275951  0.55317268  1
  N  N64  1  0.54320071  0.88451279  0.36167715  1
  N  N65  1  0.42320222  0.80119667  0.13078910  1
  N  N66  1  0.20726777  0.87255484  0.89031556  1
  N  N67  1  0.14385511  0.75045580  0.62769546  1
  N  N68  1  0.87204670  0.87944445  0.33056869  1
  N  N69  1  0.78829200  0.75351989  0.08273957  1
  N  N70  1  0.57221834  0.88398634  0.88560502  1
  N  N71  1  0.44699321  0.75816560  0.58989673  1
