# generated using pymatgen
data_Gd5Al31N36
_symmetry_space_group_name_H-M   'P 1'
_cell_length_a   9.68599552
_cell_length_b   9.68479251
_cell_length_c   10.29641903
_cell_angle_alpha   89.89986752
_cell_angle_beta   90.00730247
_cell_angle_gamma   59.89543301
_symmetry_Int_Tables_number   1
_chemical_formula_structural   Gd5Al31N36
_chemical_formula_sum   'Gd5 Al31 N36'
_cell_volume   835.58742148
_cell_formula_units_Z   1
loop_
 _symmetry_equiv_pos_site_id
 _symmetry_equiv_pos_as_xyz
  1  'x, y, z'
loop_
 _atom_site_type_symbol
 _atom_site_label
 _atom_site_symmetry_multiplicity
 _atom_site_fract_x
 _atom_site_fract_y
 _atom_site_fract_z
 _atom_site_occupancy
  Al  Al0  1  0.11054260  0.09671406  0.29940425  1
  Al  Al1  1  0.22192254  0.20284118  0.06179192  1
  Al  Al2  1  0.77114170  0.09824458  0.82052756  1
  Al  Al3  1  0.44435496  0.09683983  0.30830981  1
  Al  Al4  1  0.55490503  0.19920729  0.05844285  1
  Al  Al5  1  0.11479636  0.09343519  0.81847623  1
  Al  Al6  1  0.23184436  0.19829069  0.56125873  1
  Al  Al7  1  0.77451709  0.09560126  0.29391405  1
  Al  Al8  1  0.89429600  0.20302295  0.05709776  1
  Al  Al9  1  0.44695940  0.09962603  0.81196793  1
  Al  Al10  1  0.55099155  0.20403358  0.55876368  1
  Al  Al11  1  0.10735757  0.42473782  0.31686367  1
  Al  Al12  1  0.77821570  0.42780329  0.80688612  1
  Al  Al13  1  0.88021508  0.54197256  0.56004860  1
  Al  Al14  1  0.44594683  0.41919672  0.31858011  1
  Al  Al15  1  0.11013730  0.42524379  0.80048669  1
  Al  Al16  1  0.22655005  0.53633179  0.55987144  1
  Al  Al17  1  0.78473394  0.42453567  0.30376558  1
  Al  Al18  1  0.89303424  0.53193350  0.05912233  1
  Al  Al19  1  0.44789605  0.42084873  0.79311179  1
  Al  Al20  1  0.55660579  0.53753511  0.54428270  1
  Al  Al21  1  0.10654351  0.76857745  0.30546733  1
  Al  Al22  1  0.21329740  0.88618919  0.06550909  1
  Al  Al23  1  0.77752829  0.76037052  0.81866750  1
  Al  Al24  1  0.44024172  0.77145316  0.31799344  1
  Al  Al25  1  0.55312959  0.88316860  0.06578790  1
  Al  Al26  1  0.11381729  0.76190575  0.80733381  1
  Al  Al27  1  0.23088702  0.86887743  0.54787111  1
  Al  Al28  1  0.77846503  0.75987827  0.29977901  1
  Al  Al29  1  0.88743790  0.87534583  0.05768592  1
  Al  Al30  1  0.55541273  0.87312373  0.54822767  1
  Gd  Gd31  1  0.89846684  0.20052539  0.56357440  1
  Gd  Gd32  1  0.21721844  0.53580331  0.05839997  1
  Gd  Gd33  1  0.55330732  0.54176022  0.06949148  1
  Gd  Gd34  1  0.88658564  0.86559186  0.56350460  1
  Gd  Gd35  1  0.44120953  0.77205081  0.79198379  1
  N  N36  1  0.22284007  0.20160288  0.37232757  1
  N  N37  1  0.10958171  0.09984887  0.11463429  1
  N  N38  1  0.89082475  0.20689887  0.86357771  1
  N  N39  1  0.74957485  0.10805005  0.63917427  1
  N  N40  1  0.56040890  0.19807578  0.37221762  1
  N  N41  1  0.44181882  0.09898395  0.12177226  1
  N  N42  1  0.22414787  0.20795229  0.87134231  1
  N  N43  1  0.15371276  0.06901151  0.63464095  1
  N  N44  1  0.88817506  0.20231765  0.34466705  1
  N  N45  1  0.77537410  0.09573182  0.10509067  1
  N  N46  1  0.54889815  0.21183817  0.87156492  1
  N  N47  1  0.44766006  0.09113491  0.62000820  1
  N  N48  1  0.21721040  0.54241138  0.36705729  1
  N  N49  1  0.09861808  0.41121867  0.13254143  1
  N  N50  1  0.89200218  0.53573412  0.87021729  1
  N  N51  1  0.76310620  0.45011919  0.62116432  1
  N  N52  1  0.55889516  0.53576542  0.35395041  1
  N  N53  1  0.45550843  0.39568497  0.13950814  1
  N  N54  1  0.22435400  0.53445938  0.83837310  1
  N  N55  1  0.10692287  0.42571846  0.61208709  1
  N  N56  1  0.88489254  0.54228324  0.37163330  1
  N  N57  1  0.80381363  0.41366077  0.12085140  1
  N  N58  1  0.56214276  0.51785167  0.85171998  1
  N  N59  1  0.44735748  0.42428265  0.60376748  1
  N  N60  1  0.21273421  0.88059110  0.36418257  1
  N  N61  1  0.09838179  0.78846798  0.12401377  1
  N  N62  1  0.89281312  0.86802063  0.86429236  1
  N  N63  1  0.75589900  0.74886379  0.63346543  1
  N  N64  1  0.56135535  0.87657931  0.36273789  1
  N  N65  1  0.42603074  0.79852688  0.13008049  1
  N  N66  1  0.19881234  0.88214905  0.88274472  1
  N  N67  1  0.14391934  0.75083818  0.62296090  1
  N  N68  1  0.88377123  0.87529278  0.34485595  1
  N  N69  1  0.78077029  0.75591754  0.11333679  1
  N  N70  1  0.56704923  0.88969422  0.88236116  1
  N  N71  1  0.44928858  0.75789162  0.57233359  1
