# generated using pymatgen
data_Gd5Al31N36
_symmetry_space_group_name_H-M   'P 1'
_cell_length_a   9.69084438
_cell_length_b   9.68942057
_cell_length_c   10.29654614
_cell_angle_alpha   89.59132064
_cell_angle_beta   89.65830904
_cell_angle_gamma   59.85976504
_symmetry_Int_Tables_number   1
_chemical_formula_structural   Gd5Al31N36
_chemical_formula_sum   'Gd5 Al31 N36'
_cell_volume   836.09089625
_cell_formula_units_Z   1
loop_
 _symmetry_equiv_pos_site_id
 _symmetry_equiv_pos_as_xyz
  1  'x, y, z'
loop_
 _atom_site_type_symbol
 _atom_site_label
 _atom_site_symmetry_multiplicity
 _atom_site_fract_x
 _atom_site_fract_y
 _atom_site_fract_z
 _atom_site_occupancy
  Al  Al0  1  0.11805967  0.09420582  0.38950137  1
  Al  Al1  1  0.22292273  0.20133124  0.14337077  1
  Al  Al2  1  0.77354500  0.09685494  0.91408913  1
  Al  Al3  1  0.44278894  0.09810193  0.39490290  1
  Al  Al4  1  0.55511802  0.19845759  0.14555154  1
  Al  Al5  1  0.10629985  0.09814434  0.90613931  1
  Al  Al6  1  0.22964291  0.20089979  0.64437630  1
  Al  Al7  1  0.77183331  0.09792713  0.38448127  1
  Al  Al8  1  0.89461756  0.20292860  0.14552735  1
  Al  Al9  1  0.44937377  0.09637897  0.89428073  1
  Al  Al10  1  0.54960345  0.20442490  0.64510660  1
  Al  Al11  1  0.11110486  0.42594821  0.40367784  1
  Al  Al12  1  0.78321003  0.42328802  0.90105660  1
  Al  Al13  1  0.88332997  0.54111342  0.64614344  1
  Al  Al14  1  0.44317049  0.42427304  0.41288764  1
  Al  Al15  1  0.10743923  0.42386998  0.88866438  1
  Al  Al16  1  0.22472831  0.53759510  0.64718238  1
  Al  Al17  1  0.78139200  0.42944842  0.40134439  1
  Al  Al18  1  0.89209229  0.53185158  0.14614385  1
  Al  Al19  1  0.45156269  0.41476179  0.88288072  1
  Al  Al20  1  0.55828757  0.53459852  0.63858834  1
  Al  Al21  1  0.11710514  0.75874237  0.39833941  1
  Al  Al22  1  0.21879038  0.88319911  0.15314195  1
  Al  Al23  1  0.77923962  0.76226337  0.90629390  1
  Al  Al24  1  0.44275655  0.76567929  0.40872578  1
  Al  Al25  1  0.55216929  0.87879376  0.15200169  1
  Al  Al26  1  0.10138721  0.77394251  0.90056463  1
  Al  Al27  1  0.22357337  0.87395792  0.63856411  1
  Al  Al28  1  0.77685388  0.75694284  0.38915024  1
  Al  Al29  1  0.88751571  0.87607552  0.14708011  1
  Al  Al30  1  0.55664537  0.87585826  0.63905705  1
  Gd  Gd31  1  0.89466569  0.19963128  0.64989374  1
  Gd  Gd32  1  0.21761129  0.53443706  0.14057959  1
  Gd  Gd33  1  0.55453347  0.53598154  0.15531347  1
  Gd  Gd34  1  0.88407920  0.86770990  0.64830792  1
  Gd  Gd35  1  0.43950118  0.76716882  0.87822073  1
  N  N36  1  0.22379448  0.20970084  0.33240795  1
  N  N37  1  0.11366726  0.09456102  0.09326988  1
  N  N38  1  0.88745542  0.20378841  0.86900855  1
  N  N39  1  0.74867972  0.10811394  0.56530074  1
  N  N40  1  0.54825614  0.21212198  0.33240497  1
  N  N41  1  0.44551631  0.09291047  0.08487523  1
  N  N42  1  0.22478768  0.19970231  0.83437050  1
  N  N43  1  0.14326453  0.08211543  0.57095194  1
  N  N44  1  0.89053650  0.20728864  0.33853301  1
  N  N45  1  0.77487399  0.09624777  0.10127188  1
  N  N46  1  0.56197559  0.19757777  0.83194718  1
  N  N47  1  0.44386234  0.09670824  0.58262874  1
  N  N48  1  0.22461364  0.53485838  0.36003638  1
  N  N49  1  0.09760674  0.40932758  0.07214233  1
  N  N50  1  0.88472891  0.54320730  0.83519054  1
  N  N51  1  0.77249531  0.44563657  0.58290485  1
  N  N52  1  0.55278842  0.53993296  0.37367986  1
  N  N53  1  0.45961986  0.39645720  0.06382207  1
  N  N54  1  0.21777978  0.54390953  0.84077252  1
  N  N55  1  0.10880209  0.42720039  0.59340106  1
  N  N56  1  0.89360348  0.53510205  0.33397330  1
  N  N57  1  0.79863594  0.41768022  0.08523690  1
  N  N58  1  0.57474294  0.50765583  0.82768158  1
  N  N59  1  0.44322018  0.42343179  0.59797978  1
  N  N60  1  0.22505983  0.87078721  0.33971698  1
  N  N61  1  0.10194060  0.79158145  0.08492133  1
  N  N62  1  0.88309860  0.87651492  0.86809065  1
  N  N63  1  0.76399212  0.74596824  0.57146367  1
  N  N64  1  0.55276465  0.87538757  0.34009586  1
  N  N65  1  0.43086452  0.78975009  0.09532597  1
  N  N66  1  0.18091643  0.89764121  0.82116218  1
  N  N67  1  0.13771537  0.74919041  0.58050436  1
  N  N68  1  0.89210034  0.86847157  0.33885740  1
  N  N69  1  0.77725614  0.75783841  0.09540370  1
  N  N70  1  0.57657488  0.88690016  0.82431224  1
  N  N71  1  0.44529692  0.76307226  0.60165351  1
