# generated using pymatgen
data_Gd5Al31N36
_symmetry_space_group_name_H-M   'P 1'
_cell_length_a   9.73261178
_cell_length_b   9.70861792
_cell_length_c   10.35556187
_cell_angle_alpha   89.99601407
_cell_angle_beta   89.64110009
_cell_angle_gamma   60.23696431
_symmetry_Int_Tables_number   1
_chemical_formula_structural   Gd5Al31N36
_chemical_formula_sum   'Gd5 Al31 N36'
_cell_volume   849.39948625
_cell_formula_units_Z   1
loop_
 _symmetry_equiv_pos_site_id
 _symmetry_equiv_pos_as_xyz
  1  'x, y, z'
loop_
 _atom_site_type_symbol
 _atom_site_label
 _atom_site_symmetry_multiplicity
 _atom_site_fract_x
 _atom_site_fract_y
 _atom_site_fract_z
 _atom_site_occupancy
  Al  Al0  1  0.11720815  0.09536511  0.30908785  1
  Al  Al1  1  0.22366644  0.20138972  0.06081906  1
  Al  Al2  1  0.77168726  0.09676645  0.81701571  1
  Al  Al3  1  0.43951039  0.10064104  0.30730421  1
  Al  Al4  1  0.55551830  0.19900537  0.05935351  1
  Al  Al5  1  0.12003156  0.08807952  0.81388330  1
  Al  Al6  1  0.23033439  0.19973719  0.56215631  1
  Al  Al7  1  0.76523964  0.09706298  0.30304280  1
  Al  Al8  1  0.89616596  0.20321465  0.12534097  1
  Al  Al9  1  0.44925368  0.09640974  0.81041833  1
  Al  Al10  1  0.54560859  0.20513175  0.55993228  1
  Al  Al11  1  0.11191653  0.42441184  0.31826710  1
  Al  Al12  1  0.79943727  0.40668780  0.87981039  1
  Al  Al13  1  0.87234483  0.54214430  0.63218834  1
  Al  Al14  1  0.43850795  0.42158086  0.31789452  1
  Al  Al15  1  0.12009091  0.41854353  0.80042690  1
  Al  Al16  1  0.22570949  0.53596416  0.56432237  1
  Al  Al17  1  0.77585105  0.43906595  0.36929554  1
  Al  Al18  1  0.89559702  0.53025463  0.12807944  1
  Al  Al19  1  0.45515369  0.41740019  0.79802838  1
  Al  Al20  1  0.54319517  0.54465051  0.53984036  1
  Al  Al21  1  0.10290918  0.77172604  0.30918542  1
  Al  Al22  1  0.21342857  0.88784759  0.06557120  1
  Al  Al23  1  0.78314178  0.75779821  0.85616207  1
  Al  Al24  1  0.43193352  0.77704187  0.31446198  1
  Al  Al25  1  0.54935395  0.88594893  0.06607551  1
  Al  Al26  1  0.11821281  0.76019041  0.80915165  1
  Al  Al27  1  0.23097025  0.86799596  0.55339720  1
  Al  Al28  1  0.76898942  0.77045664  0.30616845  1
  Al  Al29  1  0.89061883  0.88175488  0.06146227  1
  Al  Al30  1  0.54953756  0.87554410  0.54743542  1
  Gd  Gd31  1  0.89395207  0.20048563  0.58720995  1
  Gd  Gd32  1  0.21803080  0.53990101  0.05832760  1
  Gd  Gd33  1  0.56049210  0.53722627  0.08741504  1
  Gd  Gd34  1  0.88787579  0.86081279  0.56947973  1
  Gd  Gd35  1  0.45352221  0.75794217  0.79839399  1
  N  N36  1  0.22189488  0.20526558  0.37497466  1
  N  N37  1  0.11713762  0.09642736  0.12476327  1
  N  N38  1  0.89745977  0.19756607  0.82368554  1
  N  N39  1  0.74058002  0.10352669  0.63649402  1
  N  N40  1  0.55275679  0.20302750  0.37398442  1
  N  N41  1  0.44215067  0.09886005  0.12225405  1
  N  N42  1  0.22655983  0.20418151  0.87187255  1
  N  N43  1  0.15575943  0.06865435  0.62981859  1
  N  N44  1  0.88332708  0.21193859  0.32744936  1
  N  N45  1  0.77243116  0.09783201  0.11485393  1
  N  N46  1  0.55216944  0.20752466  0.87314430  1
  N  N47  1  0.44302411  0.09327111  0.62026385  1
  N  N48  1  0.21364076  0.54582709  0.37083766  1
  N  N49  1  0.11339430  0.40488556  0.13365859  1
  N  N50  1  0.89090031  0.53289786  0.82286743  1
  N  N51  1  0.76291354  0.45461412  0.55169842  1
  N  N52  1  0.54472174  0.54461160  0.34754771  1
  N  N53  1  0.45253720  0.39475518  0.13997673  1
  N  N54  1  0.22886638  0.53185085  0.84072210  1
  N  N55  1  0.10964369  0.42386848  0.61279981  1
  N  N56  1  0.88061109  0.54642654  0.31531292  1
  N  N57  1  0.81907910  0.40545587  0.06335345  1
  N  N58  1  0.57315854  0.50743389  0.86373221  1
  N  N59  1  0.44653777  0.42529016  0.60721689  1
  N  N60  1  0.21020444  0.88165256  0.36965409  1
  N  N61  1  0.09749878  0.79238706  0.12874297  1
  N  N62  1  0.89763863  0.86890751  0.86935674  1
  N  N63  1  0.74783879  0.75575266  0.61875612  1
  N  N64  1  0.55113516  0.88164881  0.36046866  1
  N  N65  1  0.42495296  0.79861921  0.12811751  1
  N  N66  1  0.20494126  0.87957100  0.88333965  1
  N  N67  1  0.14589027  0.74805112  0.62713135  1
  N  N68  1  0.87928820  0.87850815  0.34942980  1
  N  N69  1  0.78131094  0.75960329  0.09929496  1
  N  N70  1  0.56577178  0.88987506  0.88410373  1
  N  N71  1  0.44614675  0.75838192  0.57931724  1
