# generated using pymatgen
data_Gd5Al31N36
_symmetry_space_group_name_H-M   'P 1'
_cell_length_a   9.62705653
_cell_length_b   9.68406428
_cell_length_c   10.71652280
_cell_angle_alpha   89.47940228
_cell_angle_beta   89.01264075
_cell_angle_gamma   59.66891647
_symmetry_Int_Tables_number   1
_chemical_formula_structural   Gd5Al31N36
_chemical_formula_sum   'Gd5 Al31 N36'
_cell_volume   862.20907180
_cell_formula_units_Z   1
loop_
 _symmetry_equiv_pos_site_id
 _symmetry_equiv_pos_as_xyz
  1  'x, y, z'
loop_
 _atom_site_type_symbol
 _atom_site_label
 _atom_site_symmetry_multiplicity
 _atom_site_fract_x
 _atom_site_fract_y
 _atom_site_fract_z
 _atom_site_occupancy
  Al  Al0  1  0.10967911  0.10338350  0.39978458  1
  Al  Al1  1  0.21642957  0.21007406  0.15387598  1
  Al  Al2  1  0.79277897  0.08321345  0.92501073  1
  Al  Al3  1  0.44325357  0.09704115  0.32897455  1
  Al  Al4  1  0.55259388  0.20143765  0.09479519  1
  Al  Al5  1  0.11534021  0.09365758  0.91766731  1
  Al  Al6  1  0.22622889  0.20202078  0.65327231  1
  Al  Al7  1  0.77133217  0.09979225  0.39588264  1
  Al  Al8  1  0.89973964  0.19839604  0.15719675  1
  Al  Al9  1  0.46231561  0.08906791  0.83306582  1
  Al  Al10  1  0.53783392  0.21347497  0.57156320  1
  Al  Al11  1  0.10587181  0.42787806  0.40830798  1
  Al  Al12  1  0.79756625  0.41095340  0.91650014  1
  Al  Al13  1  0.88015338  0.53991647  0.64684681  1
  Al  Al14  1  0.43212269  0.42737516  0.34088888  1
  Al  Al15  1  0.11201567  0.41393009  0.88918093  1
  Al  Al16  1  0.22248160  0.54369717  0.59049214  1
  Al  Al17  1  0.78184199  0.42903998  0.39314758  1
  Al  Al18  1  0.90049723  0.53084840  0.15548260  1
  Al  Al19  1  0.45887112  0.41082079  0.82114363  1
  Al  Al20  1  0.54392262  0.54588889  0.56149285  1
  Al  Al21  1  0.10641968  0.76850895  0.34079291  1
  Al  Al22  1  0.21682672  0.88140240  0.09730497  1
  Al  Al23  1  0.79665578  0.75182890  0.92201575  1
  Al  Al24  1  0.43172400  0.77699790  0.33418792  1
  Al  Al25  1  0.55102649  0.88487198  0.09011875  1
  Al  Al26  1  0.12399883  0.75394549  0.83069108  1
  Al  Al27  1  0.22590411  0.86719694  0.57106206  1
  Al  Al28  1  0.77557585  0.75598958  0.39662947  1
  Al  Al29  1  0.87730876  0.88118146  0.16580507  1
  Al  Al30  1  0.53937274  0.87706835  0.56498998  1
  Gd  Gd31  1  0.88593867  0.21364161  0.65929896  1
  Gd  Gd32  1  0.21856893  0.55437709  0.07454631  1
  Gd  Gd33  1  0.55571619  0.53915768  0.11159112  1
  Gd  Gd34  1  0.85848295  0.88030754  0.65790562  1
  Gd  Gd35  1  0.45853170  0.75410448  0.82584050  1
  N  N36  1  0.20996247  0.21771768  0.33632425  1
  N  N37  1  0.11467634  0.10184167  0.09718941  1
  N  N38  1  0.89913472  0.19365960  0.87159161  1
  N  N39  1  0.75987185  0.11137448  0.57054006  1
  N  N40  1  0.53581200  0.21197701  0.39377560  1
  N  N41  1  0.45020294  0.09333172  0.14971071  1
  N  N42  1  0.22352181  0.19470340  0.83606778  1
  N  N43  1  0.13656630  0.09180608  0.57881316  1
  N  N44  1  0.88769851  0.20654793  0.33966633  1
  N  N45  1  0.78083431  0.09430884  0.10486370  1
  N  N46  1  0.56146298  0.20047342  0.89335002  1
  N  N47  1  0.46072424  0.08317007  0.64675833  1
  N  N48  1  0.21364117  0.55118322  0.40312412  1
  N  N49  1  0.10376468  0.41103396  0.07429061  1
  N  N50  1  0.88552976  0.53712437  0.83680290  1
  N  N51  1  0.76819724  0.44974134  0.57133459  1
  N  N52  1  0.54543559  0.54450001  0.37484494  1
  N  N53  1  0.44493274  0.39891422  0.16857743  1
  N  N54  1  0.22943182  0.52638697  0.86092340  1
  N  N55  1  0.10783122  0.42280447  0.59340112  1
  N  N56  1  0.89232558  0.53833535  0.33560476  1
  N  N57  1  0.81465862  0.40928114  0.09644504  1
  N  N58  1  0.57247131  0.50342847  0.89383623  1
  N  N59  1  0.44785299  0.42638790  0.63492706  1
  N  N60  1  0.21470161  0.87361183  0.39331376  1
  N  N61  1  0.10142457  0.79248789  0.16657048  1
  N  N62  1  0.89899732  0.86451312  0.87100758  1
  N  N63  1  0.76521201  0.74155516  0.57424896  1
  N  N64  1  0.54135976  0.88345900  0.38757352  1
  N  N65  1  0.42746737  0.79970867  0.15672117  1
  N  N66  1  0.21213699  0.86360582  0.91489276  1
  N  N67  1  0.13177558  0.75826119  0.64989913  1
  N  N68  1  0.87073817  0.87939136  0.34842263  1
  N  N69  1  0.79036933  0.75166148  0.10322397  1
  N  N70  1  0.56956646  0.88570834  0.91039873  1
  N  N71  1  0.44187935  0.75989421  0.61452455  1
