# generated using pymatgen
data_Gd5Al31N36
_symmetry_space_group_name_H-M   'P 1'
_cell_length_a   9.70669092
_cell_length_b   9.69231241
_cell_length_c   10.37967908
_cell_angle_alpha   90.19088831
_cell_angle_beta   90.04272551
_cell_angle_gamma   60.23825685
_symmetry_Int_Tables_number   1
_chemical_formula_structural   Gd5Al31N36
_chemical_formula_sum   'Gd5 Al31 N36'
_cell_volume   847.71171686
_cell_formula_units_Z   1
loop_
 _symmetry_equiv_pos_site_id
 _symmetry_equiv_pos_as_xyz
  1  'x, y, z'
loop_
 _atom_site_type_symbol
 _atom_site_label
 _atom_site_symmetry_multiplicity
 _atom_site_fract_x
 _atom_site_fract_y
 _atom_site_fract_z
 _atom_site_occupancy
  Al  Al0  1  0.10942487  0.09965308  0.30696997  1
  Al  Al1  1  0.22478714  0.20074745  0.06276212  1
  Al  Al2  1  0.77232363  0.09290855  0.81877438  1
  Al  Al3  1  0.44204060  0.09924801  0.30924047  1
  Al  Al4  1  0.55548408  0.19842794  0.05958459  1
  Al  Al5  1  0.12043068  0.08735460  0.81647664  1
  Al  Al6  1  0.22982726  0.20013137  0.56149107  1
  Al  Al7  1  0.77090849  0.10072263  0.30063327  1
  Al  Al8  1  0.90105764  0.19363930  0.08079381  1
  Al  Al9  1  0.44781141  0.09709993  0.81199545  1
  Al  Al10  1  0.54780841  0.20448682  0.56018548  1
  Al  Al11  1  0.11335945  0.42398332  0.31952657  1
  Al  Al12  1  0.79692667  0.41294142  0.88022399  1
  Al  Al13  1  0.87413932  0.53962280  0.63372892  1
  Al  Al14  1  0.43963001  0.42108993  0.31795481  1
  Al  Al15  1  0.12099384  0.41788927  0.80028655  1
  Al  Al16  1  0.22640075  0.53647004  0.56401330  1
  Al  Al17  1  0.77811254  0.43803168  0.37059077  1
  Al  Al18  1  0.89529493  0.53077640  0.13136127  1
  Al  Al19  1  0.45566306  0.41731334  0.79825843  1
  Al  Al20  1  0.54232646  0.54614255  0.53928532  1
  Al  Al21  1  0.10392608  0.77179786  0.30754022  1
  Al  Al22  1  0.21468521  0.88511600  0.06636638  1
  Al  Al23  1  0.77499426  0.76406659  0.82294927  1
  Al  Al24  1  0.43303732  0.77870561  0.31623404  1
  Al  Al25  1  0.55218727  0.88431896  0.06553736  1
  Al  Al26  1  0.11519362  0.76059471  0.80842115  1
  Al  Al27  1  0.22836570  0.87060175  0.55227413  1
  Al  Al28  1  0.76941584  0.77329651  0.29900768  1
  Al  Al29  1  0.88731861  0.87651151  0.05959516  1
  Al  Al30  1  0.54881309  0.87609632  0.55168876  1
  Gd  Gd31  1  0.89267661  0.20160032  0.58295614  1
  Gd  Gd32  1  0.21825591  0.53820436  0.05645662  1
  Gd  Gd33  1  0.56099471  0.53755364  0.09019145  1
  Gd  Gd34  1  0.88605929  0.85825357  0.56332270  1
  Gd  Gd35  1  0.45087196  0.75826890  0.79925855  1
  N  N36  1  0.22293174  0.20385587  0.37476982  1
  N  N37  1  0.11530505  0.09607976  0.12236579  1
  N  N38  1  0.89819606  0.19315708  0.84619723  1
  N  N39  1  0.74521497  0.09929975  0.63810816  1
  N  N40  1  0.55596424  0.20260052  0.37436223  1
  N  N41  1  0.44355464  0.09746253  0.12378764  1
  N  N42  1  0.22668963  0.20435897  0.87350399  1
  N  N43  1  0.15259627  0.07138131  0.63279277  1
  N  N44  1  0.88487203  0.21032407  0.34483055  1
  N  N45  1  0.77447641  0.09618901  0.11163338  1
  N  N46  1  0.55211849  0.20743011  0.87329053  1
  N  N47  1  0.44299824  0.09432834  0.62157970  1
  N  N48  1  0.21526377  0.54594849  0.37164234  1
  N  N49  1  0.11362288  0.40479056  0.13522942  1
  N  N50  1  0.89359672  0.53018120  0.82173827  1
  N  N51  1  0.76134129  0.45800007  0.55400331  1
  N  N52  1  0.54542851  0.54525334  0.34815145  1
  N  N53  1  0.45288658  0.39429006  0.14022849  1
  N  N54  1  0.22952594  0.53207609  0.83876396  1
  N  N55  1  0.10971232  0.42486770  0.61208674  1
  N  N56  1  0.88253405  0.54710558  0.31939385  1
  N  N57  1  0.81826198  0.40840823  0.06344689  1
  N  N58  1  0.57245175  0.50837757  0.86492941  1
  N  N59  1  0.44808786  0.42526223  0.60789102  1
  N  N60  1  0.21035414  0.88323544  0.36852116  1
  N  N61  1  0.09701385  0.79018691  0.12696846  1
  N  N62  1  0.89507019  0.86538720  0.86837317  1
  N  N63  1  0.74314182  0.75926699  0.63929817  1
  N  N64  1  0.55594196  0.88027950  0.36623037  1
  N  N65  1  0.42569154  0.79955648  0.12994398  1
  N  N66  1  0.20401683  0.87823257  0.88406437  1
  N  N67  1  0.14109454  0.75157445  0.62567699  1
  N  N68  1  0.88071891  0.88032505  0.34735035  1
  N  N69  1  0.77701132  0.76285950  0.11258115  1
  N  N70  1  0.56562776  0.88951441  0.88449535  1
  N  N71  1  0.44412441  0.75996638  0.58016777  1
