# generated using pymatgen
data_Gd5Al31N36
_symmetry_space_group_name_H-M   'P 1'
_cell_length_a   9.71579434
_cell_length_b   9.72783110
_cell_length_c   10.49967227
_cell_angle_alpha   89.48559467
_cell_angle_beta   89.08660857
_cell_angle_gamma   60.16999533
_symmetry_Int_Tables_number   1
_chemical_formula_structural   Gd5Al31N36
_chemical_formula_sum   'Gd5 Al31 N36'
_cell_volume   860.76896333
_cell_formula_units_Z   1
loop_
 _symmetry_equiv_pos_site_id
 _symmetry_equiv_pos_as_xyz
  1  'x, y, z'
loop_
 _atom_site_type_symbol
 _atom_site_label
 _atom_site_symmetry_multiplicity
 _atom_site_fract_x
 _atom_site_fract_y
 _atom_site_fract_z
 _atom_site_occupancy
  Al  Al0  1  0.11135105  0.09920132  0.33659913  1
  Al  Al1  1  0.22359077  0.20103796  0.09814644  1
  Al  Al2  1  0.79577991  0.08212291  0.91892761  1
  Al  Al3  1  0.43287640  0.10286485  0.33010625  1
  Al  Al4  1  0.55326768  0.19956470  0.08452266  1
  Al  Al5  1  0.12375453  0.08197838  0.84186750  1
  Al  Al6  1  0.23144966  0.19886234  0.62335338  1
  Al  Al7  1  0.76397068  0.10134225  0.39409112  1
  Al  Al8  1  0.88906146  0.20230928  0.15674540  1
  Al  Al9  1  0.46069076  0.08963640  0.83558949  1
  Al  Al10  1  0.53584489  0.21265823  0.57309023  1
  Al  Al11  1  0.11012579  0.43158292  0.41076991  1
  Al  Al12  1  0.79953955  0.40938749  0.91421414  1
  Al  Al13  1  0.87617366  0.54287330  0.64989875  1
  Al  Al14  1  0.43042796  0.42520699  0.33492128  1
  Al  Al15  1  0.10841385  0.41801578  0.89117055  1
  Al  Al16  1  0.22846893  0.53069794  0.65435211  1
  Al  Al17  1  0.77926080  0.43206092  0.39268295  1
  Al  Al18  1  0.90137117  0.52984590  0.15639643  1
  Al  Al19  1  0.47040430  0.40613403  0.82980204  1
  Al  Al20  1  0.54140443  0.54631646  0.56117244  1
  Al  Al21  1  0.10669643  0.76910995  0.33843860  1
  Al  Al22  1  0.20861253  0.89354369  0.09377506  1
  Al  Al23  1  0.79382141  0.75415556  0.91882311  1
  Al  Al24  1  0.42793490  0.78095849  0.33649888  1
  Al  Al25  1  0.54962771  0.88471466  0.09146609  1
  Al  Al26  1  0.11893632  0.76342640  0.83735418  1
  Al  Al27  1  0.22938725  0.86838109  0.57807324  1
  Al  Al28  1  0.77430203  0.75495596  0.39366042  1
  Al  Al29  1  0.87607103  0.88231439  0.16463620  1
  Al  Al30  1  0.54270103  0.87708392  0.56546092  1
  Gd  Gd31  1  0.88040853  0.21513781  0.64414564  1
  Gd  Gd32  1  0.21926551  0.55351696  0.09068626  1
  Gd  Gd33  1  0.56154346  0.54086152  0.11805828  1
  Gd  Gd34  1  0.87875909  0.86868601  0.64151185  1
  Gd  Gd35  1  0.45646073  0.75427391  0.82706485  1
  N  N36  1  0.21683699  0.20824004  0.38697943  1
  N  N37  1  0.11245176  0.10096271  0.15135931  1
  N  N38  1  0.89842574  0.19556794  0.86287652  1
  N  N39  1  0.75283377  0.10705573  0.57275282  1
  N  N40  1  0.53320129  0.21335160  0.39168750  1
  N  N41  1  0.44213475  0.09823217  0.14479974  1
  N  N42  1  0.23418599  0.19481174  0.87172612  1
  N  N43  1  0.14802293  0.06710441  0.65717062  1
  N  N44  1  0.87683852  0.21143463  0.34480704  1
  N  N45  1  0.77951562  0.09270448  0.10224226  1
  N  N46  1  0.56291538  0.19859719  0.89678434  1
  N  N47  1  0.45551909  0.08613049  0.64767118  1
  N  N48  1  0.21025482  0.54814826  0.36474214  1
  N  N49  1  0.09953088  0.41740707  0.07535082  1
  N  N50  1  0.88581755  0.53811081  0.83858269  1
  N  N51  1  0.76297489  0.45597664  0.57243305  1
  N  N52  1  0.54218089  0.54609524  0.37190614  1
  N  N53  1  0.45687760  0.39386892  0.15842197  1
  N  N54  1  0.22944439  0.52810619  0.85440259  1
  N  N55  1  0.10718096  0.42951354  0.60390710  1
  N  N56  1  0.89314794  0.53644022  0.33822960  1
  N  N57  1  0.81794271  0.40683158  0.09506354  1
  N  N58  1  0.57580218  0.50543299  0.89576996  1
  N  N59  1  0.45448317  0.42054815  0.64228146  1
  N  N60  1  0.20882694  0.88328398  0.39784118  1
  N  N61  1  0.09479031  0.80176005  0.16000476  1
  N  N62  1  0.89598253  0.86615943  0.86341208  1
  N  N63  1  0.76305093  0.74269023  0.57617636  1
  N  N64  1  0.54331479  0.88441737  0.38334236  1
  N  N65  1  0.42105349  0.80293828  0.15308271  1
  N  N66  1  0.20644547  0.87647316  0.91304498  1
  N  N67  1  0.14640647  0.74961672  0.65510406  1
  N  N68  1  0.87201275  0.87897087  0.35200932  1
  N  N69  1  0.78765407  0.75246871  0.10465057  1
  N  N70  1  0.57082918  0.88417905  0.90800866  1
  N  N71  1  0.44645030  0.75793937  0.61103031  1
