# generated using pymatgen
data_Gd5Al31N36
_symmetry_space_group_name_H-M   'P 1'
_cell_length_a   9.69727749
_cell_length_b   9.70001786
_cell_length_c   10.38035138
_cell_angle_alpha   90.11328786
_cell_angle_beta   90.01023295
_cell_angle_gamma   60.15712170
_symmetry_Int_Tables_number   1
_chemical_formula_structural   Gd5Al31N36
_chemical_formula_sum   'Gd5 Al31 N36'
_cell_volume   846.93374010
_cell_formula_units_Z   1
loop_
 _symmetry_equiv_pos_site_id
 _symmetry_equiv_pos_as_xyz
  1  'x, y, z'
loop_
 _atom_site_type_symbol
 _atom_site_label
 _atom_site_symmetry_multiplicity
 _atom_site_fract_x
 _atom_site_fract_y
 _atom_site_fract_z
 _atom_site_occupancy
  Al  Al0  1  0.10611418  0.10094040  0.30326940  1
  Al  Al1  1  0.22441549  0.20004261  0.06281382  1
  Al  Al2  1  0.77230749  0.09320763  0.82045012  1
  Al  Al3  1  0.44213333  0.09913074  0.30916290  1
  Al  Al4  1  0.55533500  0.19794423  0.05951480  1
  Al  Al5  1  0.12166042  0.08650656  0.81793077  1
  Al  Al6  1  0.23049834  0.19946176  0.56140041  1
  Al  Al7  1  0.77262564  0.10146912  0.29741265  1
  Al  Al8  1  0.90247702  0.19024685  0.05774493  1
  Al  Al9  1  0.44838040  0.09716935  0.81198780  1
  Al  Al10  1  0.54890708  0.20516845  0.56010754  1
  Al  Al11  1  0.11283220  0.42319986  0.31958159  1
  Al  Al12  1  0.79468809  0.41760163  0.88024681  1
  Al  Al13  1  0.87492439  0.53992861  0.63260566  1
  Al  Al14  1  0.43969049  0.42037701  0.31776508  1
  Al  Al15  1  0.12181909  0.41749566  0.79976464  1
  Al  Al16  1  0.22579768  0.53670170  0.56277040  1
  Al  Al17  1  0.77712157  0.43787786  0.36932883  1
  Al  Al18  1  0.89368766  0.52988872  0.13197901  1
  Al  Al19  1  0.45521772  0.41770789  0.79723781  1
  Al  Al20  1  0.54234775  0.54598398  0.53899403  1
  Al  Al21  1  0.10408461  0.77145491  0.30724857  1
  Al  Al22  1  0.21533422  0.88427838  0.06648055  1
  Al  Al23  1  0.77575770  0.76431510  0.82253803  1
  Al  Al24  1  0.43292782  0.77897496  0.31675960  1
  Al  Al25  1  0.55262284  0.88389355  0.06583268  1
  Al  Al26  1  0.11611744  0.75980485  0.80803915  1
  Al  Al27  1  0.22783219  0.87125241  0.55153307  1
  Al  Al28  1  0.77017067  0.77315718  0.29908705  1
  Al  Al29  1  0.88760659  0.87571477  0.05971560  1
  Al  Al30  1  0.54981654  0.87603313  0.55049017  1
  Gd  Gd31  1  0.89491174  0.20109771  0.57638636  1
  Gd  Gd32  1  0.21664053  0.53710286  0.05662798  1
  Gd  Gd33  1  0.55821084  0.53818269  0.08882527  1
  Gd  Gd34  1  0.88482897  0.86220075  0.56346187  1
  Gd  Gd35  1  0.45129680  0.75958888  0.79718549  1
  N  N36  1  0.22205834  0.20283919  0.37440979  1
  N  N37  1  0.11226791  0.09667784  0.11899256  1
  N  N38  1  0.89971823  0.19110065  0.86110325  1
  N  N39  1  0.74637819  0.10368195  0.64047139  1
  N  N40  1  0.55718029  0.20178496  0.37401915  1
  N  N41  1  0.44338701  0.09709099  0.12372456  1
  N  N42  1  0.22706147  0.20434979  0.87338848  1
  N  N43  1  0.15253288  0.07138044  0.63508421  1
  N  N44  1  0.88453540  0.20953385  0.34951499  1
  N  N45  1  0.77547197  0.09596259  0.10892771  1
  N  N46  1  0.55154700  0.20818863  0.87324791  1
  N  N47  1  0.44450304  0.09387402  0.62116973  1
  N  N48  1  0.21485039  0.54540831  0.37105318  1
  N  N49  1  0.11236728  0.40355885  0.13553878  1
  N  N50  1  0.89412610  0.53039206  0.82088882  1
  N  N51  1  0.76153524  0.45809001  0.55452988  1
  N  N52  1  0.54494169  0.54494328  0.34787300  1
  N  N53  1  0.45186628  0.39362293  0.14012214  1
  N  N54  1  0.22951531  0.53193392  0.83871385  1
  N  N55  1  0.11051733  0.42415347  0.61171441  1
  N  N56  1  0.88195213  0.54698665  0.31998511  1
  N  N57  1  0.81514850  0.40955483  0.06380422  1
  N  N58  1  0.57189896  0.50946310  0.86220150  1
  N  N59  1  0.44742297  0.42579205  0.60708205  1
  N  N60  1  0.20903437  0.88446809  0.36776850  1
  N  N61  1  0.09803003  0.78885121  0.12662577  1
  N  N62  1  0.89576497  0.86514400  0.86796198  1
  N  N63  1  0.74435214  0.75986112  0.63858040  1
  N  N64  1  0.55643717  0.88025127  0.36574087  1
  N  N65  1  0.42588998  0.79987913  0.13072626  1
  N  N66  1  0.20555247  0.87663380  0.88383523  1
  N  N67  1  0.14085144  0.75169703  0.62490529  1
  N  N68  1  0.88083264  0.88084562  0.34692746  1
  N  N69  1  0.77771019  0.76219275  0.11268051  1
  N  N70  1  0.56627477  0.88944591  0.88451868  1
  N  N71  1  0.44424668  0.76051926  0.57802738  1
