# generated using pymatgen
data_Gd5Al31N36
_symmetry_space_group_name_H-M   'P 1'
_cell_length_a   9.71929065
_cell_length_b   9.72902663
_cell_length_c   10.51119198
_cell_angle_alpha   89.47471656
_cell_angle_beta   89.07369684
_cell_angle_gamma   60.15424792
_symmetry_Int_Tables_number   1
_chemical_formula_structural   Gd5Al31N36
_chemical_formula_sum   'Gd5 Al31 N36'
_cell_volume   861.99028051
_cell_formula_units_Z   1
loop_
 _symmetry_equiv_pos_site_id
 _symmetry_equiv_pos_as_xyz
  1  'x, y, z'
loop_
 _atom_site_type_symbol
 _atom_site_label
 _atom_site_symmetry_multiplicity
 _atom_site_fract_x
 _atom_site_fract_y
 _atom_site_fract_z
 _atom_site_occupancy
  Al  Al0  1  0.11001171  0.09818095  0.33608855  1
  Al  Al1  1  0.22101161  0.20616695  0.12495253  1
  Al  Al2  1  0.79590290  0.08209631  0.91897127  1
  Al  Al3  1  0.43542321  0.10176322  0.33006313  1
  Al  Al4  1  0.55340617  0.19964261  0.08422245  1
  Al  Al5  1  0.12271994  0.08162626  0.84181603  1
  Al  Al6  1  0.23107817  0.20105462  0.64825828  1
  Al  Al7  1  0.76403057  0.10133991  0.39425200  1
  Al  Al8  1  0.88833867  0.20236228  0.15644574  1
  Al  Al9  1  0.46274240  0.08904227  0.83535475  1
  Al  Al10  1  0.53575255  0.21243406  0.57291302  1
  Al  Al11  1  0.11103891  0.43018305  0.41015743  1
  Al  Al12  1  0.79952622  0.40949405  0.91420175  1
  Al  Al13  1  0.87660596  0.54251547  0.64950696  1
  Al  Al14  1  0.43023681  0.42538018  0.33490227  1
  Al  Al15  1  0.10905756  0.41683372  0.89194341  1
  Al  Al16  1  0.22835590  0.53052231  0.65366392  1
  Al  Al17  1  0.77921667  0.43226600  0.39266053  1
  Al  Al18  1  0.90109538  0.52998208  0.15628365  1
  Al  Al19  1  0.47020999  0.40634931  0.82968489  1
  Al  Al20  1  0.54141704  0.54626556  0.56107482  1
  Al  Al21  1  0.10675040  0.76886731  0.33826771  1
  Al  Al22  1  0.20873698  0.89326285  0.09325303  1
  Al  Al23  1  0.79395792  0.75407730  0.91865144  1
  Al  Al24  1  0.42796413  0.78094649  0.33643484  1
  Al  Al25  1  0.54949923  0.88463265  0.09102491  1
  Al  Al26  1  0.11900431  0.76325604  0.83706687  1
  Al  Al27  1  0.22929948  0.86827605  0.57780006  1
  Al  Al28  1  0.77450023  0.75477388  0.39384711  1
  Al  Al29  1  0.87611555  0.88226773  0.16460224  1
  Al  Al30  1  0.54255201  0.87725043  0.56542599  1
  Gd  Gd31  1  0.88032677  0.21517179  0.64393854  1
  Gd  Gd32  1  0.21923653  0.55346861  0.09028329  1
  Gd  Gd33  1  0.56140324  0.54093653  0.11806476  1
  Gd  Gd34  1  0.87856402  0.86881466  0.64158668  1
  Gd  Gd35  1  0.45663598  0.75410774  0.82666970  1
  N  N36  1  0.21505797  0.21224166  0.36687398  1
  N  N37  1  0.11067475  0.09957208  0.15014023  1
  N  N38  1  0.89819724  0.19573716  0.86291394  1
  N  N39  1  0.75292599  0.10708914  0.57258746  1
  N  N40  1  0.53342744  0.21353569  0.39176568  1
  N  N41  1  0.44454268  0.09698597  0.14444098  1
  N  N42  1  0.23243623  0.19924211  0.85269895  1
  N  N43  1  0.14702431  0.06633882  0.65570555  1
  N  N44  1  0.87640300  0.21159106  0.34468676  1
  N  N45  1  0.77940857  0.09266692  0.10206910  1
  N  N46  1  0.56305686  0.19882464  0.89688162  1
  N  N47  1  0.45766395  0.08462972  0.64700060  1
  N  N48  1  0.21023671  0.54826588  0.36491409  1
  N  N49  1  0.10075133  0.41501590  0.07503662  1
  N  N50  1  0.88615212  0.53801867  0.83862888  1
  N  N51  1  0.76289180  0.45610867  0.57223282  1
  N  N52  1  0.54212237  0.54609926  0.37183313  1
  N  N53  1  0.45652937  0.39394870  0.15838864  1
  N  N54  1  0.22921650  0.52829124  0.85468264  1
  N  N55  1  0.10831087  0.42738616  0.60239399  1
  N  N56  1  0.89283883  0.53676303  0.33796770  1
  N  N57  1  0.81778212  0.40698651  0.09499603  1
  N  N58  1  0.57572113  0.50547754  0.89585663  1
  N  N59  1  0.45446072  0.42040309  0.64235551  1
  N  N60  1  0.20892108  0.88307654  0.39768080  1
  N  N61  1  0.09497033  0.80131841  0.15984626  1
  N  N62  1  0.89595861  0.86627613  0.86335681  1
  N  N63  1  0.76330736  0.74250462  0.57610585  1
  N  N64  1  0.54336133  0.88423742  0.38352763  1
  N  N65  1  0.42100694  0.80305664  0.15311406  1
  N  N66  1  0.20670616  0.87642997  0.91276589  1
  N  N67  1  0.14633954  0.74933501  0.65501008  1
  N  N68  1  0.87192372  0.87904912  0.35176147  1
  N  N69  1  0.78799657  0.75220555  0.10424591  1
  N  N70  1  0.57061314  0.88424119  0.90799523  1
  N  N71  1  0.44643051  0.75782915  0.61093257  1
