# generated using pymatgen
data_Gd5Al31N36
_symmetry_space_group_name_H-M   'P 1'
_cell_length_a   9.68821050
_cell_length_b   9.70092340
_cell_length_c   10.61741992
_cell_angle_alpha   89.35660686
_cell_angle_beta   88.95248412
_cell_angle_gamma   60.00409031
_symmetry_Int_Tables_number   1
_chemical_formula_structural   Gd5Al31N36
_chemical_formula_sum   'Gd5 Al31 N36'
_cell_volume   864.07276248
_cell_formula_units_Z   1
loop_
 _symmetry_equiv_pos_site_id
 _symmetry_equiv_pos_as_xyz
  1  'x, y, z'
loop_
 _atom_site_type_symbol
 _atom_site_label
 _atom_site_symmetry_multiplicity
 _atom_site_fract_x
 _atom_site_fract_y
 _atom_site_fract_z
 _atom_site_occupancy
  Al  Al0  1  0.10714304  0.09602292  0.33248151  1
  Al  Al1  1  0.21803641  0.21308958  0.15217006  1
  Al  Al2  1  0.79561779  0.08219089  0.92022229  1
  Al  Al3  1  0.44302294  0.09855585  0.32810914  1
  Al  Al4  1  0.55122528  0.20191393  0.08459424  1
  Al  Al5  1  0.12263644  0.08005109  0.84367275  1
  Al  Al6  1  0.23146761  0.20209094  0.66099597  1
  Al  Al7  1  0.76545569  0.10117657  0.39556233  1
  Al  Al8  1  0.88749751  0.20340835  0.15463052  1
  Al  Al9  1  0.46402909  0.08901740  0.83682548  1
  Al  Al10  1  0.53736161  0.21106222  0.57375403  1
  Al  Al11  1  0.10715922  0.42647890  0.40969310  1
  Al  Al12  1  0.79807811  0.41038725  0.91420488  1
  Al  Al13  1  0.87957653  0.53990884  0.64852836  1
  Al  Al14  1  0.43176004  0.42595903  0.33867692  1
  Al  Al15  1  0.11172563  0.41582935  0.89411927  1
  Al  Al16  1  0.22830723  0.53697525  0.59673992  1
  Al  Al17  1  0.77892288  0.43250677  0.39208084  1
  Al  Al18  1  0.90018231  0.53130053  0.15493854  1
  Al  Al19  1  0.45950130  0.41160942  0.82578389  1
  Al  Al20  1  0.54309134  0.54597869  0.56080512  1
  Al  Al21  1  0.10652602  0.77018880  0.34292288  1
  Al  Al22  1  0.20925659  0.89220209  0.09306633  1
  Al  Al23  1  0.79534705  0.75311546  0.91947781  1
  Al  Al24  1  0.42883534  0.78098797  0.33584824  1
  Al  Al25  1  0.54942560  0.88533379  0.09003815  1
  Al  Al26  1  0.12355765  0.75406710  0.83224281  1
  Al  Al27  1  0.22822400  0.86978320  0.57834684  1
  Al  Al28  1  0.77523142  0.75511440  0.39530158  1
  Al  Al29  1  0.87719495  0.88179800  0.16563585  1
  Al  Al30  1  0.54297594  0.87634907  0.56610734  1
  Gd  Gd31  1  0.87960967  0.21607444  0.64759761  1
  Gd  Gd32  1  0.21908862  0.55538242  0.08070437  1
  Gd  Gd33  1  0.55751464  0.54114430  0.11566548  1
  Gd  Gd34  1  0.87374841  0.87091245  0.64778189  1
  Gd  Gd35  1  0.45724930  0.75393152  0.82556543  1
  N  N36  1  0.21354524  0.21778176  0.34195382  1
  N  N37  1  0.10983529  0.09848142  0.14919250  1
  N  N38  1  0.89790887  0.19583193  0.86423023  1
  N  N39  1  0.75576574  0.10673876  0.57150534  1
  N  N40  1  0.53384219  0.21326305  0.39429922  1
  N  N41  1  0.44836570  0.09529093  0.14623409  1
  N  N42  1  0.23150603  0.20119480  0.84567102  1
  N  N43  1  0.14692103  0.06626007  0.65699778  1
  N  N44  1  0.87498260  0.21272590  0.34223090  1
  N  N45  1  0.77938497  0.09310133  0.10149741  1
  N  N46  1  0.56116733  0.20162483  0.89758349  1
  N  N47  1  0.46060339  0.08242215  0.64843843  1
  N  N48  1  0.21472913  0.55052003  0.40131282  1
  N  N49  1  0.10255857  0.41354616  0.07787669  1
  N  N50  1  0.88727854  0.53696351  0.83783098  1
  N  N51  1  0.76477220  0.45510379  0.56998328  1
  N  N52  1  0.54234087  0.54691551  0.37227926  1
  N  N53  1  0.44925849  0.39606972  0.16453321  1
  N  N54  1  0.22995078  0.52866232  0.86492079  1
  N  N55  1  0.10839874  0.41952265  0.59597739  1
  N  N56  1  0.89321151  0.53758455  0.33598130  1
  N  N57  1  0.81514760  0.40947724  0.09394660  1
  N  N58  1  0.57286567  0.50509604  0.89530635  1
  N  N59  1  0.45185550  0.42208319  0.63836579  1
  N  N60  1  0.20931314  0.88468847  0.39929490  1
  N  N61  1  0.09943532  0.79600657  0.16634219  1
  N  N62  1  0.89771027  0.86532407  0.86464415  1
  N  N63  1  0.76578898  0.74074340  0.57487447  1
  N  N64  1  0.54307968  0.88420717  0.38593989  1
  N  N65  1  0.42219943  0.80280568  0.15467477  1
  N  N66  1  0.20694947  0.87259509  0.91308740  1
  N  N67  1  0.14332606  0.74872662  0.65092490  1
  N  N68  1  0.87144324  0.87947063  0.35083581  1
  N  N69  1  0.78912513  0.75268775  0.10328003  1
  N  N70  1  0.57057659  0.88371487  0.90898729  1
  N  N71  1  0.44636655  0.75726080  0.61154987  1
