# generated using pymatgen
data_Gd5Al31N36
_symmetry_space_group_name_H-M   'P 1'
_cell_length_a   9.73516743
_cell_length_b   9.70974360
_cell_length_c   10.35639707
_cell_angle_alpha   89.98406989
_cell_angle_beta   89.62390345
_cell_angle_gamma   60.23413353
_symmetry_Int_Tables_number   1
_chemical_formula_structural   Gd5Al31N36
_chemical_formula_sum   'Gd5 Al31 N36'
_cell_volume   849.76412439
_cell_formula_units_Z   1
loop_
 _symmetry_equiv_pos_site_id
 _symmetry_equiv_pos_as_xyz
  1  'x, y, z'
loop_
 _atom_site_type_symbol
 _atom_site_label
 _atom_site_symmetry_multiplicity
 _atom_site_fract_x
 _atom_site_fract_y
 _atom_site_fract_z
 _atom_site_occupancy
  Al  Al0  1  0.11718647  0.09535463  0.30911201  1
  Al  Al1  1  0.22355203  0.20149283  0.06071886  1
  Al  Al2  1  0.77153854  0.09691680  0.81706045  1
  Al  Al3  1  0.43928163  0.10088630  0.30707926  1
  Al  Al4  1  0.55549262  0.19904225  0.05930154  1
  Al  Al5  1  0.12000288  0.08813566  0.81387101  1
  Al  Al6  1  0.23024788  0.19980877  0.56220497  1
  Al  Al7  1  0.76517029  0.09705268  0.30304401  1
  Al  Al8  1  0.89621724  0.20331387  0.12530009  1
  Al  Al9  1  0.44930234  0.09637364  0.81027025  1
  Al  Al10  1  0.54545838  0.20525839  0.55992999  1
  Al  Al11  1  0.11206162  0.42432017  0.31820230  1
  Al  Al12  1  0.79933733  0.40684150  0.87961106  1
  Al  Al13  1  0.87216158  0.54273970  0.63164618  1
  Al  Al14  1  0.43850117  0.42158468  0.31792925  1
  Al  Al15  1  0.11984444  0.41877805  0.80022537  1
  Al  Al16  1  0.22569745  0.53594939  0.56436350  1
  Al  Al17  1  0.77570405  0.43881895  0.36937254  1
  Al  Al18  1  0.89554921  0.53048669  0.12815014  1
  Al  Al19  1  0.45510532  0.41736214  0.79799092  1
  Al  Al20  1  0.54323316  0.54466193  0.53997312  1
  Al  Al21  1  0.10296771  0.77164845  0.30933058  1
  Al  Al22  1  0.21344689  0.88788926  0.06553677  1
  Al  Al23  1  0.78458857  0.75634054  0.86599296  1
  Al  Al24  1  0.43164999  0.77702271  0.31420635  1
  Al  Al25  1  0.54884161  0.88615684  0.06598496  1
  Al  Al26  1  0.11832707  0.76013311  0.80916539  1
  Al  Al27  1  0.23107176  0.86789771  0.55352558  1
  Al  Al28  1  0.76898714  0.76959477  0.31269521  1
  Al  Al29  1  0.89127184  0.88214310  0.06164641  1
  Al  Al30  1  0.54878211  0.87603263  0.54694551  1
  Gd  Gd31  1  0.89394306  0.20040275  0.58731327  1
  Gd  Gd32  1  0.21806115  0.53988195  0.05840877  1
  Gd  Gd33  1  0.56061475  0.53705063  0.08737367  1
  Gd  Gd34  1  0.88825106  0.86164186  0.57046801  1
  Gd  Gd35  1  0.45337315  0.75793024  0.79852018  1
  N  N36  1  0.22178266  0.20533546  0.37493988  1
  N  N37  1  0.11718086  0.09642128  0.12479472  1
  N  N38  1  0.89747219  0.19766220  0.82373548  1
  N  N39  1  0.73991874  0.10441245  0.63677441  1
  N  N40  1  0.55271661  0.20296200  0.37392240  1
  N  N41  1  0.44215298  0.09887555  0.12210082  1
  N  N42  1  0.22638172  0.20436497  0.87184471  1
  N  N43  1  0.15583713  0.06859367  0.62984004  1
  N  N44  1  0.88330648  0.21189129  0.32733206  1
  N  N45  1  0.77241856  0.09787258  0.11493047  1
  N  N46  1  0.55206447  0.20754851  0.87323591  1
  N  N47  1  0.44292346  0.09333346  0.62016804  1
  N  N48  1  0.21358822  0.54579779  0.37078915  1
  N  N49  1  0.11336617  0.40488915  0.13371489  1
  N  N50  1  0.88997589  0.53403339  0.82218783  1
  N  N51  1  0.76295722  0.45415516  0.55170454  1
  N  N52  1  0.54464832  0.54467765  0.34754502  1
  N  N53  1  0.45255616  0.39471400  0.14001562  1
  N  N54  1  0.22874578  0.53182557  0.84086684  1
  N  N55  1  0.10972936  0.42374566  0.61278164  1
  N  N56  1  0.88034569  0.54637216  0.31486566  1
  N  N57  1  0.81921733  0.40554580  0.06322201  1
  N  N58  1  0.57310842  0.50734983  0.86379874  1
  N  N59  1  0.44642157  0.42534161  0.60717485  1
  N  N60  1  0.21018885  0.88161785  0.36970147  1
  N  N61  1  0.09769808  0.79238441  0.12892700  1
  N  N62  1  0.89783593  0.86922453  0.86915904  1
  N  N63  1  0.74937697  0.75441707  0.60999079  1
  N  N64  1  0.54988921  0.88222593  0.35984473  1
  N  N65  1  0.42497464  0.79847293  0.12792105  1
  N  N66  1  0.20485047  0.87966267  0.88342702  1
  N  N67  1  0.14663224  0.74756624  0.62731187  1
  N  N68  1  0.87937992  0.87851433  0.34952393  1
  N  N69  1  0.78260657  0.75809834  0.09371949  1
  N  N70  1  0.56565041  0.88988112  0.88355335  1
  N  N71  1  0.44614747  0.75839861  0.57956445  1
