# generated using pymatgen
data_Gd5Al31N36
_symmetry_space_group_name_H-M   'P 1'
_cell_length_a   9.73566088
_cell_length_b   9.74241299
_cell_length_c   10.31505613
_cell_angle_alpha   89.59466347
_cell_angle_beta   90.17687920
_cell_angle_gamma   59.77100536
_symmetry_Int_Tables_number   1
_chemical_formula_structural   Gd5Al31N36
_chemical_formula_sum   'Gd5 Al31 N36'
_cell_volume   845.28605830
_cell_formula_units_Z   1
loop_
 _symmetry_equiv_pos_site_id
 _symmetry_equiv_pos_as_xyz
  1  'x, y, z'
loop_
 _atom_site_type_symbol
 _atom_site_label
 _atom_site_symmetry_multiplicity
 _atom_site_fract_x
 _atom_site_fract_y
 _atom_site_fract_z
 _atom_site_occupancy
  Al  Al0  1  0.11585737  0.10021714  0.38866046  1
  Al  Al1  1  0.22294429  0.20186977  0.14734604  1
  Al  Al2  1  0.77688235  0.09543513  0.91513111  1
  Al  Al3  1  0.44230877  0.10047114  0.39721960  1
  Al  Al4  1  0.55689042  0.19541424  0.14663742  1
  Al  Al5  1  0.10279230  0.10871510  0.91271509  1
  Al  Al6  1  0.22985735  0.20247512  0.64840579  1
  Al  Al7  1  0.76960949  0.09954422  0.38805209  1
  Al  Al8  1  0.89384132  0.20289209  0.15175933  1
  Al  Al9  1  0.45026144  0.09740336  0.89625717  1
  Al  Al10  1  0.54983021  0.20535193  0.64731948  1
  Al  Al11  1  0.10940032  0.42704980  0.40887905  1
  Al  Al12  1  0.78544222  0.42147903  0.90146451  1
  Al  Al13  1  0.88180223  0.54242580  0.64801233  1
  Al  Al14  1  0.44307329  0.42646055  0.41454531  1
  Al  Al15  1  0.10738264  0.42518680  0.89113438  1
  Al  Al16  1  0.22454687  0.53884575  0.64973304  1
  Al  Al17  1  0.77846208  0.43264362  0.40190268  1
  Al  Al18  1  0.89217441  0.53171878  0.14739455  1
  Al  Al19  1  0.45152420  0.41255124  0.88464556  1
  Al  Al20  1  0.55872052  0.53439334  0.64379127  1
  Al  Al21  1  0.11217395  0.75732969  0.39955222  1
  Al  Al22  1  0.21313941  0.88283898  0.09214077  1
  Al  Al23  1  0.77902312  0.76362218  0.90786671  1
  Al  Al24  1  0.44742243  0.76433221  0.37788695  1
  Al  Al25  1  0.55276582  0.87889250  0.15012950  1
  Al  Al26  1  0.09989945  0.76515611  0.91054083  1
  Al  Al27  1  0.23663091  0.86817487  0.57439420  1
  Al  Al28  1  0.77591153  0.75777022  0.39224981  1
  Al  Al29  1  0.88475169  0.87424212  0.15347496  1
  Al  Al30  1  0.55715960  0.87712046  0.64080640  1
  Gd  Gd31  1  0.89481397  0.20113616  0.64802906  1
  Gd  Gd32  1  0.22283290  0.52470904  0.14941847  1
  Gd  Gd33  1  0.55780550  0.52939844  0.14615265  1
  Gd  Gd34  1  0.88332687  0.86880176  0.65090994  1
  Gd  Gd35  1  0.44289115  0.76642021  0.86687649  1
  N  N36  1  0.22356626  0.21289275  0.33530762  1
  N  N37  1  0.10887699  0.10183426  0.10264006  1
  N  N38  1  0.88874444  0.20344836  0.86608470  1
  N  N39  1  0.74746036  0.10927791  0.56796301  1
  N  N40  1  0.54679651  0.21413130  0.33374728  1
  N  N41  1  0.44457123  0.09278312  0.08654575  1
  N  N42  1  0.22464375  0.20174405  0.83772704  1
  N  N43  1  0.14159360  0.08888768  0.57438795  1
  N  N44  1  0.88769691  0.20953507  0.34285320  1
  N  N45  1  0.77680642  0.09441350  0.10328458  1
  N  N46  1  0.56310931  0.19710843  0.83354151  1
  N  N47  1  0.44329076  0.09834969  0.58457158  1
  N  N48  1  0.22256189  0.53487575  0.36759037  1
  N  N49  1  0.09706173  0.40959702  0.07432670  1
  N  N50  1  0.88372677  0.54405345  0.83697211  1
  N  N51  1  0.76949067  0.44840419  0.58350800  1
  N  N52  1  0.55222562  0.54008234  0.36558261  1
  N  N53  1  0.45886742  0.39128329  0.06404582  1
  N  N54  1  0.21800052  0.54224218  0.84264491  1
  N  N55  1  0.10754245  0.42848769  0.59727092  1
  N  N56  1  0.89217536  0.53647748  0.33613794  1
  N  N57  1  0.80321410  0.41406212  0.08546962  1
  N  N58  1  0.57577857  0.50346814  0.83316807  1
  N  N59  1  0.44381504  0.42514201  0.59956627  1
  N  N60  1  0.22476580  0.87178189  0.37622780  1
  N  N61  1  0.09672267  0.77854791  0.09909045  1
  N  N62  1  0.88494761  0.87528729  0.86990148  1
  N  N63  1  0.76342853  0.74712724  0.57362021  1
  N  N64  1  0.55412460  0.87914501  0.33828293  1
  N  N65  1  0.43308943  0.78590733  0.10338850  1
  N  N66  1  0.18780309  0.89296526  0.89287706  1
  N  N67  1  0.13452170  0.75005257  0.58612914  1
  N  N68  1  0.88773019  0.87095556  0.34384054  1
  N  N69  1  0.77589641  0.75780067  0.09665092  1
  N  N70  1  0.57808782  0.89119299  0.82649224  1
  N  N71  1  0.45019112  0.76046512  0.61590284  1
