# generated using pymatgen
data_Gd5Al31N36
_symmetry_space_group_name_H-M   'P 1'
_cell_length_a   9.70958093
_cell_length_b   9.71640157
_cell_length_c   10.59137208
_cell_angle_alpha   89.54851409
_cell_angle_beta   89.72351447
_cell_angle_gamma   59.66281887
_symmetry_Int_Tables_number   1
_chemical_formula_structural   Gd5Al31N36
_chemical_formula_sum   'Gd5 Al31 N36'
_cell_volume   862.36172254
_cell_formula_units_Z   1
loop_
 _symmetry_equiv_pos_site_id
 _symmetry_equiv_pos_as_xyz
  1  'x, y, z'
loop_
 _atom_site_type_symbol
 _atom_site_label
 _atom_site_symmetry_multiplicity
 _atom_site_fract_x
 _atom_site_fract_y
 _atom_site_fract_z
 _atom_site_occupancy
  Al  Al0  1  0.11050159  0.10528463  0.39360151  1
  Al  Al1  1  0.21356048  0.20502696  0.15012957  1
  Al  Al2  1  0.78133607  0.09257972  0.91793000  1
  Al  Al3  1  0.44088385  0.09698717  0.32828985  1
  Al  Al4  1  0.56169818  0.19467002  0.15015516  1
  Al  Al5  1  0.10932387  0.10132010  0.91675753  1
  Al  Al6  1  0.22451392  0.20357665  0.65129523  1
  Al  Al7  1  0.76844417  0.10244357  0.39256593  1
  Al  Al8  1  0.89783619  0.19684846  0.15521769  1
  Al  Al9  1  0.45653082  0.08914418  0.83054611  1
  Al  Al10  1  0.55358705  0.21311433  0.64623108  1
  Al  Al11  1  0.10722400  0.42954808  0.41331075  1
  Al  Al12  1  0.79198856  0.41761385  0.91618493  1
  Al  Al13  1  0.88012376  0.54337644  0.64976081  1
  Al  Al14  1  0.43597743  0.42360115  0.40674902  1
  Al  Al15  1  0.11019842  0.42028126  0.89293079  1
  Al  Al16  1  0.22585675  0.54002736  0.64951194  1
  Al  Al17  1  0.78491489  0.42923682  0.39306598  1
  Al  Al18  1  0.89352408  0.53099927  0.15302362  1
  Al  Al19  1  0.45442981  0.40960323  0.89654178  1
  Al  Al20  1  0.54910391  0.55125701  0.56371325  1
  Al  Al21  1  0.10703403  0.76298011  0.38678895  1
  Al  Al22  1  0.21992479  0.87869274  0.09414854  1
  Al  Al23  1  0.79103038  0.75534772  0.91899983  1
  Al  Al24  1  0.43465483  0.77964712  0.32935249  1
  Al  Al25  1  0.55026407  0.88406631  0.08741770  1
  Al  Al26  1  0.10997415  0.75760978  0.90834213  1
  Al  Al27  1  0.23331833  0.86768959  0.56212487  1
  Al  Al28  1  0.77820017  0.75747978  0.39494823  1
  Al  Al29  1  0.88441203  0.87458850  0.15872530  1
  Al  Al30  1  0.54324244  0.88102292  0.56621822  1
  Gd  Gd31  1  0.88940331  0.21005944  0.65442530  1
  Gd  Gd32  1  0.21605892  0.52262216  0.15299136  1
  Gd  Gd33  1  0.55538266  0.52771949  0.12900367  1
  Gd  Gd34  1  0.88013604  0.87208793  0.65354057  1
  Gd  Gd35  1  0.45140390  0.75831178  0.82815933  1
  N  N36  1  0.21137738  0.22074168  0.33695062  1
  N  N37  1  0.11039444  0.09889208  0.10053534  1
  N  N38  1  0.89420488  0.20013136  0.86925790  1
  N  N39  1  0.75058209  0.11297642  0.56761284  1
  N  N40  1  0.55074275  0.21638513  0.33454232  1
  N  N41  1  0.44293375  0.09175863  0.14660712  1
  N  N42  1  0.22068219  0.20039628  0.83746899  1
  N  N43  1  0.13756188  0.09119628  0.57466521  1
  N  N44  1  0.88799572  0.20749027  0.34058016  1
  N  N45  1  0.77851974  0.09233698  0.10135893  1
  N  N46  1  0.57343184  0.19940510  0.83039085  1
  N  N47  1  0.45215905  0.08648852  0.64265157  1
  N  N48  1  0.21722131  0.53796687  0.36598847  1
  N  N49  1  0.09458237  0.40788218  0.07113469  1
  N  N50  1  0.88419343  0.54154702  0.83789089  1
  N  N51  1  0.77110345  0.45055349  0.57303022  1
  N  N52  1  0.54784765  0.54548980  0.37165944  1
  N  N53  1  0.44954103  0.38440532  0.07009892  1
  N  N54  1  0.22439289  0.53581121  0.84163416  1
  N  N55  1  0.10870269  0.42800157  0.59798608  1
  N  N56  1  0.89343411  0.53885716  0.33654868  1
  N  N57  1  0.80966911  0.40834902  0.09770504  1
  N  N58  1  0.57312807  0.51258428  0.89430334  1
  N  N59  1  0.44290024  0.42837844  0.58907842  1
  N  N60  1  0.21839796  0.87745730  0.37817675  1
  N  N61  1  0.10087995  0.77950699  0.11655923  1
  N  N62  1  0.89237156  0.86969207  0.87049673  1
  N  N63  1  0.76758062  0.74578016  0.57566076  1
  N  N64  1  0.54534465  0.88439796  0.38572194  1
  N  N65  1  0.43112879  0.79330720  0.14918686  1
  N  N66  1  0.20788897  0.87802874  0.90840779  1
  N  N67  1  0.13092822  0.75189867  0.58739080  1
  N  N68  1  0.88051791  0.87669779  0.34421077  1
  N  N69  1  0.78667933  0.75192362  0.10290159  1
  N  N70  1  0.56742103  0.89009402  0.90767101  1
  N  N71  1  0.44464308  0.76306564  0.61257330  1
