# generated using pymatgen
data_Gd5Al31N36
_symmetry_space_group_name_H-M   'P 1'
_cell_length_a   9.68729340
_cell_length_b   9.69266083
_cell_length_c   10.52106395
_cell_angle_alpha   89.80956270
_cell_angle_beta   89.42795284
_cell_angle_gamma   60.16004612
_symmetry_Int_Tables_number   1
_chemical_formula_structural   Gd5Al31N36
_chemical_formula_sum   'Gd5 Al31 N36'
_cell_volume   856.86317469
_cell_formula_units_Z   1
loop_
 _symmetry_equiv_pos_site_id
 _symmetry_equiv_pos_as_xyz
  1  'x, y, z'
loop_
 _atom_site_type_symbol
 _atom_site_label
 _atom_site_symmetry_multiplicity
 _atom_site_fract_x
 _atom_site_fract_y
 _atom_site_fract_z
 _atom_site_occupancy
  Al  Al0  1  0.11312866  0.09588078  0.30829096  1
  Al  Al1  1  0.22118975  0.20267347  0.06030233  1
  Al  Al2  1  0.79391002  0.08487664  0.88936983  1
  Al  Al3  1  0.43527614  0.10018171  0.30161683  1
  Al  Al4  1  0.55042936  0.20165078  0.05785244  1
  Al  Al5  1  0.12556969  0.08530684  0.81673432  1
  Al  Al6  1  0.23151515  0.19837065  0.56014238  1
  Al  Al7  1  0.76448528  0.10219755  0.36683059  1
  Al  Al8  1  0.89257900  0.20224324  0.12790249  1
  Al  Al9  1  0.45391442  0.09557753  0.81007265  1
  Al  Al10  1  0.53654849  0.21308478  0.54702721  1
  Al  Al11  1  0.11124320  0.42305599  0.31671804  1
  Al  Al12  1  0.80076291  0.41102616  0.88236638  1
  Al  Al13  1  0.87337810  0.54512294  0.62180065  1
  Al  Al14  1  0.43194134  0.42531967  0.31007752  1
  Al  Al15  1  0.11972015  0.41971366  0.79535583  1
  Al  Al16  1  0.22566800  0.53603320  0.56105389  1
  Al  Al17  1  0.77553384  0.43360152  0.36799178  1
  Al  Al18  1  0.89293317  0.53338610  0.13288099  1
  Al  Al19  1  0.45935843  0.41361689  0.79703810  1
  Al  Al20  1  0.54185929  0.54576579  0.53685352  1
  Al  Al21  1  0.10754679  0.76819616  0.31656288  1
  Al  Al22  1  0.21089958  0.88761644  0.06655268  1
  Al  Al23  1  0.79469627  0.75550025  0.88952419  1
  Al  Al24  1  0.43054528  0.77811749  0.30851624  1
  Al  Al25  1  0.55073431  0.88453970  0.06324505  1
  Al  Al26  1  0.12418209  0.75591878  0.80438873  1
  Al  Al27  1  0.23163977  0.86927927  0.55289689  1
  Al  Al28  1  0.77138049  0.75824267  0.36984143  1
  Al  Al29  1  0.87915016  0.88105207  0.13757101  1
  Al  Al30  1  0.54157447  0.87918805  0.54175805  1
  Gd  Gd31  1  0.88802742  0.21269206  0.61453995  1
  Gd  Gd32  1  0.20908420  0.54660296  0.05316832  1
  Gd  Gd33  1  0.56066573  0.53682393  0.08529499  1
  Gd  Gd34  1  0.87766911  0.87202540  0.61630395  1
  Gd  Gd35  1  0.45577566  0.75625745  0.80113634  1
  N  N36  1  0.21781553  0.20485677  0.37522278  1
  N  N37  1  0.11674044  0.09590661  0.12506899  1
  N  N38  1  0.89873565  0.19611151  0.83153551  1
  N  N39  1  0.75362694  0.10971177  0.54470259  1
  N  N40  1  0.53329593  0.21253203  0.36438048  1
  N  N41  1  0.44209305  0.09708735  0.11885564  1
  N  N42  1  0.22685831  0.20572500  0.87180663  1
  N  N43  1  0.15708269  0.06855172  0.63228190  1
  N  N44  1  0.87802859  0.21245462  0.31675223  1
  N  N45  1  0.78032775  0.09348459  0.07420376  1
  N  N46  1  0.55902275  0.20381845  0.86910830  1
  N  N47  1  0.45013706  0.09125764  0.62073392  1
  N  N48  1  0.21141214  0.54521873  0.37255086  1
  N  N49  1  0.11382750  0.40523108  0.13512460  1
  N  N50  1  0.88424193  0.54208146  0.81102810  1
  N  N51  1  0.76284824  0.45519335  0.54687686  1
  N  N52  1  0.54076611  0.54573982  0.34649021  1
  N  N53  1  0.44610683  0.39932913  0.13377032  1
  N  N54  1  0.23043300  0.53053359  0.83751286  1
  N  N55  1  0.11217889  0.42140202  0.61145014  1
  N  N56  1  0.87813813  0.54480692  0.31330411  1
  N  N57  1  0.82181033  0.40575841  0.06178538  1
  N  N58  1  0.57516130  0.50554632  0.86480276  1
  N  N59  1  0.44832109  0.42469103  0.60862869  1
  N  N60  1  0.21138722  0.88218610  0.37203187  1
  N  N61  1  0.10262163  0.78960670  0.13787437  1
  N  N62  1  0.89799867  0.86665400  0.83476490  1
  N  N63  1  0.76254635  0.74526427  0.55046492  1
  N  N64  1  0.54136420  0.88544032  0.35894552  1
  N  N65  1  0.42579488  0.79793678  0.12518114  1
  N  N66  1  0.20472484  0.87695040  0.88514531  1
  N  N67  1  0.14614777  0.74766318  0.62058403  1
  N  N68  1  0.87291517  0.87877883  0.32494114  1
  N  N69  1  0.79162193  0.75138128  0.07480035  1
  N  N70  1  0.56975603  0.88817295  0.88090509  1
  N  N71  1  0.44846340  0.75731844  0.58630747  1
