# generated using pymatgen
data_Gd5Al31N36
_symmetry_space_group_name_H-M   'P 1'
_cell_length_a   9.68818533
_cell_length_b   9.71004175
_cell_length_c   10.54541004
_cell_angle_alpha   89.48478430
_cell_angle_beta   89.09822495
_cell_angle_gamma   60.00442896
_symmetry_Int_Tables_number   1
_chemical_formula_structural   Gd5Al31N36
_chemical_formula_sum   'Gd5 Al31 N36'
_cell_volume   859.05873973
_cell_formula_units_Z   1
loop_
 _symmetry_equiv_pos_site_id
 _symmetry_equiv_pos_as_xyz
  1  'x, y, z'
loop_
 _atom_site_type_symbol
 _atom_site_label
 _atom_site_symmetry_multiplicity
 _atom_site_fract_x
 _atom_site_fract_y
 _atom_site_fract_z
 _atom_site_occupancy
  Al  Al0  1  0.11228336  0.09834232  0.31561659  1
  Al  Al1  1  0.22488228  0.19700065  0.06031172  1
  Al  Al2  1  0.79544591  0.08191469  0.90010396  1
  Al  Al3  1  0.43430381  0.10188439  0.30862676  1
  Al  Al4  1  0.54984062  0.20158899  0.06500842  1
  Al  Al5  1  0.12716675  0.08015920  0.82249587  1
  Al  Al6  1  0.23157384  0.19515757  0.56947616  1
  Al  Al7  1  0.76481097  0.10162635  0.37642549  1
  Al  Al8  1  0.88990610  0.20251114  0.13670874  1
  Al  Al9  1  0.45693763  0.09082781  0.81556399  1
  Al  Al10  1  0.53594793  0.21268126  0.55495662  1
  Al  Al11  1  0.10211950  0.43337718  0.39183074  1
  Al  Al12  1  0.79974026  0.40866712  0.89440812  1
  Al  Al13  1  0.87876918  0.54197238  0.62989298  1
  Al  Al14  1  0.43367675  0.42492650  0.31915354  1
  Al  Al15  1  0.11112503  0.41919218  0.87022701  1
  Al  Al16  1  0.22797034  0.54020158  0.57301634  1
  Al  Al17  1  0.77923374  0.43157286  0.37264331  1
  Al  Al18  1  0.89998769  0.53049590  0.13541599  1
  Al  Al19  1  0.45922922  0.41132806  0.80552733  1
  Al  Al20  1  0.54371716  0.54662605  0.54219950  1
  Al  Al21  1  0.10625159  0.77297300  0.32466725  1
  Al  Al22  1  0.20919404  0.89237325  0.07463092  1
  Al  Al23  1  0.79578501  0.75337041  0.90039992  1
  Al  Al24  1  0.42978467  0.77995667  0.31606121  1
  Al  Al25  1  0.55040049  0.88490344  0.07163839  1
  Al  Al26  1  0.12501099  0.75323615  0.81338942  1
  Al  Al27  1  0.22906559  0.87116296  0.56019605  1
  Al  Al28  1  0.77396248  0.75636282  0.37524442  1
  Al  Al29  1  0.87668363  0.88278579  0.14684298  1
  Al  Al30  1  0.54281549  0.87732604  0.54680944  1
  Gd  Gd31  1  0.88042869  0.21648576  0.62852621  1
  Gd  Gd32  1  0.21658714  0.55582170  0.06504759  1
  Gd  Gd33  1  0.55724243  0.53970704  0.09415425  1
  Gd  Gd34  1  0.87462434  0.87120267  0.62773459  1
  Gd  Gd35  1  0.45855769  0.75321429  0.80777944  1
  N  N36  1  0.21908240  0.20364961  0.38093541  1
  N  N37  1  0.11494245  0.10118504  0.13296030  1
  N  N38  1  0.90073946  0.19364145  0.84508859  1
  N  N39  1  0.75385728  0.10829902  0.55395750  1
  N  N40  1  0.53307868  0.21227781  0.37367768  1
  N  N41  1  0.44006665  0.09881199  0.12601383  1
  N  N42  1  0.23650944  0.18802716  0.87364491  1
  N  N43  1  0.15018010  0.07088032  0.63823709  1
  N  N44  1  0.87758844  0.21124762  0.32414922  1
  N  N45  1  0.77856488  0.09376912  0.08285184  1
  N  N46  1  0.56023175  0.20048453  0.87606497  1
  N  N47  1  0.45047728  0.08904074  0.62717315  1
  N  N48  1  0.21504951  0.55117480  0.37993108  1
  N  N49  1  0.09857443  0.41858250  0.05791917  1
  N  N50  1  0.88717470  0.53664945  0.81833361  1
  N  N51  1  0.76535334  0.45536542  0.55143133  1
  N  N52  1  0.54324636  0.54637672  0.35274697  1
  N  N53  1  0.44964648  0.39558169  0.14446620  1
  N  N54  1  0.23165732  0.52821316  0.84719205  1
  N  N55  1  0.10401310  0.42948428  0.57895949  1
  N  N56  1  0.89335007  0.53699267  0.31685845  1
  N  N57  1  0.81504275  0.40828155  0.07532334  1
  N  N58  1  0.57539535  0.50276740  0.87331537  1
  N  N59  1  0.45033609  0.42450908  0.61702428  1
  N  N60  1  0.21072132  0.88472105  0.38017706  1
  N  N61  1  0.09797308  0.79921166  0.14757385  1
  N  N62  1  0.89938226  0.86395108  0.84585299  1
  N  N63  1  0.76395888  0.74274627  0.55614313  1
  N  N64  1  0.54319576  0.88450066  0.36465012  1
  N  N65  1  0.42319879  0.80118403  0.13375861  1
  N  N66  1  0.20726439  0.87254376  0.89328525  1
  N  N67  1  0.14385205  0.75044244  0.63067017  1
  N  N68  1  0.87204292  0.87943188  0.33353713  1
  N  N69  1  0.78828893  0.75350594  0.08571314  1
  N  N70  1  0.57221569  0.88397397  0.88857683  1
  N  N71  1  0.44699013  0.75815323  0.59287233  1
