# generated using pymatgen
data_Gd5Al31N36
_symmetry_space_group_name_H-M   'P 1'
_cell_length_a   9.70179267
_cell_length_b   9.73125236
_cell_length_c   10.51004946
_cell_angle_alpha   89.53123417
_cell_angle_beta   89.70114648
_cell_angle_gamma   59.79723776
_symmetry_Int_Tables_number   1
_chemical_formula_structural   Gd5Al31N36
_chemical_formula_sum   'Gd5 Al31 N36'
_cell_volume   857.53185541
_cell_formula_units_Z   1
loop_
 _symmetry_equiv_pos_site_id
 _symmetry_equiv_pos_as_xyz
  1  'x, y, z'
loop_
 _atom_site_type_symbol
 _atom_site_label
 _atom_site_symmetry_multiplicity
 _atom_site_fract_x
 _atom_site_fract_y
 _atom_site_fract_z
 _atom_site_occupancy
  Al  Al0  1  0.11100343  0.10251890  0.39288054  1
  Al  Al1  1  0.21793887  0.20300350  0.14999891  1
  Al  Al2  1  0.77829890  0.09451951  0.91777518  1
  Al  Al3  1  0.43755985  0.10532972  0.38226733  1
  Al  Al4  1  0.55727903  0.19371180  0.15180041  1
  Al  Al5  1  0.10800189  0.10435568  0.91393909  1
  Al  Al6  1  0.23099377  0.20111786  0.65027836  1
  Al  Al7  1  0.77161087  0.09806463  0.39266825  1
  Al  Al8  1  0.89770901  0.19689639  0.15474756  1
  Al  Al9  1  0.44578286  0.10455005  0.90447334  1
  Al  Al10  1  0.54862718  0.20810626  0.64649519  1
  Al  Al11  1  0.10844640  0.42642924  0.41431531  1
  Al  Al12  1  0.79074432  0.41916452  0.91531557  1
  Al  Al13  1  0.88030832  0.54385783  0.64935820  1
  Al  Al14  1  0.43836974  0.42098567  0.40791131  1
  Al  Al15  1  0.10928664  0.42432118  0.89221914  1
  Al  Al16  1  0.22703931  0.53864385  0.65110366  1
  Al  Al17  1  0.78491566  0.42854815  0.39269212  1
  Al  Al18  1  0.89590730  0.52848351  0.15282739  1
  Al  Al19  1  0.45015774  0.41387573  0.89571583  1
  Al  Al20  1  0.54906666  0.55077634  0.56473264  1
  Al  Al21  1  0.11023767  0.75690528  0.40277225  1
  Al  Al22  1  0.21992777  0.87977465  0.08804100  1
  Al  Al23  1  0.79107846  0.75598107  0.91953649  1
  Al  Al24  1  0.43313798  0.77826407  0.32804328  1
  Al  Al25  1  0.55476297  0.87673242  0.09301639  1
  Al  Al26  1  0.10636172  0.76359401  0.91187158  1
  Al  Al27  1  0.23417468  0.86989244  0.56452363  1
  Al  Al28  1  0.78219186  0.75443502  0.39020603  1
  Al  Al29  1  0.88832419  0.87391384  0.15694483  1
  Al  Al30  1  0.54741848  0.87649828  0.56030838  1
  Gd  Gd31  1  0.88716780  0.21155515  0.65272594  1
  Gd  Gd32  1  0.21276963  0.52790173  0.15429303  1
  Gd  Gd33  1  0.55562062  0.52634090  0.12827798  1
  Gd  Gd34  1  0.88183854  0.87040333  0.65473686  1
  Gd  Gd35  1  0.45355346  0.75974637  0.82739685  1
  N  N36  1  0.21612810  0.21604594  0.33581584  1
  N  N37  1  0.11035176  0.09895740  0.10000798  1
  N  N38  1  0.89171038  0.20246795  0.86846077  1
  N  N39  1  0.75014237  0.11007622  0.56967961  1
  N  N40  1  0.55106065  0.21181357  0.33440665  1
  N  N41  1  0.43832577  0.09909187  0.10377632  1
  N  N42  1  0.22663045  0.20107286  0.83839412  1
  N  N43  1  0.13633334  0.09160615  0.57647639  1
  N  N44  1  0.88816972  0.20659332  0.34176971  1
  N  N45  1  0.77679516  0.09331463  0.10305169  1
  N  N46  1  0.56334753  0.19850601  0.83344977  1
  N  N47  1  0.44207773  0.10184009  0.58473336  1
  N  N48  1  0.21929813  0.53461741  0.36872758  1
  N  N49  1  0.09655656  0.40778178  0.07191948  1
  N  N50  1  0.88382080  0.54284083  0.83830009  1
  N  N51  1  0.77016822  0.45229115  0.57316022  1
  N  N52  1  0.54798002  0.54337409  0.37103148  1
  N  N53  1  0.44610670  0.38651870  0.07200478  1
  N  N54  1  0.22110245  0.54112309  0.84149617  1
  N  N55  1  0.10796795  0.42799626  0.59977805  1
  N  N56  1  0.89677310  0.53478997  0.33672619  1
  N  N57  1  0.81024356  0.40783320  0.09774374  1
  N  N58  1  0.57225164  0.51252739  0.89343746  1
  N  N59  1  0.44509403  0.42705735  0.59190828  1
  N  N60  1  0.21800875  0.87541318  0.37884730  1
  N  N61  1  0.09901250  0.77928615  0.09660154  1
  N  N62  1  0.88860745  0.87353579  0.87021289  1
  N  N63  1  0.76917994  0.74569166  0.57336107  1
  N  N64  1  0.55082934  0.87878299  0.37505988  1
  N  N65  1  0.42905063  0.79130891  0.14741676  1
  N  N66  1  0.20688881  0.88363602  0.89971237  1
  N  N67  1  0.13360396  0.74968523  0.58618426  1
  N  N68  1  0.88883454  0.87150601  0.34388453  1
  N  N69  1  0.78944237  0.75014138  0.10588581  1
  N  N70  1  0.57109465  0.88417392  0.90839184  1
  N  N71  1  0.44647170  0.76378448  0.61040165  1
