# generated using pymatgen
data_Gd5Al31N36
_symmetry_space_group_name_H-M   'P 1'
_cell_length_a   9.69184190
_cell_length_b   9.69436818
_cell_length_c   10.32215542
_cell_angle_alpha   89.82330066
_cell_angle_beta   89.89364100
_cell_angle_gamma   59.97886413
_symmetry_Int_Tables_number   1
_chemical_formula_structural   Gd5Al31N36
_chemical_formula_sum   'Gd5 Al31 N36'
_cell_volume   839.71561220
_cell_formula_units_Z   1
loop_
 _symmetry_equiv_pos_site_id
 _symmetry_equiv_pos_as_xyz
  1  'x, y, z'
loop_
 _atom_site_type_symbol
 _atom_site_label
 _atom_site_symmetry_multiplicity
 _atom_site_fract_x
 _atom_site_fract_y
 _atom_site_fract_z
 _atom_site_occupancy
  Al  Al0  1  0.10985619  0.09720554  0.30126129  1
  Al  Al1  1  0.22354165  0.20128637  0.06311365  1
  Al  Al2  1  0.77188533  0.09688223  0.82141503  1
  Al  Al3  1  0.44318628  0.09814208  0.31009637  1
  Al  Al4  1  0.55530605  0.19936217  0.05998581  1
  Al  Al5  1  0.11595294  0.09178179  0.82001390  1
  Al  Al6  1  0.23206831  0.19780681  0.56314406  1
  Al  Al7  1  0.77371324  0.09643759  0.29587904  1
  Al  Al8  1  0.89506971  0.20149225  0.05837238  1
  Al  Al9  1  0.44796776  0.09820619  0.81369775  1
  Al  Al10  1  0.55112101  0.20425216  0.56046639  1
  Al  Al11  1  0.10739718  0.42517117  0.32133970  1
  Al  Al12  1  0.77775382  0.42455571  0.81173073  1
  Al  Al13  1  0.88030462  0.54277768  0.59107481  1
  Al  Al14  1  0.44511708  0.41963512  0.31976564  1
  Al  Al15  1  0.11386922  0.42248600  0.80459767  1
  Al  Al16  1  0.22741910  0.53645122  0.56161966  1
  Al  Al17  1  0.78317455  0.42450005  0.30730756  1
  Al  Al18  1  0.89392471  0.53301719  0.08445581  1
  Al  Al19  1  0.44870631  0.41956515  0.79530010  1
  Al  Al20  1  0.55510081  0.53830094  0.54510679  1
  Al  Al21  1  0.10577341  0.76936557  0.30752320  1
  Al  Al22  1  0.21374856  0.88615565  0.06720096  1
  Al  Al23  1  0.77732781  0.76144488  0.82365109  1
  Al  Al24  1  0.43910875  0.77240734  0.32009500  1
  Al  Al25  1  0.55204841  0.88417325  0.06815054  1
  Al  Al26  1  0.11472668  0.76093396  0.80924216  1
  Al  Al27  1  0.23029162  0.86911572  0.55012978  1
  Al  Al28  1  0.77653897  0.76241664  0.30364862  1
  Al  Al29  1  0.88784658  0.87659262  0.05971345  1
  Al  Al30  1  0.55311492  0.87503412  0.54949334  1
  Gd  Gd31  1  0.89837739  0.20159880  0.56475592  1
  Gd  Gd32  1  0.21798686  0.53675851  0.06005577  1
  Gd  Gd33  1  0.55351256  0.54255258  0.07209783  1
  Gd  Gd34  1  0.88681255  0.86525749  0.56472915  1
  Gd  Gd35  1  0.44414708  0.76921612  0.79357670  1
  N  N36  1  0.22234363  0.20166650  0.37504308  1
  N  N37  1  0.10987805  0.09956697  0.11651730  1
  N  N38  1  0.89201586  0.20403180  0.86594504  1
  N  N39  1  0.75038533  0.10751716  0.64010101  1
  N  N40  1  0.55934818  0.19914255  0.37401084  1
  N  N41  1  0.44224789  0.09913480  0.12393998  1
  N  N42  1  0.22597422  0.20551562  0.87353899  1
  N  N43  1  0.15290182  0.06935658  0.63639293  1
  N  N44  1  0.88757675  0.20222443  0.34689253  1
  N  N45  1  0.77519397  0.09599425  0.10745177  1
  N  N46  1  0.55001838  0.21025686  0.87304966  1
  N  N47  1  0.44708617  0.09183094  0.62200936  1
  N  N48  1  0.21734593  0.54314075  0.36972618  1
  N  N49  1  0.10494760  0.40787388  0.13602484  1
  N  N50  1  0.89268448  0.53445652  0.85857167  1
  N  N51  1  0.75885390  0.44939951  0.62549870  1
  N  N52  1  0.55713995  0.53647321  0.35585476  1
  N  N53  1  0.45582319  0.39590885  0.14086241  1
  N  N54  1  0.22600487  0.53356123  0.84107678  1
  N  N55  1  0.11000146  0.42434348  0.61549781  1
  N  N56  1  0.88376189  0.54350485  0.36210430  1
  N  N57  1  0.80330362  0.41084995  0.12339329  1
  N  N58  1  0.56178695  0.51626662  0.85585956  1
  N  N59  1  0.44748703  0.42412525  0.60617518  1
  N  N60  1  0.21173264  0.88133746  0.36663838  1
  N  N61  1  0.09819435  0.78901913  0.12636794  1
  N  N62  1  0.89378524  0.86793963  0.86726445  1
  N  N63  1  0.75042266  0.75607462  0.63830833  1
  N  N64  1  0.55915921  0.87864105  0.36487744  1
  N  N65  1  0.42565925  0.79903877  0.13278690  1
  N  N66  1  0.20110844  0.88035683  0.88437121  1
  N  N67  1  0.14364177  0.75040010  0.62524019  1
  N  N68  1  0.88293457  0.87696978  0.34711141  1
  N  N69  1  0.77946547  0.75933510  0.11611427  1
  N  N70  1  0.56643569  0.88939958  0.88561671  1
  N  N71  1  0.44845293  0.75826313  0.57407964  1
