# generated using pymatgen
data_Gd5Al31N36
_symmetry_space_group_name_H-M   'P 1'
_cell_length_a   9.71002666
_cell_length_b   9.74176723
_cell_length_c   10.56157180
_cell_angle_alpha   89.67555961
_cell_angle_beta   89.59721524
_cell_angle_gamma   60.12529917
_symmetry_Int_Tables_number   1
_chemical_formula_structural   Gd5Al31N36
_chemical_formula_sum   'Gd5 Al31 N36'
_cell_volume   866.26792382
_cell_formula_units_Z   1
loop_
 _symmetry_equiv_pos_site_id
 _symmetry_equiv_pos_as_xyz
  1  'x, y, z'
loop_
 _atom_site_type_symbol
 _atom_site_label
 _atom_site_symmetry_multiplicity
 _atom_site_fract_x
 _atom_site_fract_y
 _atom_site_fract_z
 _atom_site_occupancy
  Al  Al0  1  0.11118293  0.10090038  0.39856197  1
  Al  Al1  1  0.21540193  0.20926254  0.15297952  1
  Al  Al2  1  0.78243881  0.08738984  0.91719075  1
  Al  Al3  1  0.44094661  0.09282443  0.33023596  1
  Al  Al4  1  0.56448467  0.19342370  0.15718212  1
  Al  Al5  1  0.11007168  0.09842150  0.91668378  1
  Al  Al6  1  0.22541209  0.20195051  0.65039139  1
  Al  Al7  1  0.76625345  0.10215511  0.39678877  1
  Al  Al8  1  0.89943494  0.19581373  0.15607575  1
  Al  Al9  1  0.45613754  0.08555207  0.83323395  1
  Al  Al10  1  0.55242704  0.20902712  0.64467319  1
  Al  Al11  1  0.11126209  0.43162447  0.40515715  1
  Al  Al12  1  0.79789429  0.41089951  0.91705417  1
  Al  Al13  1  0.87900852  0.54050665  0.64759090  1
  Al  Al14  1  0.43279901  0.42811150  0.33352782  1
  Al  Al15  1  0.10844114  0.41362734  0.89398066  1
  Al  Al16  1  0.22841016  0.53193978  0.65358903  1
  Al  Al17  1  0.78416207  0.42670047  0.39219585  1
  Al  Al18  1  0.89970563  0.52885021  0.15550471  1
  Al  Al19  1  0.46068560  0.41423943  0.84830670  1
  Al  Al20  1  0.54397026  0.54358628  0.55990151  1
  Al  Al21  1  0.10623003  0.76913112  0.33518664  1
  Al  Al22  1  0.21441377  0.88622836  0.09604955  1
  Al  Al23  1  0.79342216  0.75414916  0.91690551  1
  Al  Al24  1  0.43107332  0.77771700  0.33447260  1
  Al  Al25  1  0.54820889  0.88685359  0.08859378  1
  Al  Al26  1  0.11613330  0.76623401  0.83813917  1
  Al  Al27  1  0.23208653  0.86293449  0.57121481  1
  Al  Al28  1  0.77580946  0.75346915  0.39538575  1
  Al  Al29  1  0.87379844  0.88365075  0.16409277  1
  Al  Al30  1  0.54212621  0.87698135  0.56597147  1
  Gd  Gd31  1  0.88790385  0.21210041  0.65489772  1
  Gd  Gd32  1  0.20678374  0.55708073  0.09748676  1
  Gd  Gd33  1  0.56106819  0.54365229  0.11683525  1
  Gd  Gd34  1  0.87695463  0.87148099  0.64011360  1
  Gd  Gd35  1  0.45353424  0.75461288  0.82526646  1
  N  N36  1  0.21228515  0.21587127  0.33967325  1
  N  N37  1  0.11111636  0.10404850  0.09829343  1
  N  N38  1  0.89529882  0.19595512  0.86965853  1
  N  N39  1  0.74956031  0.11516844  0.57176610  1
  N  N40  1  0.55399282  0.20372485  0.34390504  1
  N  N41  1  0.44406260  0.09401520  0.14437407  1
  N  N42  1  0.22073594  0.19799947  0.83736949  1
  N  N43  1  0.13759371  0.08759831  0.57986039  1
  N  N44  1  0.88925663  0.20367286  0.34235783  1
  N  N45  1  0.77560412  0.09414689  0.09977064  1
  N  N46  1  0.57254003  0.19412603  0.83870994  1
  N  N47  1  0.45305231  0.08182114  0.64455946  1
  N  N48  1  0.21076916  0.54545880  0.35181739  1
  N  N49  1  0.09981193  0.40903607  0.07522744  1
  N  N50  1  0.88611305  0.53669207  0.83781381  1
  N  N51  1  0.76745657  0.44940974  0.57206194  1
  N  N52  1  0.54732759  0.54283299  0.36958693  1
  N  N53  1  0.44966243  0.40459663  0.14311611  1
  N  N54  1  0.22663348  0.52798151  0.85635576  1
  N  N55  1  0.11013050  0.42814313  0.59607401  1
  N  N56  1  0.89250471  0.53684319  0.33740742  1
  N  N57  1  0.81683585  0.40515870  0.09802817  1
  N  N58  1  0.57573394  0.50812489  0.89707790  1
  N  N59  1  0.44739047  0.42979397  0.63159589  1
  N  N60  1  0.21639758  0.87117859  0.39170639  1
  N  N61  1  0.08987724  0.80863336  0.15978634  1
  N  N62  1  0.89285019  0.86800797  0.86162815  1
  N  N63  1  0.76428524  0.74133546  0.57662800  1
  N  N64  1  0.54425313  0.88132715  0.38591726  1
  N  N65  1  0.42301632  0.80405614  0.15486800  1
  N  N66  1  0.20917589  0.87208714  0.91272777  1
  N  N67  1  0.14406781  0.75348197  0.65614624  1
  N  N68  1  0.87331158  0.87769141  0.35352203  1
  N  N69  1  0.78924211  0.75100881  0.10226521  1
  N  N70  1  0.56827142  0.88497173  0.90772923  1
  N  N71  1  0.44679640  0.75729200  0.61078505  1
