# generated using pymatgen
data_Gd5Al31N36
_symmetry_space_group_name_H-M   'P 1'
_cell_length_a   9.69044776
_cell_length_b   9.70500335
_cell_length_c   10.51459044
_cell_angle_alpha   89.56897695
_cell_angle_beta   89.27540425
_cell_angle_gamma   60.03032086
_symmetry_Int_Tables_number   1
_chemical_formula_structural   Gd5Al31N36
_chemical_formula_sum   'Gd5 Al31 N36'
_cell_volume   856.56433202
_cell_formula_units_Z   1
loop_
 _symmetry_equiv_pos_site_id
 _symmetry_equiv_pos_as_xyz
  1  'x, y, z'
loop_
 _atom_site_type_symbol
 _atom_site_label
 _atom_site_symmetry_multiplicity
 _atom_site_fract_x
 _atom_site_fract_y
 _atom_site_fract_z
 _atom_site_occupancy
  Al  Al0  1  0.11189605  0.09794363  0.30806779  1
  Al  Al1  1  0.22076587  0.20437011  0.05660803  1
  Al  Al2  1  0.79596083  0.08209380  0.89374320  1
  Al  Al3  1  0.43378575  0.10205956  0.30090998  1
  Al  Al4  1  0.54998991  0.20175552  0.05898378  1
  Al  Al5  1  0.12727325  0.08188025  0.81712019  1
  Al  Al6  1  0.23107859  0.19595551  0.56242374  1
  Al  Al7  1  0.76471188  0.10179955  0.36822176  1
  Al  Al8  1  0.89135486  0.20269348  0.12869114  1
  Al  Al9  1  0.45676970  0.09221796  0.81004082  1
  Al  Al10  1  0.53578753  0.21274505  0.54724881  1
  Al  Al11  1  0.10800081  0.42888163  0.34153679  1
  Al  Al12  1  0.80250995  0.40936687  0.88719010  1
  Al  Al13  1  0.87226356  0.54486192  0.62200016  1
  Al  Al14  1  0.43184432  0.42553571  0.31107653  1
  Al  Al15  1  0.12025430  0.41742693  0.79729633  1
  Al  Al16  1  0.22725857  0.53877712  0.56694450  1
  Al  Al17  1  0.77644219  0.43206743  0.36749736  1
  Al  Al18  1  0.89713692  0.53213226  0.13443961  1
  Al  Al19  1  0.46258974  0.41075617  0.79709075  1
  Al  Al20  1  0.54178839  0.54685935  0.53559248  1
  Al  Al21  1  0.10663414  0.77056253  0.31810095  1
  Al  Al22  1  0.21017299  0.88929222  0.06789866  1
  Al  Al23  1  0.79683817  0.75249358  0.89387247  1
  Al  Al24  1  0.42934898  0.77973203  0.30878660  1
  Al  Al25  1  0.55043789  0.88484632  0.06479614  1
  Al  Al26  1  0.12552847  0.75511143  0.80480652  1
  Al  Al27  1  0.22852530  0.87149265  0.55299862  1
  Al  Al28  1  0.77117722  0.75890135  0.36982422  1
  Al  Al29  1  0.87865855  0.88083759  0.13958347  1
  Al  Al30  1  0.54069238  0.87878202  0.54070826  1
  Gd  Gd31  1  0.88154052  0.21522783  0.62132453  1
  Gd  Gd32  1  0.21248042  0.54997269  0.05083360  1
  Gd  Gd33  1  0.55830717  0.53900368  0.08656640  1
  Gd  Gd34  1  0.87342330  0.87241506  0.62125779  1
  Gd  Gd35  1  0.45930318  0.75342272  0.80109432  1
  N  N36  1  0.21725526  0.20527277  0.37685313  1
  N  N37  1  0.11593031  0.09836174  0.12454974  1
  N  N38  1  0.90118900  0.19374764  0.83838721  1
  N  N39  1  0.75333550  0.10876688  0.54627300  1
  N  N40  1  0.53264673  0.21250840  0.36539323  1
  N  N41  1  0.44081775  0.09795306  0.11833218  1
  N  N42  1  0.23045962  0.20004714  0.86748047  1
  N  N43  1  0.15129262  0.07043873  0.63212248  1
  N  N44  1  0.87753089  0.21199618  0.31713905  1
  N  N45  1  0.77935847  0.09337036  0.07694883  1
  N  N46  1  0.56125506  0.20093851  0.86922579  1
  N  N47  1  0.45029962  0.08958459  0.62083008  1
  N  N48  1  0.21293478  0.54835085  0.37760727  1
  N  N49  1  0.11274290  0.41067081  0.11777430  1
  N  N50  1  0.88543882  0.53953932  0.81146167  1
  N  N51  1  0.76290384  0.45488749  0.54629569  1
  N  N52  1  0.54106972  0.54648299  0.34607620  1
  N  N53  1  0.44754142  0.39832275  0.13543994  1
  N  N54  1  0.23240820  0.52792836  0.83306972  1
  N  N55  1  0.11055696  0.42284783  0.60603413  1
  N  N56  1  0.88270681  0.54263903  0.31613036  1
  N  N57  1  0.81841615  0.40846593  0.06694088  1
  N  N58  1  0.57741101  0.50269813  0.86550204  1
  N  N59  1  0.45090006  0.42409629  0.60915716  1
  N  N60  1  0.21039725  0.88429069  0.37242225  1
  N  N61  1  0.10145818  0.79214534  0.13986867  1
  N  N62  1  0.90064202  0.86360128  0.84000376  1
  N  N63  1  0.76149968  0.74503749  0.55049154  1
  N  N64  1  0.54088003  0.88617558  0.35827883  1
  N  N65  1  0.42435108  0.79988710  0.12635503  1
  N  N66  1  0.20821358  0.87314898  0.88585440  1
  N  N67  1  0.14218971  0.75153922  0.62180300  1
  N  N68  1  0.87242005  0.87901447  0.32665904  1
  N  N69  1  0.78927037  0.75233645  0.07914609  1
  N  N70  1  0.57234233  0.88508904  0.88170086  1
  N  N71  1  0.44619985  0.75832322  0.58598697  1
