# generated using pymatgen
data_Gd5Al31N36
_symmetry_space_group_name_H-M   'P 1'
_cell_length_a   9.68599622
_cell_length_b   9.68478749
_cell_length_c   10.29642047
_cell_angle_alpha   89.89985005
_cell_angle_beta   90.00731415
_cell_angle_gamma   59.89537720
_symmetry_Int_Tables_number   1
_chemical_formula_structural   Gd5Al31N36
_chemical_formula_sum   'Gd5 Al31 N36'
_cell_volume   835.58669298
_cell_formula_units_Z   1
loop_
 _symmetry_equiv_pos_site_id
 _symmetry_equiv_pos_as_xyz
  1  'x, y, z'
loop_
 _atom_site_type_symbol
 _atom_site_label
 _atom_site_symmetry_multiplicity
 _atom_site_fract_x
 _atom_site_fract_y
 _atom_site_fract_z
 _atom_site_occupancy
  Al  Al0  1  0.11054479  0.09673705  0.29428491  1
  Al  Al1  1  0.22192630  0.20286426  0.05667878  1
  Al  Al2  1  0.77114574  0.09826732  0.81540449  1
  Al  Al3  1  0.44435770  0.09686351  0.30319367  1
  Al  Al4  1  0.55491108  0.19922935  0.05332615  1
  Al  Al5  1  0.11480346  0.09345548  0.81336272  1
  Al  Al6  1  0.23184997  0.19831088  0.55614643  1
  Al  Al7  1  0.77452146  0.09562293  0.28879924  1
  Al  Al8  1  0.89429903  0.20304491  0.05197546  1
  Al  Al9  1  0.44696435  0.09964802  0.80685559  1
  Al  Al10  1  0.55099508  0.20405556  0.55364752  1
  Al  Al11  1  0.10736126  0.42476009  0.31175223  1
  Al  Al12  1  0.77821834  0.42782683  0.80176788  1
  Al  Al13  1  0.88021694  0.54199646  0.55493588  1
  Al  Al14  1  0.44595161  0.41921834  0.31346479  1
  Al  Al15  1  0.11014226  0.42526556  0.79537115  1
  Al  Al16  1  0.22655480  0.53635366  0.55475475  1
  Al  Al17  1  0.78473960  0.42455628  0.29865022  1
  Al  Al18  1  0.89304012  0.53195379  0.05400765  1
  Al  Al19  1  0.44790019  0.42087221  0.78799637  1
  Al  Al20  1  0.55660954  0.53755635  0.53916642  1
  Al  Al21  1  0.10654470  0.76860136  0.30034714  1
  Al  Al22  1  0.21330303  0.88621013  0.06039237  1
  Al  Al23  1  0.77753205  0.76039216  0.81355511  1
  Al  Al24  1  0.44024549  0.77147514  0.31288246  1
  Al  Al25  1  0.55313276  0.88319117  0.06067507  1
  Al  Al26  1  0.11382545  0.76192567  0.80221496  1
  Al  Al27  1  0.23089055  0.86889961  0.54275092  1
  Al  Al28  1  0.77847054  0.75990076  0.29466076  1
  Al  Al29  1  0.88744207  0.87536888  0.05256191  1
  Al  Al30  1  0.55541743  0.87314632  0.54310779  1
  Gd  Gd31  1  0.89847468  0.20054768  0.55845900  1
  Gd  Gd32  1  0.21722406  0.53582373  0.05328554  1
  Gd  Gd33  1  0.55331221  0.54178436  0.06437787  1
  Gd  Gd34  1  0.88659071  0.86561111  0.55839017  1
  Gd  Gd35  1  0.44121632  0.77207448  0.78686368  1
  N  N36  1  0.22284352  0.20162395  0.36721391  1
  N  N37  1  0.10958431  0.09987127  0.10951469  1
  N  N38  1  0.89082917  0.20692068  0.85845707  1
  N  N39  1  0.74958049  0.10807266  0.63405278  1
  N  N40  1  0.56041187  0.19809813  0.36710176  1
  N  N41  1  0.44182258  0.09900790  0.11665645  1
  N  N42  1  0.22415278  0.20797481  0.86622861  1
  N  N43  1  0.15372038  0.06903013  0.62952729  1
  N  N44  1  0.88817931  0.20233923  0.33955255  1
  N  N45  1  0.77537967  0.09575266  0.09997383  1
  N  N46  1  0.54890449  0.21186025  0.86644753  1
  N  N47  1  0.44766567  0.09115567  0.61489445  1
  N  N48  1  0.21721446  0.54243443  0.36194104  1
  N  N49  1  0.09862273  0.41124067  0.12742929  1
  N  N50  1  0.89200725  0.53575498  0.86510199  1
  N  N51  1  0.76310818  0.45014245  0.61604810  1
  N  N52  1  0.55890047  0.53578605  0.34883459  1
  N  N53  1  0.45551510  0.39570670  0.13439260  1
  N  N54  1  0.22435885  0.53448076  0.83325859  1
  N  N55  1  0.10692645  0.42574057  0.60697175  1
  N  N56  1  0.88489565  0.54230655  0.36651952  1
  N  N57  1  0.80381973  0.41368063  0.11573547  1
  N  N58  1  0.56214595  0.51787622  0.84660568  1
  N  N59  1  0.44736149  0.42430455  0.59865205  1
  N  N60  1  0.21273530  0.88061456  0.35906340  1
  N  N61  1  0.09838422  0.78849075  0.11889384  1
  N  N62  1  0.89281861  0.86804324  0.85917052  1
  N  N63  1  0.75589954  0.74888709  0.62835267  1
  N  N64  1  0.56136052  0.87660239  0.35761935  1
  N  N65  1  0.42603373  0.79855053  0.12496870  1
  N  N66  1  0.19882074  0.88216811  0.87762794  1
  N  N67  1  0.14392602  0.75085897  0.61784314  1
  N  N68  1  0.88377503  0.87531499  0.33974189  1
  N  N69  1  0.78077613  0.75593931  0.10821873  1
  N  N70  1  0.56705372  0.88971664  0.87724887  1
  N  N71  1  0.44929255  0.75791417  0.56721144  1
