# generated using pymatgen
data_Gd5Al31N36
_symmetry_space_group_name_H-M   'P 1'
_cell_length_a   9.74055709
_cell_length_b   9.71037716
_cell_length_c   10.39371988
_cell_angle_alpha   89.77663446
_cell_angle_beta   89.61735033
_cell_angle_gamma   60.27130639
_symmetry_Int_Tables_number   1
_chemical_formula_structural   Gd5Al31N36
_chemical_formula_sum   'Gd5 Al31 N36'
_cell_volume   853.67501602
_cell_formula_units_Z   1
loop_
 _symmetry_equiv_pos_site_id
 _symmetry_equiv_pos_as_xyz
  1  'x, y, z'
loop_
 _atom_site_type_symbol
 _atom_site_label
 _atom_site_symmetry_multiplicity
 _atom_site_fract_x
 _atom_site_fract_y
 _atom_site_fract_z
 _atom_site_occupancy
  Al  Al0  1  0.11794879  0.09492877  0.30948788  1
  Al  Al1  1  0.22259880  0.20238963  0.06033290  1
  Al  Al2  1  0.77264054  0.09622591  0.81341765  1
  Al  Al3  1  0.43917170  0.09999744  0.30517605  1
  Al  Al4  1  0.55607249  0.19858659  0.05862112  1
  Al  Al5  1  0.11916059  0.08846310  0.81436424  1
  Al  Al6  1  0.23150153  0.19944851  0.56179601  1
  Al  Al7  1  0.76132492  0.10313983  0.30970727  1
  Al  Al8  1  0.89609538  0.20308712  0.12517562  1
  Al  Al9  1  0.44907605  0.09690415  0.81070557  1
  Al  Al10  1  0.54310946  0.20883630  0.55842084  1
  Al  Al11  1  0.11233856  0.42322962  0.31709314  1
  Al  Al12  1  0.79824154  0.40967900  0.87718097  1
  Al  Al13  1  0.87198938  0.54487369  0.62524375  1
  Al  Al14  1  0.43695747  0.42233046  0.31618323  1
  Al  Al15  1  0.11668816  0.42122017  0.79759828  1
  Al  Al16  1  0.22663903  0.53505969  0.56303895  1
  Al  Al17  1  0.77451351  0.43789580  0.36918729  1
  Al  Al18  1  0.89398115  0.53314668  0.12984396  1
  Al  Al19  1  0.45486507  0.41709127  0.79747988  1
  Al  Al20  1  0.54258886  0.54509979  0.54129373  1
  Al  Al21  1  0.11015867  0.76672100  0.31641149  1
  Al  Al22  1  0.21046889  0.88807404  0.06562650  1
  Al  Al23  1  0.79166920  0.75885685  0.88307104  1
  Al  Al24  1  0.43197577  0.77777946  0.30948152  1
  Al  Al25  1  0.55001174  0.88540599  0.06347105  1
  Al  Al26  1  0.11734216  0.75987870  0.80466144  1
  Al  Al27  1  0.23611203  0.86698418  0.55427717  1
  Al  Al28  1  0.77029382  0.75685830  0.36984265  1
  Al  Al29  1  0.88385635  0.87546081  0.12500428  1
  Al  Al30  1  0.54184413  0.88022553  0.54559404  1
  Gd  Gd31  1  0.89699176  0.20305793  0.58777990  1
  Gd  Gd32  1  0.21564165  0.54230733  0.05596367  1
  Gd  Gd33  1  0.56213398  0.53501391  0.08690141  1
  Gd  Gd34  1  0.88986781  0.86675162  0.58743189  1
  Gd  Gd35  1  0.44998458  0.75892530  0.80427834  1
  N  N36  1  0.22194938  0.20510095  0.37471654  1
  N  N37  1  0.11699288  0.09600762  0.12567327  1
  N  N38  1  0.89688508  0.19984569  0.82233058  1
  N  N39  1  0.73738448  0.11455478  0.63083775  1
  N  N40  1  0.54923170  0.20488569  0.37382036  1
  N  N41  1  0.44283580  0.09772722  0.12047199  1
  N  N42  1  0.22464992  0.20611247  0.87173411  1
  N  N43  1  0.15962979  0.06673735  0.63113219  1
  N  N44  1  0.88381680  0.21192263  0.32893864  1
  N  N45  1  0.77040423  0.09888623  0.12099203  1
  N  N46  1  0.55377054  0.20664856  0.87245948  1
  N  N47  1  0.44485907  0.09307068  0.62061610  1
  N  N48  1  0.21463823  0.54318497  0.37160027  1
  N  N49  1  0.11317287  0.40566538  0.13359240  1
  N  N50  1  0.88293525  0.54243982  0.81327534  1
  N  N51  1  0.76182274  0.45436931  0.55093275  1
  N  N52  1  0.54299531  0.54580574  0.34773008  1
  N  N53  1  0.45066497  0.39520772  0.13853641  1
  N  N54  1  0.22759157  0.53206919  0.83869584  1
  N  N55  1  0.10990403  0.42301257  0.61101721  1
  N  N56  1  0.87965870  0.54480920  0.31327329  1
  N  N57  1  0.82116130  0.40547070  0.06120535  1
  N  N58  1  0.57208122  0.50680495  0.86498789  1
  N  N59  1  0.44528430  0.42632744  0.60753904  1
  N  N60  1  0.21389358  0.88099072  0.37121266  1
  N  N61  1  0.10168607  0.78928716  0.13609946  1
  N  N62  1  0.89508452  0.86738589  0.82886658  1
  N  N63  1  0.76030491  0.74510283  0.55422198  1
  N  N64  1  0.54320123  0.88486541  0.35925321  1
  N  N65  1  0.42531791  0.79739241  0.12387850  1
  N  N66  1  0.20009926  0.88007569  0.88461385  1
  N  N67  1  0.15250461  0.74516261  0.62169700  1
  N  N68  1  0.87896478  0.87579889  0.33886141  1
  N  N69  1  0.79005991  0.75208556  0.07361629  1
  N  N70  1  0.56713022  0.88956919  0.87996536  1
  N  N71  1  0.45045059  0.75681472  0.58706470  1
