# generated using pymatgen
data_Gd5Al31N36
_symmetry_space_group_name_H-M   'P 1'
_cell_length_a   9.73580600
_cell_length_b   9.70881203
_cell_length_c   10.40747166
_cell_angle_alpha   89.75828834
_cell_angle_beta   89.61627885
_cell_angle_gamma   60.28775730
_symmetry_Int_Tables_number   1
_chemical_formula_structural   Gd5Al31N36
_chemical_formula_sum   'Gd5 Al31 N36'
_cell_volume   854.38950784
_cell_formula_units_Z   1
loop_
 _symmetry_equiv_pos_site_id
 _symmetry_equiv_pos_as_xyz
  1  'x, y, z'
loop_
 _atom_site_type_symbol
 _atom_site_label
 _atom_site_symmetry_multiplicity
 _atom_site_fract_x
 _atom_site_fract_y
 _atom_site_fract_z
 _atom_site_occupancy
  Al  Al0  1  0.11772134  0.09491248  0.30963219  1
  Al  Al1  1  0.22248855  0.20220311  0.06052757  1
  Al  Al2  1  0.77340704  0.09573757  0.81089955  1
  Al  Al3  1  0.43859658  0.10014244  0.30489148  1
  Al  Al4  1  0.55644672  0.19841247  0.05853254  1
  Al  Al5  1  0.11978297  0.08767938  0.81481629  1
  Al  Al6  1  0.23248969  0.19898210  0.56205831  1
  Al  Al7  1  0.75960563  0.10579454  0.31151691  1
  Al  Al8  1  0.89542949  0.20267431  0.12578659  1
  Al  Al9  1  0.44983304  0.09658846  0.81088934  1
  Al  Al10  1  0.54320690  0.20953003  0.55792871  1
  Al  Al11  1  0.11179907  0.42302727  0.31697557  1
  Al  Al12  1  0.79844616  0.40945683  0.87748345  1
  Al  Al13  1  0.87154808  0.54581265  0.62577827  1
  Al  Al14  1  0.43563687  0.42292882  0.31511034  1
  Al  Al15  1  0.11682927  0.42068237  0.79750773  1
  Al  Al16  1  0.22704445  0.53423278  0.56323348  1
  Al  Al17  1  0.77376313  0.43827982  0.36941024  1
  Al  Al18  1  0.89344675  0.53290690  0.12978464  1
  Al  Al19  1  0.45522895  0.41691650  0.79747712  1
  Al  Al20  1  0.54229072  0.54521363  0.54145788  1
  Al  Al21  1  0.11226250  0.76538142  0.31751164  1
  Al  Al22  1  0.20956724  0.88784716  0.06595041  1
  Al  Al23  1  0.79275357  0.75972133  0.88347133  1
  Al  Al24  1  0.43188609  0.77783029  0.30903507  1
  Al  Al25  1  0.55037291  0.88531660  0.06348315  1
  Al  Al26  1  0.11761083  0.75930634  0.80293879  1
  Al  Al27  1  0.23723933  0.86675160  0.55449796  1
  Al  Al28  1  0.76946562  0.75615811  0.37017386  1
  Al  Al29  1  0.88240766  0.87488737  0.13536866  1
  Al  Al30  1  0.54214054  0.88038928  0.54574759  1
  Gd  Gd31  1  0.89878974  0.20461858  0.58818636  1
  Gd  Gd32  1  0.21311042  0.54384806  0.05510337  1
  Gd  Gd33  1  0.56120765  0.53520657  0.08626855  1
  Gd  Gd34  1  0.89080837  0.86693585  0.58628441  1
  Gd  Gd35  1  0.45029597  0.75916849  0.80458881  1
  N  N36  1  0.22162639  0.20502252  0.37501459  1
  N  N37  1  0.11650759  0.09586909  0.12598569  1
  N  N38  1  0.89727427  0.19971054  0.82194796  1
  N  N39  1  0.73905539  0.11565342  0.62744091  1
  N  N40  1  0.54735707  0.20615713  0.37366212  1
  N  N41  1  0.44279096  0.09767123  0.12042430  1
  N  N42  1  0.22516655  0.20562676  0.87208710  1
  N  N43  1  0.16154801  0.06572472  0.63203693  1
  N  N44  1  0.88379279  0.21223297  0.33005844  1
  N  N45  1  0.76957001  0.09903556  0.12335297  1
  N  N46  1  0.55538490  0.20586044  0.87183213  1
  N  N47  1  0.44597305  0.09302886  0.62082656  1
  N  N48  1  0.21426029  0.54267163  0.37214401  1
  N  N49  1  0.11278024  0.40543195  0.13377862  1
  N  N50  1  0.88309613  0.54253487  0.81375673  1
  N  N51  1  0.76133030  0.45568336  0.55074339  1
  N  N52  1  0.54217386  0.54587867  0.34763373  1
  N  N53  1  0.44859963  0.39612083  0.13740740  1
  N  N54  1  0.22770008  0.53177411  0.83803189  1
  N  N55  1  0.10988325  0.42243417  0.61126534  1
  N  N56  1  0.87904813  0.54472310  0.31295583  1
  N  N57  1  0.82058410  0.40501681  0.06142832  1
  N  N58  1  0.57224921  0.50693521  0.86479851  1
  N  N59  1  0.44546770  0.42624002  0.60794428  1
  N  N60  1  0.21420255  0.88114880  0.37181972  1
  N  N61  1  0.10153684  0.78916864  0.13790330  1
  N  N62  1  0.89481574  0.86677268  0.82277070  1
  N  N63  1  0.76073898  0.74545260  0.55365641  1
  N  N64  1  0.54265362  0.88508129  0.35943093  1
  N  N65  1  0.42510098  0.79755369  0.12378385  1
  N  N66  1  0.19980514  0.87910066  0.88491061  1
  N  N67  1  0.15367897  0.74443339  0.62041662  1
  N  N68  1  0.87789998  0.87550973  0.33657441  1
  N  N69  1  0.79099653  0.75236861  0.07416505  1
  N  N70  1  0.56790582  0.88942029  0.88041590  1
  N  N71  1  0.45135072  0.75658890  0.58769287  1
