# generated using pymatgen
data_Gd5Al31N36
_symmetry_space_group_name_H-M   'P 1'
_cell_length_a   9.69612654
_cell_length_b   9.69863759
_cell_length_c   10.33541974
_cell_angle_alpha   89.81236525
_cell_angle_beta   89.88247396
_cell_angle_gamma   59.98697280
_symmetry_Int_Tables_number   1
_chemical_formula_structural   Gd5Al31N36
_chemical_formula_sum   'Gd5 Al31 N36'
_cell_volume   841.60508956
_cell_formula_units_Z   1
loop_
 _symmetry_equiv_pos_site_id
 _symmetry_equiv_pos_as_xyz
  1  'x, y, z'
loop_
 _atom_site_type_symbol
 _atom_site_label
 _atom_site_symmetry_multiplicity
 _atom_site_fract_x
 _atom_site_fract_y
 _atom_site_fract_z
 _atom_site_occupancy
  Al  Al0  1  0.10986194  0.09716107  0.30110985  1
  Al  Al1  1  0.22392997  0.20082811  0.06267565  1
  Al  Al2  1  0.77188164  0.09676445  0.82114642  1
  Al  Al3  1  0.44305309  0.09826406  0.30991648  1
  Al  Al4  1  0.55533541  0.19938570  0.05997360  1
  Al  Al5  1  0.11601105  0.09165244  0.81981740  1
  Al  Al6  1  0.23215888  0.19779601  0.56294913  1
  Al  Al7  1  0.77365747  0.09649937  0.29573803  1
  Al  Al8  1  0.89523171  0.20115486  0.05791294  1
  Al  Al9  1  0.44812355  0.09805803  0.81347391  1
  Al  Al10  1  0.55111806  0.20428735  0.56044531  1
  Al  Al11  1  0.10874747  0.42451380  0.32154527  1
  Al  Al12  1  0.77703431  0.42331713  0.81169509  1
  Al  Al13  1  0.88109011  0.54240001  0.61245456  1
  Al  Al14  1  0.44503081  0.41966221  0.31954255  1
  Al  Al15  1  0.11600095  0.42120144  0.80451475  1
  Al  Al16  1  0.22756578  0.53635301  0.56138216  1
  Al  Al17  1  0.78197340  0.42367704  0.30721577  1
  Al  Al18  1  0.89352134  0.53403841  0.10556916  1
  Al  Al19  1  0.44877356  0.41946500  0.79509938  1
  Al  Al20  1  0.55492154  0.53844267  0.54472219  1
  Al  Al21  1  0.10573068  0.76939688  0.30741308  1
  Al  Al22  1  0.21374086  0.88615045  0.06716040  1
  Al  Al23  1  0.77675841  0.76263621  0.82376088  1
  Al  Al24  1  0.43902587  0.77244719  0.31993386  1
  Al  Al25  1  0.55185134  0.88436498  0.06789187  1
  Al  Al26  1  0.11476835  0.76089201  0.80909204  1
  Al  Al27  1  0.23027515  0.86910327  0.55009592  1
  Al  Al28  1  0.77533116  0.76454827  0.30362748  1
  Al  Al29  1  0.88785376  0.87684592  0.05944598  1
  Al  Al30  1  0.55273964  0.87533813  0.54911235  1
  Gd  Gd31  1  0.89847127  0.20162579  0.56440514  1
  Gd  Gd32  1  0.21810729  0.53694164  0.05969423  1
  Gd  Gd33  1  0.55336295  0.54271364  0.07166761  1
  Gd  Gd34  1  0.88693267  0.86524220  0.56441580  1
  Gd  Gd35  1  0.44412036  0.76918711  0.79330303  1
  N  N36  1  0.22237621  0.20146533  0.37501415  1
  N  N37  1  0.10989841  0.09952528  0.11644810  1
  N  N38  1  0.89214496  0.20356060  0.86585822  1
  N  N39  1  0.75043758  0.10751633  0.63999872  1
  N  N40  1  0.55926732  0.19921269  0.37395014  1
  N  N41  1  0.44240118  0.09900075  0.12387161  1
  N  N42  1  0.22634759  0.20500865  0.87343482  1
  N  N43  1  0.15287770  0.06940559  0.63636429  1
  N  N44  1  0.88759089  0.20201823  0.34682940  1
  N  N45  1  0.77522134  0.09598676  0.10744349  1
  N  N46  1  0.55007689  0.21016828  0.87301694  1
  N  N47  1  0.44692936  0.09199388  0.62194066  1
  N  N48  1  0.21743829  0.54322828  0.36971692  1
  N  N49  1  0.10793298  0.40610078  0.13547251  1
  N  N50  1  0.89283908  0.53411656  0.84333401  1
  N  N51  1  0.75773700  0.44882932  0.62447967  1
  N  N52  1  0.55672733  0.53657972  0.35576419  1
  N  N53  1  0.45587000  0.39597218  0.14074557  1
  N  N54  1  0.22628607  0.53348791  0.84110648  1
  N  N55  1  0.11151046  0.42371435  0.61458064  1
  N  N56  1  0.88365733  0.54375443  0.34726178  1
  N  N57  1  0.80265131  0.40969551  0.12232987  1
  N  N58  1  0.56154784  0.51630506  0.85578255  1
  N  N59  1  0.44745255  0.42415377  0.60615954  1
  N  N60  1  0.21166010  0.88135555  0.36664975  1
  N  N61  1  0.09805534  0.78908290  0.12640724  1
  N  N62  1  0.89390216  0.86795410  0.86729504  1
  N  N63  1  0.74865497  0.75888241  0.63770940  1
  N  N64  1  0.55863245  0.87903599  0.36478194  1
  N  N65  1  0.42570108  0.79903671  0.13277829  1
  N  N66  1  0.20118676  0.88024959  0.88438310  1
  N  N67  1  0.14370569  0.75026720  0.62528728  1
  N  N68  1  0.88288543  0.87730162  0.34713904  1
  N  N69  1  0.77869568  0.76121677  0.11529462  1
  N  N70  1  0.56618312  0.88938156  0.88556748  1
  N  N71  1  0.44832704  0.75833586  0.57400582  1
