# generated using pymatgen
data_Gd5Al31N36
_symmetry_space_group_name_H-M   'P 1'
_cell_length_a   9.64781731
_cell_length_b   9.69716026
_cell_length_c   10.73565998
_cell_angle_alpha   89.41409802
_cell_angle_beta   89.12908533
_cell_angle_gamma   59.66902725
_symmetry_Int_Tables_number   1
_chemical_formula_structural   Gd5Al31N36
_chemical_formula_sum   'Gd5 Al31 N36'
_cell_volume   866.80789038
_cell_formula_units_Z   1
loop_
 _symmetry_equiv_pos_site_id
 _symmetry_equiv_pos_as_xyz
  1  'x, y, z'
loop_
 _atom_site_type_symbol
 _atom_site_label
 _atom_site_symmetry_multiplicity
 _atom_site_fract_x
 _atom_site_fract_y
 _atom_site_fract_z
 _atom_site_occupancy
  Al  Al0  1  0.10874403  0.10210598  0.39949327  1
  Al  Al1  1  0.21613052  0.20993325  0.15353957  1
  Al  Al2  1  0.78136231  0.08949673  0.91963787  1
  Al  Al3  1  0.44018824  0.09145005  0.33245199  1
  Al  Al4  1  0.56272768  0.19810741  0.16783504  1
  Al  Al5  1  0.11338707  0.09442835  0.91794891  1
  Al  Al6  1  0.22383773  0.20191823  0.65117832  1
  Al  Al7  1  0.76971466  0.09872758  0.39753627  1
  Al  Al8  1  0.89888405  0.19856348  0.15609444  1
  Al  Al9  1  0.45922496  0.08708407  0.82959861  1
  Al  Al10  1  0.55231696  0.20720988  0.63479980  1
  Al  Al11  1  0.10565733  0.42707278  0.40822478  1
  Al  Al12  1  0.79779769  0.41088014  0.91600986  1
  Al  Al13  1  0.88049342  0.53887316  0.64700929  1
  Al  Al14  1  0.43279644  0.43079268  0.34221437  1
  Al  Al15  1  0.11128447  0.41397815  0.89003383  1
  Al  Al16  1  0.22342145  0.54280711  0.58778044  1
  Al  Al17  1  0.78274687  0.42709674  0.39319013  1
  Al  Al18  1  0.89899894  0.53055350  0.15524215  1
  Al  Al19  1  0.45478103  0.42032820  0.81912730  1
  Al  Al20  1  0.54530670  0.54587587  0.56124101  1
  Al  Al21  1  0.10667729  0.76849572  0.34019426  1
  Al  Al22  1  0.21673745  0.88241852  0.09731745  1
  Al  Al23  1  0.79659643  0.75346065  0.92155930  1
  Al  Al24  1  0.43269316  0.77499256  0.33332947  1
  Al  Al25  1  0.55006907  0.88832102  0.08987197  1
  Al  Al26  1  0.12374642  0.75495351  0.83138578  1
  Al  Al27  1  0.22792792  0.86561531  0.57083387  1
  Al  Al28  1  0.77680880  0.75437276  0.39648711  1
  Al  Al29  1  0.87687680  0.88214246  0.16494204  1
  Al  Al30  1  0.54044270  0.87534161  0.56415041  1
  Gd  Gd31  1  0.88591082  0.21112140  0.65953839  1
  Gd  Gd32  1  0.21235888  0.55754869  0.07597401  1
  Gd  Gd33  1  0.55381966  0.54256729  0.10745867  1
  Gd  Gd34  1  0.86351935  0.87659026  0.65548631  1
  Gd  Gd35  1  0.45841884  0.75650652  0.82541640  1
  N  N36  1  0.20968846  0.21665354  0.33777708  1
  N  N37  1  0.11341243  0.10244422  0.09709089  1
  N  N38  1  0.89794714  0.19428554  0.87183344  1
  N  N39  1  0.75502415  0.11203336  0.56873282  1
  N  N40  1  0.55240378  0.20241109  0.35329079  1
  N  N41  1  0.44659880  0.09496626  0.14972192  1
  N  N42  1  0.22222965  0.19556275  0.83572230  1
  N  N43  1  0.13451150  0.09060632  0.57848043  1
  N  N44  1  0.88818140  0.20468634  0.33940336  1
  N  N45  1  0.77370412  0.09797749  0.10165888  1
  N  N46  1  0.57812138  0.19323167  0.82801510  1
  N  N47  1  0.45411864  0.07961776  0.64275048  1
  N  N48  1  0.21451561  0.54943682  0.40243085  1
  N  N49  1  0.10159554  0.41063315  0.07457224  1
  N  N50  1  0.88508683  0.53791755  0.83694722  1
  N  N51  1  0.76985369  0.44735698  0.57185370  1
  N  N52  1  0.54702417  0.54422061  0.37609993  1
  N  N53  1  0.43724729  0.41359141  0.16724458  1
  N  N54  1  0.22975734  0.52644550  0.86331691  1
  N  N55  1  0.10730748  0.42314085  0.59303297  1
  N  N56  1  0.89248554  0.53709852  0.33544698  1
  N  N57  1  0.81309147  0.40939795  0.09615960  1
  N  N58  1  0.57238140  0.50490953  0.89224196  1
  N  N59  1  0.44477500  0.43308362  0.63280409  1
  N  N60  1  0.21637956  0.87188102  0.39330851  1
  N  N61  1  0.09907611  0.79676538  0.16652826  1
  N  N62  1  0.89862816  0.86551381  0.86951125  1
  N  N63  1  0.76604103  0.74051359  0.57435989  1
  N  N64  1  0.54314892  0.87926243  0.38759552  1
  N  N65  1  0.42716776  0.80147699  0.15645640  1
  N  N66  1  0.21286569  0.86401623  0.91462467  1
  N  N67  1  0.13455168  0.75628552  0.64997747  1
  N  N68  1  0.87277214  0.87717134  0.34912492  1
  N  N69  1  0.79045525  0.75216288  0.10280815  1
  N  N70  1  0.56920078  0.88890663  0.91096022  1
  N  N71  1  0.44333505  0.75898338  0.61487999  1
