# generated using pymatgen
data_Gd5Al31N36
_symmetry_space_group_name_H-M   'P 1'
_cell_length_a   9.68817600
_cell_length_b   9.71007825
_cell_length_c   10.54545247
_cell_angle_alpha   89.48459717
_cell_angle_beta   89.09828651
_cell_angle_gamma   60.00363979
_symmetry_Int_Tables_number   1
_chemical_formula_structural   Gd5Al31N36
_chemical_formula_sum   'Gd5 Al31 N36'
_cell_volume   859.05777618
_cell_formula_units_Z   1
loop_
 _symmetry_equiv_pos_site_id
 _symmetry_equiv_pos_as_xyz
  1  'x, y, z'
loop_
 _atom_site_type_symbol
 _atom_site_label
 _atom_site_symmetry_multiplicity
 _atom_site_fract_x
 _atom_site_fract_y
 _atom_site_fract_z
 _atom_site_occupancy
  Al  Al0  1  0.11226593  0.09826780  0.33288261  1
  Al  Al1  1  0.22486601  0.19692269  0.07757798  1
  Al  Al2  1  0.79543631  0.08183757  0.91737549  1
  Al  Al3  1  0.43428883  0.10180901  0.32589231  1
  Al  Al4  1  0.54982164  0.20151509  0.08226979  1
  Al  Al5  1  0.12715656  0.08008169  0.83976142  1
  Al  Al6  1  0.23155678  0.19508250  0.58674213  1
  Al  Al7  1  0.76479845  0.10154982  0.39369302  1
  Al  Al8  1  0.88988575  0.20243891  0.15397322  1
  Al  Al9  1  0.45692711  0.09075226  0.83282720  1
  Al  Al10  1  0.53593136  0.21260625  0.57221709  1
  Al  Al11  1  0.10210393  0.43330039  0.40909710  1
  Al  Al12  1  0.79972928  0.40859285  0.91167485  1
  Al  Al13  1  0.87875520  0.54189574  0.64715417  1
  Al  Al14  1  0.43366292  0.42485117  0.33641243  1
  Al  Al15  1  0.11111290  0.41911413  0.88749126  1
  Al  Al16  1  0.22795534  0.54012805  0.59027205  1
  Al  Al17  1  0.77921631  0.43149665  0.38990406  1
  Al  Al18  1  0.89996515  0.53042085  0.15268542  1
  Al  Al19  1  0.45921454  0.41125357  0.82278889  1
  Al  Al20  1  0.54370113  0.54655081  0.55946057  1
  Al  Al21  1  0.10623617  0.77290060  0.34193448  1
  Al  Al22  1  0.20918079  0.89229807  0.09189769  1
  Al  Al23  1  0.79577736  0.75329322  0.91767020  1
  Al  Al24  1  0.42977166  0.77987965  0.33332678  1
  Al  Al25  1  0.55038715  0.88482880  0.08890269  1
  Al  Al26  1  0.12500510  0.75315672  0.83065500  1
  Al  Al27  1  0.22904680  0.87109046  0.57746141  1
  Al  Al28  1  0.77395018  0.75628732  0.39251027  1
  Al  Al29  1  0.87666831  0.88271322  0.16411027  1
  Al  Al30  1  0.54280024  0.87725123  0.56406887  1
  Gd  Gd31  1  0.88040373  0.21641504  0.64580082  1
  Gd  Gd32  1  0.21655437  0.55574752  0.08231990  1
  Gd  Gd33  1  0.55720991  0.53963925  0.11140245  1
  Gd  Gd34  1  0.87460574  0.87112740  0.64500839  1
  Gd  Gd35  1  0.45855217  0.75314119  0.82503657  1
  N  N36  1  0.21906661  0.20357299  0.39820164  1
  N  N37  1  0.11492442  0.10111094  0.15022578  1
  N  N38  1  0.90072997  0.19356431  0.86236274  1
  N  N39  1  0.75384339  0.10822189  0.57122385  1
  N  N40  1  0.53306412  0.21220253  0.39093989  1
  N  N41  1  0.44005105  0.09873764  0.14327921  1
  N  N42  1  0.23649917  0.18794884  0.89090979  1
  N  N43  1  0.15015932  0.07080871  0.65550245  1
  N  N44  1  0.87757118  0.21117207  0.34141254  1
  N  N45  1  0.77854638  0.09369625  0.10011955  1
  N  N46  1  0.56022103  0.20040835  0.89332728  1
  N  N47  1  0.45046323  0.08896425  0.64443616  1
  N  N48  1  0.21503311  0.55109892  0.39719221  1
  N  N49  1  0.09854938  0.41850310  0.07518207  1
  N  N50  1  0.88716188  0.53657376  0.83559671  1
  N  N51  1  0.76533983  0.45528902  0.56869226  1
  N  N52  1  0.54322886  0.54630069  0.37000975  1
  N  N53  1  0.44962429  0.39550919  0.16172612  1
  N  N54  1  0.23164589  0.52813583  0.86446526  1
  N  N55  1  0.10400049  0.42940972  0.59622361  1
  N  N56  1  0.89333401  0.53691652  0.33412521  1
  N  N57  1  0.81501309  0.40821430  0.09259231  1
  N  N58  1  0.57538563  0.50269192  0.89056717  1
  N  N59  1  0.45032040  0.42443385  0.63428603  1
  N  N60  1  0.21070575  0.88464651  0.39744353  1
  N  N61  1  0.09795921  0.79914002  0.16484159  1
  N  N62  1  0.89937549  0.86387319  0.86312500  1
  N  N63  1  0.76394534  0.74267156  0.57340769  1
  N  N64  1  0.54318243  0.88442445  0.38191295  1
  N  N65  1  0.42318625  0.80111136  0.15102612  1
  N  N66  1  0.20726039  0.87246341  0.91055011  1
  N  N67  1  0.14383689  0.75036642  0.64793468  1
  N  N68  1  0.87202822  0.87935665  0.35080276  1
  N  N69  1  0.78827807  0.75343077  0.10298121  1
  N  N70  1  0.57220717  0.88389856  0.90584238  1
  N  N71  1  0.44697471  0.75807951  0.61013209  1
