# generated using pymatgen
data_Gd5Al31N36
_symmetry_space_group_name_H-M   'P 1'
_cell_length_a   9.71656596
_cell_length_b   9.73812193
_cell_length_c   10.54268645
_cell_angle_alpha   89.63209737
_cell_angle_beta   89.60500247
_cell_angle_gamma   60.08290930
_symmetry_Int_Tables_number   1
_chemical_formula_structural   Gd5Al31N36
_chemical_formula_sum   'Gd5 Al31 N36'
_cell_volume   864.60803257
_cell_formula_units_Z   1
loop_
 _symmetry_equiv_pos_site_id
 _symmetry_equiv_pos_as_xyz
  1  'x, y, z'
loop_
 _atom_site_type_symbol
 _atom_site_label
 _atom_site_symmetry_multiplicity
 _atom_site_fract_x
 _atom_site_fract_y
 _atom_site_fract_z
 _atom_site_occupancy
  Al  Al0  1  0.11136087  0.10094999  0.39868872  1
  Al  Al1  1  0.21549113  0.20853034  0.15234715  1
  Al  Al2  1  0.78309629  0.08720514  0.91671853  1
  Al  Al3  1  0.44096902  0.09378826  0.32913234  1
  Al  Al4  1  0.56161365  0.19704788  0.15394047  1
  Al  Al5  1  0.11024844  0.09852131  0.91629705  1
  Al  Al6  1  0.22551056  0.20224115  0.65034765  1
  Al  Al7  1  0.76599247  0.10308490  0.39598942  1
  Al  Al8  1  0.89994014  0.19487377  0.15535704  1
  Al  Al9  1  0.45633392  0.08589422  0.83244855  1
  Al  Al10  1  0.55066965  0.21401709  0.64650624  1
  Al  Al11  1  0.11064831  0.43128231  0.40541708  1
  Al  Al12  1  0.79683170  0.41214749  0.91703056  1
  Al  Al13  1  0.87980501  0.54059264  0.64799564  1
  Al  Al14  1  0.43150572  0.42786763  0.37772775  1
  Al  Al15  1  0.10919917  0.41420970  0.89383781  1
  Al  Al16  1  0.23247665  0.53002382  0.65652020  1
  Al  Al17  1  0.78567206  0.42607551  0.39199492  1
  Al  Al18  1  0.89858970  0.52883933  0.15491795  1
  Al  Al19  1  0.46017709  0.40588706  0.89889001  1
  Al  Al20  1  0.54622477  0.54561065  0.56057704  1
  Al  Al21  1  0.10562748  0.77103982  0.33509200  1
  Al  Al22  1  0.21472008  0.88574616  0.09512628  1
  Al  Al23  1  0.79341943  0.75412352  0.91658708  1
  Al  Al24  1  0.43085137  0.77920162  0.33399414  1
  Al  Al25  1  0.54839150  0.88649579  0.08821674  1
  Al  Al26  1  0.11707982  0.76484119  0.83888590  1
  Al  Al27  1  0.23215306  0.86288054  0.57195395  1
  Al  Al28  1  0.77564573  0.75374498  0.39551403  1
  Al  Al29  1  0.87339129  0.88417495  0.16351677  1
  Al  Al30  1  0.54217980  0.87799963  0.56657315  1
  Gd  Gd31  1  0.88767000  0.21188003  0.65512541  1
  Gd  Gd32  1  0.20344853  0.55535037  0.10799214  1
  Gd  Gd33  1  0.56095738  0.53971891  0.12376382  1
  Gd  Gd34  1  0.87723736  0.87157810  0.64002188  1
  Gd  Gd35  1  0.45361843  0.75363717  0.82634899  1
  N  N36  1  0.21250046  0.21604405  0.33979974  1
  N  N37  1  0.11133790  0.10377433  0.09840146  1
  N  N38  1  0.89548812  0.19620786  0.86986968  1
  N  N39  1  0.74818817  0.11600955  0.57122028  1
  N  N40  1  0.55236025  0.21015101  0.33797462  1
  N  N41  1  0.44405975  0.09337831  0.14511985  1
  N  N42  1  0.22092770  0.19811862  0.83740486  1
  N  N43  1  0.13749137  0.08771919  0.57996404  1
  N  N44  1  0.88966039  0.20355212  0.34222743  1
  N  N45  1  0.77555367  0.09385855  0.10000734  1
  N  N46  1  0.57134370  0.19748226  0.83636228  1
  N  N47  1  0.45312436  0.08307996  0.64416950  1
  N  N48  1  0.21241079  0.54370529  0.34628745  1
  N  N49  1  0.09830771  0.40849139  0.07485139  1
  N  N50  1  0.88677986  0.53683007  0.83777719  1
  N  N51  1  0.76826487  0.44944002  0.57174118  1
  N  N52  1  0.54846815  0.54332342  0.36713255  1
  N  N53  1  0.45264302  0.39525806  0.09163802  1
  N  N54  1  0.22902862  0.52643379  0.85456582  1
  N  N55  1  0.11026133  0.42877659  0.59573062  1
  N  N56  1  0.89289716  0.53706553  0.33731870  1
  N  N57  1  0.81577161  0.40532977  0.09848616  1
  N  N58  1  0.57735840  0.50938799  0.89551033  1
  N  N59  1  0.44133936  0.42804258  0.59403211  1
  N  N60  1  0.21696052  0.87084298  0.39187499  1
  N  N61  1  0.08910014  0.81055290  0.15974852  1
  N  N62  1  0.89304690  0.86795215  0.86157889  1
  N  N63  1  0.76426158  0.74152338  0.57666067  1
  N  N64  1  0.54426860  0.88238307  0.38591321  1
  N  N65  1  0.42356640  0.80279767  0.15381536  1
  N  N66  1  0.20863881  0.87252514  0.91248147  1
  N  N67  1  0.14460873  0.75301497  0.65618754  1
  N  N68  1  0.87310930  0.87803395  0.35369341  1
  N  N69  1  0.78953130  0.75089790  0.10248286  1
  N  N70  1  0.56859635  0.88554955  0.90751365  1
  N  N71  1  0.44708761  0.75773740  0.61065049  1
