# generated using pymatgen
data_Gd5Al31N36
_symmetry_space_group_name_H-M   'P 1'
_cell_length_a   9.69160206
_cell_length_b   9.69037030
_cell_length_c   10.29505233
_cell_angle_alpha   89.59737740
_cell_angle_beta   89.68783349
_cell_angle_gamma   59.85676986
_symmetry_Int_Tables_number   1
_chemical_formula_structural   Gd5Al31N36
_chemical_formula_sum   'Gd5 Al31 N36'
_cell_volume   836.09326255
_cell_formula_units_Z   1
loop_
 _symmetry_equiv_pos_site_id
 _symmetry_equiv_pos_as_xyz
  1  'x, y, z'
loop_
 _atom_site_type_symbol
 _atom_site_label
 _atom_site_symmetry_multiplicity
 _atom_site_fract_x
 _atom_site_fract_y
 _atom_site_fract_z
 _atom_site_occupancy
  Al  Al0  1  0.11809173  0.09410479  0.40594023  1
  Al  Al1  1  0.22281252  0.20129127  0.15986732  1
  Al  Al2  1  0.77350000  0.09680396  0.93059550  1
  Al  Al3  1  0.44276388  0.09805395  0.41137663  1
  Al  Al4  1  0.55515720  0.19840135  0.16209198  1
  Al  Al5  1  0.10617919  0.09810382  0.92268079  1
  Al  Al6  1  0.22966407  0.20083319  0.66088994  1
  Al  Al7  1  0.77183633  0.09780084  0.40107293  1
  Al  Al8  1  0.89446297  0.20290937  0.16211755  1
  Al  Al9  1  0.44929185  0.09642256  0.91080201  1
  Al  Al10  1  0.54964568  0.20436838  0.66164515  1
  Al  Al11  1  0.11105530  0.42585819  0.42022190  1
  Al  Al12  1  0.78313150  0.42324812  0.91756153  1
  Al  Al13  1  0.88325579  0.54108215  0.66263597  1
  Al  Al14  1  0.44319754  0.42418760  0.42932342  1
  Al  Al15  1  0.10732630  0.42384021  0.90515006  1
  Al  Al16  1  0.22476798  0.53748550  0.66365808  1
  Al  Al17  1  0.78131806  0.42937403  0.41779130  1
  Al  Al18  1  0.89201429  0.53180136  0.16265999  1
  Al  Al19  1  0.45150356  0.41474691  0.89942854  1
  Al  Al20  1  0.55829267  0.53450737  0.65514343  1
  Al  Al21  1  0.11710395  0.75861347  0.41478643  1
  Al  Al22  1  0.21868569  0.88316365  0.16957241  1
  Al  Al23  1  0.77914638  0.76225874  0.92280325  1
  Al  Al24  1  0.44280525  0.76556196  0.42515204  1
  Al  Al25  1  0.55202292  0.87886671  0.16841595  1
  Al  Al26  1  0.10137719  0.77383223  0.91715767  1
  Al  Al27  1  0.22357633  0.87387725  0.65489701  1
  Al  Al28  1  0.77683152  0.75686752  0.40564214  1
  Al  Al29  1  0.88745924  0.87595622  0.16361375  1
  Al  Al30  1  0.55667837  0.87588254  0.65549234  1
  Gd  Gd31  1  0.89480135  0.19953394  0.66634068  1
  Gd  Gd32  1  0.21768537  0.53418590  0.15713387  1
  Gd  Gd33  1  0.55437307  0.53625059  0.17156022  1
  Gd  Gd34  1  0.88423130  0.86755026  0.66488635  1
  Gd  Gd35  1  0.43941217  0.76730593  0.89443166  1
  N  N36  1  0.22374817  0.20965355  0.34890304  1
  N  N37  1  0.11346271  0.09457730  0.10984097  1
  N  N38  1  0.88732877  0.20378163  0.88547687  1
  N  N39  1  0.74873844  0.10798335  0.58193402  1
  N  N40  1  0.54826755  0.21200581  0.34895548  1
  N  N41  1  0.44539777  0.09300764  0.10140263  1
  N  N42  1  0.22468070  0.19965104  0.85090682  1
  N  N43  1  0.14334832  0.08203439  0.58739850  1
  N  N44  1  0.89050064  0.20718011  0.35512822  1
  N  N45  1  0.77486544  0.09613226  0.11780523  1
  N  N46  1  0.56187541  0.19760469  0.84850465  1
  N  N47  1  0.44384107  0.09672471  0.59911603  1
  N  N48  1  0.22456182  0.53471935  0.37659405  1
  N  N49  1  0.09747374  0.40929290  0.08864345  1
  N  N50  1  0.88459223  0.54319956  0.85170089  1
  N  N51  1  0.77241218  0.44559543  0.59939587  1
  N  N52  1  0.55273786  0.53986030  0.38996079  1
  N  N53  1  0.45966655  0.39640460  0.08038567  1
  N  N54  1  0.21771983  0.54383077  0.85729432  1
  N  N55  1  0.10875446  0.42713808  0.60996070  1
  N  N56  1  0.89354061  0.53502219  0.35051076  1
  N  N57  1  0.79855099  0.41762161  0.10177880  1
  N  N58  1  0.57460228  0.50769507  0.84426785  1
  N  N59  1  0.44326062  0.42336761  0.61445714  1
  N  N60  1  0.22507530  0.87066634  0.35619860  1
  N  N61  1  0.10192441  0.79134927  0.10155785  1
  N  N62  1  0.88306342  0.87643631  0.88470119  1
  N  N63  1  0.76399396  0.74595144  0.58797720  1
  N  N64  1  0.55271702  0.87532782  0.35655001  1
  N  N65  1  0.43059286  0.79004457  0.11153305  1
  N  N66  1  0.18071618  0.89763359  0.83760493  1
  N  N67  1  0.13776612  0.74905884  0.59695902  1
  N  N68  1  0.89205279  0.86838705  0.35540727  1
  N  N69  1  0.77711136  0.75779756  0.11192524  1
  N  N70  1  0.57652672  0.88701580  0.84076441  1
  N  N71  1  0.44534959  0.76299844  0.61813227  1
