# generated using pymatgen
data_Gd5Al31N36
_symmetry_space_group_name_H-M   'P 1'
_cell_length_a   9.62851748
_cell_length_b   9.68764091
_cell_length_c   10.73341357
_cell_angle_alpha   89.49688744
_cell_angle_beta   88.93450362
_cell_angle_gamma   59.63929679
_symmetry_Int_Tables_number   1
_chemical_formula_structural   Gd5Al31N36
_chemical_formula_sum   'Gd5 Al31 N36'
_cell_volume   863.73538765
_cell_formula_units_Z   1
loop_
 _symmetry_equiv_pos_site_id
 _symmetry_equiv_pos_as_xyz
  1  'x, y, z'
loop_
 _atom_site_type_symbol
 _atom_site_label
 _atom_site_symmetry_multiplicity
 _atom_site_fract_x
 _atom_site_fract_y
 _atom_site_fract_z
 _atom_site_occupancy
  Al  Al0  1  0.10817540  0.10341260  0.40071802  1
  Al  Al1  1  0.21600425  0.21056391  0.15468948  1
  Al  Al2  1  0.78693547  0.08652261  0.92458925  1
  Al  Al3  1  0.44039356  0.09464184  0.33306947  1
  Al  Al4  1  0.55920825  0.19835226  0.12859343  1
  Al  Al5  1  0.11607222  0.09332987  0.91740777  1
  Al  Al6  1  0.22449875  0.20198727  0.65226908  1
  Al  Al7  1  0.77400249  0.09774833  0.39536289  1
  Al  Al8  1  0.90101255  0.19909852  0.15700005  1
  Al  Al9  1  0.46401891  0.08895889  0.82859711  1
  Al  Al10  1  0.53824201  0.21305435  0.57078441  1
  Al  Al11  1  0.10497385  0.42838266  0.40886632  1
  Al  Al12  1  0.79837248  0.41044538  0.91630532  1
  Al  Al13  1  0.88015511  0.54001250  0.64690749  1
  Al  Al14  1  0.43068712  0.43118799  0.34412364  1
  Al  Al15  1  0.11309826  0.41319923  0.88827181  1
  Al  Al16  1  0.22026886  0.54538779  0.59039988  1
  Al  Al17  1  0.78188584  0.42893572  0.39341581  1
  Al  Al18  1  0.90023419  0.53109020  0.15570615  1
  Al  Al19  1  0.46101831  0.40936377  0.81652934  1
  Al  Al20  1  0.54350179  0.54697558  0.56109198  1
  Al  Al21  1  0.10634995  0.76842248  0.34033070  1
  Al  Al22  1  0.21747432  0.88117733  0.09674951  1
  Al  Al23  1  0.79725886  0.75169377  0.92262927  1
  Al  Al24  1  0.43179445  0.77630275  0.33372618  1
  Al  Al25  1  0.55111325  0.88563411  0.08945353  1
  Al  Al26  1  0.12409620  0.75390703  0.83102999  1
  Al  Al27  1  0.22411326  0.86763914  0.57163175  1
  Al  Al28  1  0.77636365  0.75572515  0.39704972  1
  Al  Al29  1  0.87941215  0.87873007  0.16466410  1
  Al  Al30  1  0.53910301  0.87597921  0.56454485  1
  Gd  Gd31  1  0.88214152  0.21430213  0.66113843  1
  Gd  Gd32  1  0.21965116  0.55341103  0.07281302  1
  Gd  Gd33  1  0.55517605  0.54036952  0.10904585  1
  Gd  Gd34  1  0.85344157  0.88400519  0.66231798  1
  Gd  Gd35  1  0.45935013  0.75430444  0.82567825  1
  N  N36  1  0.20874176  0.21769194  0.33746842  1
  N  N37  1  0.11571216  0.10166167  0.09717210  1
  N  N38  1  0.89998686  0.19294318  0.87352673  1
  N  N39  1  0.76008138  0.11058643  0.56792832  1
  N  N40  1  0.53777148  0.21063010  0.38877334  1
  N  N41  1  0.44981599  0.09251630  0.15309771  1
  N  N42  1  0.22445977  0.19411200  0.83506764  1
  N  N43  1  0.13284535  0.09267866  0.57936879  1
  N  N44  1  0.88783314  0.20660619  0.33883139  1
  N  N45  1  0.78072262  0.09463464  0.10667331  1
  N  N46  1  0.57220105  0.19508393  0.86788779  1
  N  N47  1  0.45781590  0.08310516  0.64152273  1
  N  N48  1  0.21205314  0.55210992  0.40363601  1
  N  N49  1  0.10401965  0.41097974  0.07444032  1
  N  N50  1  0.88599192  0.53701309  0.83692835  1
  N  N51  1  0.76814558  0.44974143  0.57154902  1
  N  N52  1  0.54576907  0.54531774  0.37550022  1
  N  N53  1  0.44257879  0.40470829  0.17213065  1
  N  N54  1  0.23124370  0.52506590  0.85975354  1
  N  N55  1  0.10716828  0.42301411  0.59322934  1
  N  N56  1  0.89226184  0.53818500  0.33567680  1
  N  N57  1  0.81414881  0.40986894  0.09657645  1
  N  N58  1  0.57295074  0.50309672  0.89252534  1
  N  N59  1  0.44620775  0.42831821  0.63028971  1
  N  N60  1  0.21454805  0.87341373  0.39355008  1
  N  N61  1  0.10281917  0.79145330  0.16597587  1
  N  N62  1  0.90086622  0.86360293  0.87483324  1
  N  N63  1  0.76566989  0.74220635  0.57475814  1
  N  N64  1  0.54207142  0.88113370  0.38787258  1
  N  N65  1  0.42788717  0.80007373  0.15642920  1
  N  N66  1  0.21343599  0.86300696  0.91492729  1
  N  N67  1  0.12836573  0.76002186  0.65043129  1
  N  N68  1  0.87118831  0.87846693  0.34667069  1
  N  N69  1  0.78987608  0.75160844  0.10336633  1
  N  N70  1  0.56974941  0.88700251  0.91010290  1
  N  N71  1  0.44048767  0.76046517  0.61494002  1
