# generated using pymatgen
data_Gd5Al31N36
_symmetry_space_group_name_H-M   'P 1'
_cell_length_a   9.63096955
_cell_length_b   9.68945157
_cell_length_c   10.73333637
_cell_angle_alpha   89.50154212
_cell_angle_beta   88.92068818
_cell_angle_gamma   59.63137994
_symmetry_Int_Tables_number   1
_chemical_formula_structural   Gd5Al31N36
_chemical_formula_sum   'Gd5 Al31 N36'
_cell_volume   864.03659395
_cell_formula_units_Z   1
loop_
 _symmetry_equiv_pos_site_id
 _symmetry_equiv_pos_as_xyz
  1  'x, y, z'
loop_
 _atom_site_type_symbol
 _atom_site_label
 _atom_site_symmetry_multiplicity
 _atom_site_fract_x
 _atom_site_fract_y
 _atom_site_fract_z
 _atom_site_occupancy
  Al  Al0  1  0.10770258  0.10333973  0.40097437  1
  Al  Al1  1  0.21615437  0.21060856  0.15474151  1
  Al  Al2  1  0.78434909  0.08795438  0.92459107  1
  Al  Al3  1  0.43887801  0.09301943  0.33441813  1
  Al  Al4  1  0.56182811  0.19723041  0.14713588  1
  Al  Al5  1  0.11619405  0.09328059  0.91736386  1
  Al  Al6  1  0.22370949  0.20206910  0.65186911  1
  Al  Al7  1  0.77573339  0.09659302  0.39516686  1
  Al  Al8  1  0.90117740  0.19919671  0.15667972  1
  Al  Al9  1  0.46458671  0.08903752  0.82700798  1
  Al  Al10  1  0.53893948  0.21267654  0.57197392  1
  Al  Al11  1  0.10462058  0.42849469  0.40901071  1
  Al  Al12  1  0.79864672  0.41026705  0.91625341  1
  Al  Al13  1  0.88013513  0.54001381  0.64702017  1
  Al  Al14  1  0.42984913  0.43339255  0.34492682  1
  Al  Al15  1  0.11335202  0.41300846  0.88811409  1
  Al  Al16  1  0.21950881  0.54592831  0.59024459  1
  Al  Al17  1  0.78202740  0.42874968  0.39346508  1
  Al  Al18  1  0.89999439  0.53114923  0.15569556  1
  Al  Al19  1  0.46172489  0.40890424  0.81499806  1
  Al  Al20  1  0.54352687  0.54735248  0.56097872  1
  Al  Al21  1  0.10630206  0.76843773  0.34009670  1
  Al  Al22  1  0.21765585  0.88120048  0.09661423  1
  Al  Al23  1  0.79739233  0.75179125  0.92280574  1
  Al  Al24  1  0.43189958  0.77590621  0.33340929  1
  Al  Al25  1  0.55101461  0.88648825  0.08930216  1
  Al  Al26  1  0.12415096  0.75390633  0.83122933  1
  Al  Al27  1  0.22374669  0.86768629  0.57186484  1
  Al  Al28  1  0.77671874  0.75546868  0.39714401  1
  Al  Al29  1  0.87980198  0.87838245  0.16404025  1
  Al  Al30  1  0.53915392  0.87544131  0.56442565  1
  Gd  Gd31  1  0.88075209  0.21434731  0.66183165  1
  Gd  Gd32  1  0.21955341  0.55325015  0.07261134  1
  Gd  Gd33  1  0.55486923  0.54065161  0.10798459  1
  Gd  Gd34  1  0.85206741  0.88519182  0.66355687  1
  Gd  Gd35  1  0.45960608  0.75444592  0.82579105  1
  N  N36  1  0.20832524  0.21764770  0.33801149  1
  N  N37  1  0.11594399  0.10166199  0.09722694  1
  N  N38  1  0.90016251  0.19273751  0.87424305  1
  N  N39  1  0.76003294  0.11033407  0.56665444  1
  N  N40  1  0.53993684  0.20932436  0.38389940  1
  N  N41  1  0.44958126  0.09271730  0.15411473  1
  N  N42  1  0.22481572  0.19397478  0.83475401  1
  N  N43  1  0.13156875  0.09285671  0.57961261  1
  N  N44  1  0.88804019  0.20650225  0.33855631  1
  N  N45  1  0.77924930  0.09554864  0.10739853  1
  N  N46  1  0.57704792  0.19253061  0.85630789  1
  N  N47  1  0.45636784  0.08323923  0.63922143  1
  N  N48  1  0.21154572  0.55229166  0.40370651  1
  N  N49  1  0.10386768  0.41092550  0.07449643  1
  N  N50  1  0.88609456  0.53702113  0.83699071  1
  N  N51  1  0.76823307  0.44957660  0.57170030  1
  N  N52  1  0.54602655  0.54556876  0.37577562  1
  N  N53  1  0.44127778  0.40739635  0.17291807  1
  N  N54  1  0.23202697  0.52447689  0.85954989  1
  N  N55  1  0.10688220  0.42316504  0.59318368  1
  N  N56  1  0.89227120  0.53803243  0.33572440  1
  N  N57  1  0.81385477  0.41003605  0.09665395  1
  N  N58  1  0.57318559  0.50279091  0.89182179  1
  N  N59  1  0.44548789  0.42912722  0.62836024  1
  N  N60  1  0.21465950  0.87321978  0.39360484  1
  N  N61  1  0.10290582  0.79162674  0.16575879  1
  N  N62  1  0.90139342  0.86341053  0.87595119  1
  N  N63  1  0.76581783  0.74240316  0.57502409  1
  N  N64  1  0.54249116  0.87995598  0.38797316  1
  N  N65  1  0.42806543  0.80022973  0.15618323  1
  N  N66  1  0.21382288  0.86290704  0.91486589  1
  N  N67  1  0.12758719  0.76039187  0.65060453  1
  N  N68  1  0.87151495  0.87792668  0.34623048  1
  N  N69  1  0.78968494  0.75165001  0.10343114  1
  N  N70  1  0.56980623  0.88773531  0.90987928  1
  N  N71  1  0.44019167  0.76057677  0.61518714  1
