# generated using pymatgen
data_Gd5Al31N36
_symmetry_space_group_name_H-M   'P 1'
_cell_length_a   9.63334152
_cell_length_b   9.68248824
_cell_length_c   10.69895902
_cell_angle_alpha   89.48133936
_cell_angle_beta   89.22638325
_cell_angle_gamma   59.74255312
_symmetry_Int_Tables_number   1
_chemical_formula_structural   Gd5Al31N36
_chemical_formula_sum   'Gd5 Al31 N36'
_cell_volume   861.91120122
_cell_formula_units_Z   1
loop_
 _symmetry_equiv_pos_site_id
 _symmetry_equiv_pos_as_xyz
  1  'x, y, z'
loop_
 _atom_site_type_symbol
 _atom_site_label
 _atom_site_symmetry_multiplicity
 _atom_site_fract_x
 _atom_site_fract_y
 _atom_site_fract_z
 _atom_site_occupancy
  Al  Al0  1  0.11200025  0.10296469  0.39866769  1
  Al  Al1  1  0.21622051  0.21007565  0.15283729  1
  Al  Al2  1  0.79285700  0.08253049  0.92357515  1
  Al  Al3  1  0.44441722  0.09801692  0.32684318  1
  Al  Al4  1  0.54948779  0.20230539  0.08654282  1
  Al  Al5  1  0.11322012  0.09457113  0.91792218  1
  Al  Al6  1  0.22827692  0.20228511  0.65365078  1
  Al  Al7  1  0.77060817  0.10139743  0.39683810  1
  Al  Al8  1  0.89889486  0.19776662  0.15695767  1
  Al  Al9  1  0.46083640  0.08883539  0.83525426  1
  Al  Al10  1  0.53902931  0.21329639  0.57370409  1
  Al  Al11  1  0.10653425  0.42780567  0.40775555  1
  Al  Al12  1  0.79533105  0.41175699  0.91649672  1
  Al  Al13  1  0.88035913  0.53992975  0.64700036  1
  Al  Al14  1  0.43258745  0.42562390  0.33945139  1
  Al  Al15  1  0.11021616  0.41466397  0.88983668  1
  Al  Al16  1  0.22538806  0.54210209  0.59036605  1
  Al  Al17  1  0.78255473  0.42865411  0.39296354  1
  Al  Al18  1  0.90021790  0.53086577  0.15487133  1
  Al  Al19  1  0.45641978  0.41201551  0.82403931  1
  Al  Al20  1  0.54570619  0.54427498  0.56219066  1
  Al  Al21  1  0.10667976  0.76879662  0.34116421  1
  Al  Al22  1  0.21568567  0.88178832  0.09774362  1
  Al  Al23  1  0.79495153  0.75278218  0.92004342  1
  Al  Al24  1  0.43236240  0.77701151  0.33427772  1
  Al  Al25  1  0.55072871  0.88404727  0.09004329  1
  Al  Al26  1  0.12272620  0.75438077  0.83042683  1
  Al  Al27  1  0.22983361  0.86608042  0.57025028  1
  Al  Al28  1  0.77490324  0.75597432  0.39622920  1
  Al  Al29  1  0.87524098  0.88311008  0.16679918  1
  Al  Al30  1  0.54045672  0.87781004  0.56572167  1
  Gd  Gd31  1  0.89133415  0.21198009  0.65799487  1
  Gd  Gd32  1  0.21638846  0.55581552  0.07621588  1
  Gd  Gd33  1  0.55628987  0.53755640  0.11432841  1
  Gd  Gd34  1  0.86520428  0.87705185  0.65149115  1
  Gd  Gd35  1  0.45555842  0.75427553  0.82662559  1
  N  N36  1  0.21106895  0.21821879  0.33516595  1
  N  N37  1  0.11346214  0.10208178  0.09742138  1
  N  N38  1  0.89703518  0.19484178  0.87037563  1
  N  N39  1  0.76051054  0.11293932  0.57207565  1
  N  N40  1  0.53584698  0.21213434  0.39553819  1
  N  N41  1  0.44966627  0.09330250  0.14748524  1
  N  N42  1  0.22201627  0.19530529  0.83667110  1
  N  N43  1  0.14160831  0.09022791  0.57764518  1
  N  N44  1  0.88845850  0.20613757  0.34004903  1
  N  N45  1  0.77947619  0.09457183  0.10336079  1
  N  N46  1  0.55648867  0.20253916  0.89907688  1
  N  N47  1  0.46235470  0.08330892  0.64945277  1
  N  N48  1  0.21495215  0.55056507  0.40242346  1
  N  N49  1  0.10276322  0.41135776  0.07417189  1
  N  N50  1  0.88421104  0.53721796  0.83660651  1
  N  N51  1  0.76956163  0.44865330  0.57118927  1
  N  N52  1  0.54600172  0.54339941  0.37430793  1
  N  N53  1  0.44444764  0.39660034  0.16693972  1
  N  N54  1  0.22711254  0.52773020  0.86231660  1
  N  N55  1  0.10858450  0.42313246  0.59342761  1
  N  N56  1  0.89239002  0.53855608  0.33528741  1
  N  N57  1  0.81474261  0.40869084  0.09634866  1
  N  N58  1  0.57030061  0.50427442  0.89608868  1
  N  N59  1  0.44924484  0.42540098  0.63764208  1
  N  N60  1  0.21599330  0.87330690  0.39262805  1
  N  N61  1  0.09898282  0.79446560  0.16712410  1
  N  N62  1  0.89592054  0.86595731  0.86563325  1
  N  N63  1  0.76534489  0.74094573  0.57374494  1
  N  N64  1  0.54122444  0.88479867  0.38726097  1
  N  N65  1  0.42703101  0.79896388  0.15646304  1
  N  N66  1  0.20903068  0.86503333  0.91516684  1
  N  N67  1  0.13739801  0.75609285  0.64948071  1
  N  N68  1  0.87066301  0.88014151  0.35059922  1
  N  N69  1  0.79050432  0.75209648  0.10248511  1
  N  N70  1  0.56806365  0.88476972  0.91045531  1
  N  N71  1  0.44513439  0.75843005  0.61435148  1
