# generated using pymatgen
data_Gd5Al31N36
_symmetry_space_group_name_H-M   'P 1'
_cell_length_a   9.72094984
_cell_length_b   9.75127578
_cell_length_c   10.41208884
_cell_angle_alpha   89.67181844
_cell_angle_beta   89.69994293
_cell_angle_gamma   59.77762582
_symmetry_Int_Tables_number   1
_chemical_formula_structural   Gd5Al31N36
_chemical_formula_sum   'Gd5 Al31 N36'
_cell_volume   852.81017197
_cell_formula_units_Z   1
loop_
 _symmetry_equiv_pos_site_id
 _symmetry_equiv_pos_as_xyz
  1  'x, y, z'
loop_
 _atom_site_type_symbol
 _atom_site_label
 _atom_site_symmetry_multiplicity
 _atom_site_fract_x
 _atom_site_fract_y
 _atom_site_fract_z
 _atom_site_occupancy
  Al  Al0  1  0.11244400  0.10263932  0.39116670  1
  Al  Al1  1  0.22256043  0.20180534  0.14747728  1
  Al  Al2  1  0.77793943  0.09612386  0.91756606  1
  Al  Al3  1  0.43940542  0.10343074  0.39559683  1
  Al  Al4  1  0.55573089  0.19254742  0.15065233  1
  Al  Al5  1  0.10855273  0.10554049  0.91321824  1
  Al  Al6  1  0.22919614  0.20274801  0.65087713  1
  Al  Al7  1  0.77095648  0.09732466  0.39148649  1
  Al  Al8  1  0.89790936  0.19802034  0.15479990  1
  Al  Al9  1  0.45268656  0.09340141  0.89963307  1
  Al  Al10  1  0.54888783  0.20915418  0.64796744  1
  Al  Al11  1  0.10906770  0.42639128  0.41268213  1
  Al  Al12  1  0.79251557  0.41832390  0.91394755  1
  Al  Al13  1  0.88081565  0.54284223  0.64925077  1
  Al  Al14  1  0.43812053  0.42040186  0.40682395  1
  Al  Al15  1  0.11031701  0.42403860  0.89136480  1
  Al  Al16  1  0.22632957  0.53987504  0.65125353  1
  Al  Al17  1  0.78556583  0.42887031  0.39173746  1
  Al  Al18  1  0.89547467  0.52957174  0.15028510  1
  Al  Al19  1  0.45027452  0.41184404  0.89614498  1
  Al  Al20  1  0.54981574  0.54937238  0.56569736  1
  Al  Al21  1  0.10790156  0.75826301  0.40277431  1
  Al  Al22  1  0.21828452  0.88202091  0.08965703  1
  Al  Al23  1  0.77988438  0.76236145  0.91369454  1
  Al  Al24  1  0.43145524  0.77403705  0.33339144  1
  Al  Al25  1  0.55639043  0.87985200  0.15370468  1
  Al  Al26  1  0.10523617  0.76510506  0.91284185  1
  Al  Al27  1  0.23228213  0.87149446  0.56603578  1
  Al  Al28  1  0.77988649  0.75626085  0.39023021  1
  Al  Al29  1  0.88674961  0.87606940  0.15374230  1
  Al  Al30  1  0.55402379  0.87740018  0.60618972  1
  Gd  Gd31  1  0.88719153  0.21024771  0.65065686  1
  Gd  Gd32  1  0.21154430  0.53042772  0.15367778  1
  Gd  Gd33  1  0.55603507  0.52627313  0.12631537  1
  Gd  Gd34  1  0.87959454  0.87007660  0.65808706  1
  Gd  Gd35  1  0.44943022  0.75521856  0.83080102  1
  N  N36  1  0.22128335  0.21384126  0.33559762  1
  N  N37  1  0.11105416  0.10060865  0.10152509  1
  N  N38  1  0.89289717  0.20199179  0.86770528  1
  N  N39  1  0.74935081  0.10787907  0.57028677  1
  N  N40  1  0.54934112  0.20988703  0.33522787  1
  N  N41  1  0.44549477  0.08951073  0.08993245  1
  N  N42  1  0.22785867  0.20098299  0.83807987  1
  N  N43  1  0.13699700  0.09236498  0.57652356  1
  N  N44  1  0.88849499  0.20657790  0.34318021  1
  N  N45  1  0.77563269  0.09596910  0.10412215  1
  N  N46  1  0.56325952  0.19924004  0.83408116  1
  N  N47  1  0.44156407  0.10231342  0.58205110  1
  N  N48  1  0.21894768  0.53576195  0.36936750  1
  N  N49  1  0.09770565  0.40768849  0.07222255  1
  N  N50  1  0.88545283  0.54183045  0.83830345  1
  N  N51  1  0.77017217  0.45200939  0.57376535  1
  N  N52  1  0.54842446  0.54201262  0.37145648  1
  N  N53  1  0.44515923  0.38620563  0.07438372  1
  N  N54  1  0.22148982  0.54199353  0.84265542  1
  N  N55  1  0.10821566  0.42823938  0.59945871  1
  N  N56  1  0.89702992  0.53569048  0.33548949  1
  N  N57  1  0.81083171  0.40802341  0.09798832  1
  N  N58  1  0.57504852  0.50731120  0.89330256  1
  N  N59  1  0.44461702  0.42707133  0.59236713  1
  N  N60  1  0.21618020  0.87587207  0.37937923  1
  N  N61  1  0.09825426  0.78133214  0.09861982  1
  N  N62  1  0.88864685  0.87422505  0.87474593  1
  N  N63  1  0.76851454  0.74491353  0.57054572  1
  N  N64  1  0.55504230  0.88092845  0.34690382  1
  N  N65  1  0.42664306  0.78972066  0.14792343  1
  N  N66  1  0.20332028  0.88653593  0.90014099  1
  N  N67  1  0.13125180  0.75175824  0.58818754  1
  N  N68  1  0.88805590  0.87145975  0.34264621  1
  N  N69  1  0.77958242  0.75555294  0.10191963  1
  N  N70  1  0.57903624  0.88585813  0.84032909  1
  N  N71  1  0.44577202  0.76375822  0.60871114  1
