# generated using pymatgen
data_Gd5Al31N36
_symmetry_space_group_name_H-M   'P 1'
_cell_length_a   9.69307227
_cell_length_b   9.70545623
_cell_length_c   10.60052749
_cell_angle_alpha   89.40201507
_cell_angle_beta   88.96825695
_cell_angle_gamma   60.04690764
_symmetry_Int_Tables_number   1
_chemical_formula_structural   Gd5Al31N36
_chemical_formula_sum   'Gd5 Al31 N36'
_cell_volume   863.91214133
_cell_formula_units_Z   1
loop_
 _symmetry_equiv_pos_site_id
 _symmetry_equiv_pos_as_xyz
  1  'x, y, z'
loop_
 _atom_site_type_symbol
 _atom_site_label
 _atom_site_symmetry_multiplicity
 _atom_site_fract_x
 _atom_site_fract_y
 _atom_site_fract_z
 _atom_site_occupancy
  Al  Al0  1  0.10716075  0.09622415  0.33297420  1
  Al  Al1  1  0.21796826  0.21364433  0.15265573  1
  Al  Al2  1  0.79562339  0.08218725  0.92012794  1
  Al  Al3  1  0.44267553  0.09869917  0.32842543  1
  Al  Al4  1  0.55176350  0.20136908  0.08472545  1
  Al  Al5  1  0.12238604  0.08035228  0.84327026  1
  Al  Al6  1  0.23147398  0.20133740  0.66042518  1
  Al  Al7  1  0.76512634  0.10129460  0.39496299  1
  Al  Al8  1  0.88783756  0.20329544  0.15481293  1
  Al  Al9  1  0.46389705  0.08879804  0.83655830  1
  Al  Al10  1  0.53714873  0.21107666  0.57325846  1
  Al  Al11  1  0.10879361  0.42843452  0.40961192  1
  Al  Al12  1  0.79825992  0.41018845  0.91441688  1
  Al  Al13  1  0.87877586  0.54019606  0.64866192  1
  Al  Al14  1  0.42998804  0.42658383  0.33767846  1
  Al  Al15  1  0.11092495  0.41515091  0.89404849  1
  Al  Al16  1  0.22821195  0.53381325  0.61634435  1
  Al  Al17  1  0.77907398  0.43260084  0.39212417  1
  Al  Al18  1  0.90085835  0.53134616  0.15516839  1
  Al  Al19  1  0.46306633  0.40959178  0.82679496  1
  Al  Al20  1  0.54248277  0.54597104  0.56028507  1
  Al  Al21  1  0.10691271  0.76882566  0.34131244  1
  Al  Al22  1  0.20908137  0.89289912  0.09313843  1
  Al  Al23  1  0.79483131  0.75322359  0.91928345  1
  Al  Al24  1  0.42837791  0.78115890  0.33595680  1
  Al  Al25  1  0.54904661  0.88555274  0.09010025  1
  Al  Al26  1  0.12176462  0.75717853  0.83321476  1
  Al  Al27  1  0.22833610  0.86927946  0.57781150  1
  Al  Al28  1  0.77522315  0.75502258  0.39488138  1
  Al  Al29  1  0.87699364  0.88183201  0.16511087  1
  Al  Al30  1  0.54293790  0.87618577  0.56601650  1
  Gd  Gd31  1  0.87955095  0.21592038  0.64675384  1
  Gd  Gd32  1  0.22045845  0.55537768  0.07961628  1
  Gd  Gd33  1  0.55909040  0.54110640  0.11725052  1
  Gd  Gd34  1  0.87440280  0.87070445  0.64637473  1
  Gd  Gd35  1  0.45708745  0.75359878  0.82569977  1
  N  N36  1  0.21338589  0.21803944  0.34288331  1
  N  N37  1  0.10988951  0.09897608  0.14934697  1
  N  N38  1  0.89773008  0.19586566  0.86379571  1
  N  N39  1  0.75525634  0.10667645  0.57132678  1
  N  N40  1  0.53363611  0.21377957  0.39372629  1
  N  N41  1  0.44814863  0.09547837  0.14624637  1
  N  N42  1  0.23145914  0.20091838  0.84547257  1
  N  N43  1  0.14668003  0.06610619  0.65629342  1
  N  N44  1  0.87503091  0.21273930  0.34261168  1
  N  N45  1  0.77953572  0.09312017  0.10151010  1
  N  N46  1  0.56160754  0.20075129  0.89769088  1
  N  N47  1  0.46021521  0.08260516  0.64803373  1
  N  N48  1  0.21353364  0.55044473  0.39360512  1
  N  N49  1  0.10330328  0.41402600  0.07757172  1
  N  N50  1  0.88694021  0.53695045  0.83796013  1
  N  N51  1  0.76417730  0.45527354  0.57031358  1
  N  N52  1  0.54227719  0.54681074  0.37195132  1
  N  N53  1  0.45052160  0.39602874  0.16278822  1
  N  N54  1  0.22917864  0.52810208  0.85900204  1
  N  N55  1  0.10869316  0.42007794  0.59747463  1
  N  N56  1  0.89310678  0.53753130  0.33633210  1
  N  N57  1  0.81643701  0.40894183  0.09396308  1
  N  N58  1  0.57316552  0.50522614  0.89628034  1
  N  N59  1  0.45404993  0.42069090  0.64010605  1
  N  N60  1  0.20892995  0.88440365  0.39872561  1
  N  N61  1  0.09870346  0.79657285  0.16416804  1
  N  N62  1  0.89686084  0.86573059  0.86433476  1
  N  N63  1  0.76543338  0.74082490  0.57502997  1
  N  N64  1  0.54299814  0.88422398  0.38575723  1
  N  N65  1  0.42180139  0.80304701  0.15441295  1
  N  N66  1  0.20685705  0.87346154  0.91308180  1
  N  N67  1  0.14348280  0.74981810  0.65247222  1
  N  N68  1  0.87130882  0.87958913  0.35044826  1
  N  N69  1  0.78865313  0.75267856  0.10318077  1
  N  N70  1  0.57030187  0.88372077  0.90863523  1
  N  N71  1  0.44621074  0.75713776  0.61134263  1
