# generated using pymatgen
data_Gd5Al31N36
_symmetry_space_group_name_H-M   'P 1'
_cell_length_a   9.71248725
_cell_length_b   9.74569993
_cell_length_c   10.45352313
_cell_angle_alpha   89.61639691
_cell_angle_beta   89.63843858
_cell_angle_gamma   59.86285873
_symmetry_Int_Tables_number   1
_chemical_formula_structural   Gd5Al31N36
_chemical_formula_sum   'Gd5 Al31 N36'
_cell_volume   855.70236316
_cell_formula_units_Z   1
loop_
 _symmetry_equiv_pos_site_id
 _symmetry_equiv_pos_as_xyz
  1  'x, y, z'
loop_
 _atom_site_type_symbol
 _atom_site_label
 _atom_site_symmetry_multiplicity
 _atom_site_fract_x
 _atom_site_fract_y
 _atom_site_fract_z
 _atom_site_occupancy
  Al  Al0  1  0.11197244  0.10253935  0.39179405  1
  Al  Al1  1  0.22066389  0.20296853  0.14979784  1
  Al  Al2  1  0.77769807  0.09471964  0.91787974  1
  Al  Al3  1  0.43655735  0.10791325  0.39424697  1
  Al  Al4  1  0.55508735  0.19394933  0.15241414  1
  Al  Al5  1  0.10855809  0.10476100  0.91349004  1
  Al  Al6  1  0.23033175  0.20147642  0.65078755  1
  Al  Al7  1  0.77057103  0.09817913  0.39209783  1
  Al  Al8  1  0.89750610  0.19767985  0.15473530  1
  Al  Al9  1  0.44703510  0.10169494  0.90559703  1
  Al  Al10  1  0.54805793  0.20845612  0.64729295  1
  Al  Al11  1  0.10863128  0.42677503  0.41352987  1
  Al  Al12  1  0.79177634  0.41799945  0.91428535  1
  Al  Al13  1  0.88107363  0.54258417  0.64930747  1
  Al  Al14  1  0.43783721  0.42176127  0.40675424  1
  Al  Al15  1  0.11062794  0.42337010  0.89189276  1
  Al  Al16  1  0.22650570  0.53934943  0.65132311  1
  Al  Al17  1  0.78503026  0.42868360  0.39230931  1
  Al  Al18  1  0.89666183  0.52804000  0.15207556  1
  Al  Al19  1  0.45062554  0.41235453  0.89613186  1
  Al  Al20  1  0.54926710  0.54938961  0.56534416  1
  Al  Al21  1  0.10923827  0.75794336  0.40251769  1
  Al  Al22  1  0.21917177  0.88184114  0.08922627  1
  Al  Al23  1  0.79073882  0.75512547  0.91866287  1
  Al  Al24  1  0.43302576  0.77877537  0.32942740  1
  Al  Al25  1  0.55530937  0.87687779  0.09555606  1
  Al  Al26  1  0.10610706  0.76490376  0.91207763  1
  Al  Al27  1  0.23310788  0.87051679  0.56511591  1
  Al  Al28  1  0.78199779  0.75484988  0.38852023  1
  Al  Al29  1  0.88753089  0.87551945  0.15617501  1
  Al  Al30  1  0.54935212  0.87313256  0.56129251  1
  Gd  Gd31  1  0.88716021  0.21033071  0.65118683  1
  Gd  Gd32  1  0.21168664  0.53052280  0.15319576  1
  Gd  Gd33  1  0.55583620  0.52767278  0.12717619  1
  Gd  Gd34  1  0.88034360  0.87021640  0.65525116  1
  Gd  Gd35  1  0.45289558  0.75761743  0.82770707  1
  N  N36  1  0.21892755  0.21545034  0.33663037  1
  N  N37  1  0.11068022  0.10050296  0.10106572  1
  N  N38  1  0.89250485  0.20136779  0.86801519  1
  N  N39  1  0.74889021  0.10908356  0.57008000  1
  N  N40  1  0.54934505  0.21128365  0.33573242  1
  N  N41  1  0.43850862  0.09976157  0.09514119  1
  N  N42  1  0.22775500  0.20052695  0.83807098  1
  N  N43  1  0.13694321  0.09153828  0.57653619  1
  N  N44  1  0.88830318  0.20661187  0.34270735  1
  N  N45  1  0.77522932  0.09481664  0.10400142  1
  N  N46  1  0.56290647  0.19742399  0.83383847  1
  N  N47  1  0.44150150  0.10190880  0.58337737  1
  N  N48  1  0.21876948  0.53583326  0.36852720  1
  N  N49  1  0.09760287  0.40757759  0.07232390  1
  N  N50  1  0.88562199  0.54126594  0.83850011  1
  N  N51  1  0.76988985  0.45171625  0.57385969  1
  N  N52  1  0.54826566  0.54321579  0.37071692  1
  N  N53  1  0.44618980  0.38743371  0.07396757  1
  N  N54  1  0.22162699  0.54135497  0.84260480  1
  N  N55  1  0.10844014  0.42770374  0.59981736  1
  N  N56  1  0.89724103  0.53458180  0.33644367  1
  N  N57  1  0.81047990  0.40790150  0.09761879  1
  N  N58  1  0.57379427  0.50972069  0.89207175  1
  N  N59  1  0.44439110  0.42685431  0.59203742  1
  N  N60  1  0.21735477  0.87574877  0.37852206  1
  N  N61  1  0.09825533  0.78184446  0.09756892  1
  N  N62  1  0.88867911  0.87328730  0.87166905  1
  N  N63  1  0.76995527  0.74378228  0.57275032  1
  N  N64  1  0.55073174  0.88057731  0.37409997  1
  N  N65  1  0.42845226  0.79246817  0.14765146  1
  N  N66  1  0.20631897  0.88480653  0.89967863  1
  N  N67  1  0.13232918  0.75067214  0.58728337  1
  N  N68  1  0.88849732  0.87202333  0.34381080  1
  N  N69  1  0.78848862  0.75075278  0.10633262  1
  N  N70  1  0.57280219  0.88142700  0.90272434  1
  N  N71  1  0.44582831  0.76298475  0.60935958  1
