# generated using pymatgen
data_Gd5Al31N36
_symmetry_space_group_name_H-M   'P 1'
_cell_length_a   9.69950366
_cell_length_b   9.71045507
_cell_length_c   10.51600172
_cell_angle_alpha   89.67887254
_cell_angle_beta   89.16020564
_cell_angle_gamma   60.29114196
_symmetry_Int_Tables_number   1
_chemical_formula_structural   Gd5Al31N36
_chemical_formula_sum   'Gd5 Al31 N36'
_cell_volume   860.18046529
_cell_formula_units_Z   1
loop_
 _symmetry_equiv_pos_site_id
 _symmetry_equiv_pos_as_xyz
  1  'x, y, z'
loop_
 _atom_site_type_symbol
 _atom_site_label
 _atom_site_symmetry_multiplicity
 _atom_site_fract_x
 _atom_site_fract_y
 _atom_site_fract_z
 _atom_site_occupancy
  Al  Al0  1  0.11175009  0.09891689  0.33435823  1
  Al  Al1  1  0.22513533  0.19749332  0.07829085  1
  Al  Al2  1  0.79584817  0.08141766  0.91633853  1
  Al  Al3  1  0.43302891  0.10247813  0.32655169  1
  Al  Al4  1  0.55318534  0.19844506  0.08188240  1
  Al  Al5  1  0.12646157  0.08188033  0.83785024  1
  Al  Al6  1  0.23122476  0.19547620  0.58537987  1
  Al  Al7  1  0.76351208  0.10164224  0.39246623  1
  Al  Al8  1  0.89090038  0.20160877  0.15460997  1
  Al  Al9  1  0.45635395  0.08993930  0.83210157  1
  Al  Al10  1  0.53533445  0.21284940  0.57193527  1
  Al  Al11  1  0.10658164  0.43845193  0.40762412  1
  Al  Al12  1  0.80095533  0.40761031  0.91183505  1
  Al  Al13  1  0.87722266  0.54278470  0.64691392  1
  Al  Al14  1  0.43168098  0.42483026  0.33187349  1
  Al  Al15  1  0.10834602  0.41812852  0.89052272  1
  Al  Al16  1  0.22845364  0.52957849  0.65476671  1
  Al  Al17  1  0.77889576  0.43200856  0.39074544  1
  Al  Al18  1  0.90177324  0.52999098  0.15366711  1
  Al  Al19  1  0.47121511  0.40440009  0.82778001  1
  Al  Al20  1  0.54143523  0.54626776  0.55936210  1
  Al  Al21  1  0.10574464  0.77091302  0.33495366  1
  Al  Al22  1  0.20827709  0.89510762  0.09179242  1
  Al  Al23  1  0.79336062  0.75357733  0.91649601  1
  Al  Al24  1  0.42781206  0.78041994  0.33430887  1
  Al  Al25  1  0.54866130  0.88518607  0.08896958  1
  Al  Al26  1  0.11889410  0.76298669  0.83631449  1
  Al  Al27  1  0.22946246  0.86872168  0.57719601  1
  Al  Al28  1  0.77294886  0.75618688  0.39161197  1
  Al  Al29  1  0.87508983  0.88296114  0.16173047  1
  Al  Al30  1  0.54238790  0.87767236  0.56448178  1
  Gd  Gd31  1  0.88088242  0.21554814  0.64263148  1
  Gd  Gd32  1  0.22036250  0.55335848  0.09115119  1
  Gd  Gd33  1  0.56307313  0.54011515  0.11501371  1
  Gd  Gd34  1  0.87964903  0.86857386  0.63979928  1
  Gd  Gd35  1  0.45662611  0.75218544  0.82522560  1
  N  N36  1  0.21810064  0.20549622  0.39908257  1
  N  N37  1  0.11501643  0.10270810  0.15154772  1
  N  N38  1  0.90018764  0.19370934  0.86000007  1
  N  N39  1  0.75263528  0.10693493  0.57087594  1
  N  N40  1  0.53209065  0.21383068  0.39022152  1
  N  N41  1  0.43991350  0.09907493  0.14322324  1
  N  N42  1  0.23623256  0.18855295  0.89075108  1
  N  N43  1  0.14987612  0.07054790  0.65366530  1
  N  N44  1  0.87730597  0.21126416  0.34273091  1
  N  N45  1  0.77970431  0.09280004  0.09922135  1
  N  N46  1  0.56231221  0.19687868  0.89378675  1
  N  N47  1  0.44879557  0.09006862  0.64404332  1
  N  N48  1  0.21019459  0.54880172  0.35639778  1
  N  N49  1  0.09949605  0.41921134  0.07418666  1
  N  N50  1  0.88710423  0.53633913  0.83561726  1
  N  N51  1  0.76324565  0.45579646  0.57001931  1
  N  N52  1  0.54225511  0.54617452  0.37022237  1
  N  N53  1  0.45954927  0.39249554  0.15615108  1
  N  N54  1  0.23007311  0.52632796  0.85201694  1
  N  N55  1  0.10610495  0.43236321  0.59831423  1
  N  N56  1  0.89242862  0.53698041  0.33551252  1
  N  N57  1  0.81943386  0.40560009  0.09223424  1
  N  N58  1  0.57729275  0.50339617  0.89371584  1
  N  N59  1  0.45452286  0.42093952  0.64052137  1
  N  N60  1  0.20869910  0.88362481  0.39665699  1
  N  N61  1  0.09345086  0.80405574  0.15721864  1
  N  N62  1  0.89603747  0.86506360  0.86124981  1
  N  N63  1  0.76265447  0.74336070  0.57395697  1
  N  N64  1  0.54217582  0.88516449  0.38198739  1
  N  N65  1  0.42090529  0.80224093  0.15123926  1
  N  N66  1  0.20641021  0.87695935  0.91084614  1
  N  N67  1  0.14735190  0.74915302  0.65425600  1
  N  N68  1  0.87131143  0.87947432  0.34923027  1
  N  N69  1  0.78619400  0.75282526  0.10220290  1
  N  N70  1  0.57039021  0.88362357  0.90498750  1
  N  N71  1  0.44660239  0.75792579  0.60962737  1
