# generated using pymatgen
data_Gd5Al31N36
_symmetry_space_group_name_H-M   'P 1'
_cell_length_a   9.68818241
_cell_length_b   9.71002906
_cell_length_c   10.54542587
_cell_angle_alpha   89.48473423
_cell_angle_beta   89.09824690
_cell_angle_gamma   60.00442400
_symmetry_Int_Tables_number   1
_chemical_formula_structural   Gd5Al31N36
_chemical_formula_sum   'Gd5 Al31 N36'
_cell_volume   859.05860781
_cell_formula_units_Z   1
loop_
 _symmetry_equiv_pos_site_id
 _symmetry_equiv_pos_as_xyz
  1  'x, y, z'
loop_
 _atom_site_type_symbol
 _atom_site_label
 _atom_site_symmetry_multiplicity
 _atom_site_fract_x
 _atom_site_fract_y
 _atom_site_fract_z
 _atom_site_occupancy
  Al  Al0  1  0.11227691  0.09832410  0.32005284  1
  Al  Al1  1  0.22487703  0.19698334  0.06474581  1
  Al  Al2  1  0.79544159  0.08189419  0.90453955  1
  Al  Al3  1  0.43429992  0.10186451  0.31306226  1
  Al  Al4  1  0.54983518  0.20157036  0.06944238  1
  Al  Al5  1  0.12716257  0.08013813  0.82693252  1
  Al  Al6  1  0.23156925  0.19513749  0.57390866  1
  Al  Al7  1  0.76480760  0.10160755  0.38086440  1
  Al  Al8  1  0.88990164  0.20249226  0.14113860  1
  Al  Al9  1  0.45693344  0.09080844  0.81999943  1
  Al  Al10  1  0.53594138  0.21266319  0.55938775  1
  Al  Al11  1  0.10211493  0.43335758  0.39626429  1
  Al  Al12  1  0.79973548  0.40864910  0.89883689  1
  Al  Al13  1  0.87876443  0.54195245  0.63432446  1
  Al  Al14  1  0.43367198  0.42490785  0.32358169  1
  Al  Al15  1  0.11112161  0.41917191  0.87465400  1
  Al  Al16  1  0.22796573  0.54018278  0.57744722  1
  Al  Al17  1  0.77922838  0.43155335  0.37707221  1
  Al  Al18  1  0.89998298  0.53047762  0.13984757  1
  Al  Al19  1  0.45922546  0.41130815  0.80995526  1
  Al  Al20  1  0.54371417  0.54660489  0.54663243  1
  Al  Al21  1  0.10624758  0.77295239  0.32910134  1
  Al  Al22  1  0.20918972  0.89235399  0.07906963  1
  Al  Al23  1  0.79578064  0.75335132  0.90483357  1
  Al  Al24  1  0.42978165  0.77993550  0.32049826  1
  Al  Al25  1  0.55039531  0.88488459  0.07607325  1
  Al  Al26  1  0.12500720  0.75321677  0.81782021  1
  Al  Al27  1  0.22906038  0.87114398  0.56462672  1
  Al  Al28  1  0.77395952  0.75634202  0.37968270  1
  Al  Al29  1  0.87667720  0.88276754  0.15128168  1
  Al  Al30  1  0.54280973  0.87730774  0.55124092  1
  Gd  Gd31  1  0.88042490  0.21646707  0.63296122  1
  Gd  Gd32  1  0.21657984  0.55580632  0.06947502  1
  Gd  Gd33  1  0.55723621  0.53969031  0.09858220  1
  Gd  Gd34  1  0.87461865  0.87118421  0.63216909  1
  Gd  Gd35  1  0.45855128  0.75319796  0.81220963  1
  N  N36  1  0.21907826  0.20362968  0.38536977  1
  N  N37  1  0.11493785  0.10116729  0.13739585  1
  N  N38  1  0.90073545  0.19362106  0.84952341  1
  N  N39  1  0.75385068  0.10828232  0.55839493  1
  N  N40  1  0.53307530  0.21225904  0.37810928  1
  N  N41  1  0.44006141  0.09879365  0.13044918  1
  N  N42  1  0.23650557  0.18800652  0.87807895  1
  N  N43  1  0.15017644  0.07085948  0.64267185  1
  N  N44  1  0.87758322  0.21122797  0.32858134  1
  N  N45  1  0.77855963  0.09374953  0.08728624  1
  N  N46  1  0.56022751  0.20046568  0.88049839  1
  N  N47  1  0.45047233  0.08902174  0.63160638  1
  N  N48  1  0.21504578  0.55115421  0.38436375  1
  N  N49  1  0.09856885  0.41856545  0.06234844  1
  N  N50  1  0.88717044  0.53662994  0.82276419  1
  N  N51  1  0.76535035  0.45534480  0.55586114  1
  N  N52  1  0.54324190  0.54635642  0.35717917  1
  N  N53  1  0.44963906  0.39556591  0.14889516  1
  N  N54  1  0.23165347  0.52819293  0.85162012  1
  N  N55  1  0.10400843  0.42946493  0.58339233  1
  N  N56  1  0.89334610  0.53697339  0.32129056  1
  N  N57  1  0.81503696  0.40826382  0.07975339  1
  N  N58  1  0.57539084  0.50274964  0.87774276  1
  N  N59  1  0.45033106  0.42449014  0.62145484  1
  N  N60  1  0.21071652  0.88470180  0.38460976  1
  N  N61  1  0.09796685  0.79919271  0.15200947  1
  N  N62  1  0.89937875  0.86393104  0.85028620  1
  N  N63  1  0.76395263  0.74272764  0.56057928  1
  N  N64  1  0.54319311  0.88448069  0.36908341  1
  N  N65  1  0.42319451  0.80116491  0.13819598  1
  N  N66  1  0.20726077  0.87252191  0.89772230  1
  N  N67  1  0.14384654  0.75042421  0.63510122  1
  N  N68  1  0.87203894  0.87941242  0.33797568  1
  N  N69  1  0.78828421  0.75348796  0.09014650  1
  N  N70  1  0.57221103  0.88395403  0.89301128  1
  N  N71  1  0.44698527  0.75813352  0.59730251  1
