# generated using pymatgen
data_Gd5Al31N36
_symmetry_space_group_name_H-M   'P 1'
_cell_length_a   9.71234863
_cell_length_b   9.71215758
_cell_length_c   10.60449254
_cell_angle_alpha   89.47501419
_cell_angle_beta   89.63840595
_cell_angle_gamma   59.67640522
_symmetry_Int_Tables_number   1
_chemical_formula_structural   Gd5Al31N36
_chemical_formula_sum   'Gd5 Al31 N36'
_cell_volume   863.40799217
_cell_formula_units_Z   1
loop_
 _symmetry_equiv_pos_site_id
 _symmetry_equiv_pos_as_xyz
  1  'x, y, z'
loop_
 _atom_site_type_symbol
 _atom_site_label
 _atom_site_symmetry_multiplicity
 _atom_site_fract_x
 _atom_site_fract_y
 _atom_site_fract_z
 _atom_site_occupancy
  Al  Al0  1  0.11088911  0.10485691  0.39556830  1
  Al  Al1  1  0.21358420  0.20433140  0.15051080  1
  Al  Al2  1  0.78233002  0.09153709  0.91748185  1
  Al  Al3  1  0.44075942  0.09725425  0.32822325  1
  Al  Al4  1  0.56170874  0.19477921  0.15029292  1
  Al  Al5  1  0.10941355  0.09998078  0.91753606  1
  Al  Al6  1  0.22471384  0.20297275  0.65121403  1
  Al  Al7  1  0.76700831  0.10376228  0.39269476  1
  Al  Al8  1  0.89853312  0.19622504  0.15523236  1
  Al  Al9  1  0.45694710  0.08859598  0.83035535  1
  Al  Al10  1  0.55301072  0.21402529  0.64590179  1
  Al  Al11  1  0.10723822  0.43125400  0.41264506  1
  Al  Al12  1  0.79218235  0.41728853  0.91626290  1
  Al  Al13  1  0.88033931  0.54281743  0.64961471  1
  Al  Al14  1  0.43438247  0.42534689  0.40601371  1
  Al  Al15  1  0.11049567  0.41834462  0.89329704  1
  Al  Al16  1  0.22787665  0.53634262  0.65093332  1
  Al  Al17  1  0.78531920  0.42880384  0.39325567  1
  Al  Al18  1  0.89364055  0.53059451  0.15332839  1
  Al  Al19  1  0.45597565  0.40806084  0.89681644  1
  Al  Al20  1  0.54943967  0.55117601  0.56370239  1
  Al  Al21  1  0.10664087  0.77098843  0.34217721  1
  Al  Al22  1  0.21783683  0.87712771  0.09461916  1
  Al  Al23  1  0.79221196  0.75460917  0.91885482  1
  Al  Al24  1  0.43453065  0.77960354  0.33066449  1
  Al  Al25  1  0.54965364  0.88401843  0.08749078  1
  Al  Al26  1  0.11604280  0.75763125  0.85980886  1
  Al  Al27  1  0.23145399  0.86519040  0.56554551  1
  Al  Al28  1  0.77761461  0.75739781  0.39524336  1
  Al  Al29  1  0.88022342  0.87731668  0.15914310  1
  Al  Al30  1  0.54255908  0.88066616  0.56579640  1
  Gd  Gd31  1  0.88974465  0.20967705  0.65483434  1
  Gd  Gd32  1  0.21579407  0.52349693  0.14790002  1
  Gd  Gd33  1  0.55561425  0.52804494  0.12990546  1
  Gd  Gd34  1  0.87418931  0.87514523  0.65005844  1
  Gd  Gd35  1  0.45129740  0.75838386  0.82796220  1
  N  N36  1  0.21123256  0.22076631  0.33708042  1
  N  N37  1  0.11095587  0.09825284  0.09998838  1
  N  N38  1  0.89477483  0.19944710  0.86954387  1
  N  N39  1  0.74906378  0.11639784  0.56692418  1
  N  N40  1  0.54976594  0.21759567  0.33406305  1
  N  N41  1  0.44301910  0.09183609  0.14653359  1
  N  N42  1  0.22110015  0.19850863  0.83750168  1
  N  N43  1  0.13772615  0.09077866  0.57558904  1
  N  N44  1  0.88869526  0.20680341  0.34026582  1
  N  N45  1  0.77825219  0.09243398  0.10024643  1
  N  N46  1  0.57438157  0.19848911  0.83011953  1
  N  N47  1  0.45270786  0.08618671  0.64280118  1
  N  N48  1  0.21533177  0.54208869  0.36526234  1
  N  N49  1  0.09431682  0.40716363  0.07131668  1
  N  N50  1  0.88489545  0.54082675  0.83787151  1
  N  N51  1  0.77152818  0.44978962  0.57297294  1
  N  N52  1  0.54838172  0.54539708  0.37164008  1
  N  N53  1  0.45079562  0.38430424  0.07012038  1
  N  N54  1  0.22825316  0.52761879  0.84297447  1
  N  N55  1  0.10909811  0.42795751  0.59755384  1
  N  N56  1  0.89327657  0.53895328  0.33630862  1
  N  N57  1  0.80959446  0.40823410  0.09757584  1
  N  N58  1  0.57332730  0.51274355  0.89386961  1
  N  N59  1  0.44228658  0.42869244  0.58793895  1
  N  N60  1  0.21883836  0.87537842  0.38440378  1
  N  N61  1  0.10183622  0.78686263  0.15478389  1
  N  N62  1  0.89358242  0.86842161  0.86966498  1
  N  N63  1  0.76666099  0.74415058  0.57499347  1
  N  N64  1  0.54468944  0.88479661  0.38565699  1
  N  N65  1  0.42983471  0.79399841  0.15012793  1
  N  N66  1  0.20672102  0.87360529  0.91292490  1
  N  N67  1  0.13552062  0.75658042  0.63253137  1
  N  N68  1  0.87483005  0.87982222  0.34645648  1
  N  N69  1  0.78737080  0.75171286  0.10243627  1
  N  N70  1  0.56789009  0.88931642  0.90782425  1
  N  N71  1  0.44535087  0.76278150  0.61258476  1
