# generated using pymatgen
data_Gd5Al31N36
_symmetry_space_group_name_H-M   'P 1'
_cell_length_a   9.68080598
_cell_length_b   9.70357926
_cell_length_c   10.63163959
_cell_angle_alpha   89.17489370
_cell_angle_beta   89.02620657
_cell_angle_gamma   59.83223392
_symmetry_Int_Tables_number   1
_chemical_formula_structural   Gd5Al31N36
_chemical_formula_sum   'Gd5 Al31 N36'
_cell_volume   863.30642867
_cell_formula_units_Z   1
loop_
 _symmetry_equiv_pos_site_id
 _symmetry_equiv_pos_as_xyz
  1  'x, y, z'
loop_
 _atom_site_type_symbol
 _atom_site_label
 _atom_site_symmetry_multiplicity
 _atom_site_fract_x
 _atom_site_fract_y
 _atom_site_fract_z
 _atom_site_occupancy
  Al  Al0  1  0.10781640  0.09550954  0.33707911  1
  Al  Al1  1  0.21826366  0.21279057  0.15128217  1
  Al  Al2  1  0.79391691  0.08215433  0.92216592  1
  Al  Al3  1  0.44393019  0.09776172  0.32728216  1
  Al  Al4  1  0.54977811  0.20235531  0.08486103  1
  Al  Al5  1  0.11829503  0.08970594  0.88628456  1
  Al  Al6  1  0.22930695  0.20054799  0.66018052  1
  Al  Al7  1  0.76746202  0.10081562  0.39695773  1
  Al  Al8  1  0.88626326  0.20388657  0.15264521  1
  Al  Al9  1  0.46486879  0.08926267  0.83666978  1
  Al  Al10  1  0.53887736  0.21085046  0.57500745  1
  Al  Al11  1  0.10706548  0.42435512  0.40977407  1
  Al  Al12  1  0.79530494  0.41567147  0.91501878  1
  Al  Al13  1  0.88114766  0.53874652  0.64721439  1
  Al  Al14  1  0.43398182  0.42441646  0.33939188  1
  Al  Al15  1  0.11131582  0.41793518  0.89287122  1
  Al  Al16  1  0.22857163  0.53877728  0.58998344  1
  Al  Al17  1  0.78103958  0.42888894  0.39270061  1
  Al  Al18  1  0.89785078  0.53177626  0.15553857  1
  Al  Al19  1  0.45708668  0.41418233  0.82456933  1
  Al  Al20  1  0.54617838  0.54364392  0.56227375  1
  Al  Al21  1  0.10689072  0.76857668  0.34332894  1
  Al  Al22  1  0.21270790  0.88575647  0.09814768  1
  Al  Al23  1  0.79583092  0.75408727  0.91913477  1
  Al  Al24  1  0.43276943  0.77691981  0.33634155  1
  Al  Al25  1  0.55077516  0.88422558  0.09018490  1
  Al  Al26  1  0.12427216  0.75473042  0.83143168  1
  Al  Al27  1  0.22826756  0.87115484  0.57353223  1
  Al  Al28  1  0.77532442  0.75417213  0.39643453  1
  Al  Al29  1  0.87587089  0.88232170  0.16761822  1
  Al  Al30  1  0.54188102  0.87748108  0.56603248  1
  Gd  Gd31  1  0.88449660  0.21308774  0.65681232  1
  Gd  Gd32  1  0.21463437  0.55489769  0.08314174  1
  Gd  Gd33  1  0.55263823  0.54160911  0.11152667  1
  Gd  Gd34  1  0.87383363  0.87089228  0.64672068  1
  Gd  Gd35  1  0.45412733  0.75869340  0.82325556  1
  N  N36  1  0.21299838  0.21740279  0.33762618  1
  N  N37  1  0.10991615  0.09926483  0.13597800  1
  N  N38  1  0.89779119  0.19764477  0.87411978  1
  N  N39  1  0.75835504  0.10870189  0.57243009  1
  N  N40  1  0.53479980  0.21143486  0.39535442  1
  N  N41  1  0.44877286  0.09429946  0.14567666  1
  N  N42  1  0.22982559  0.19994798  0.84652680  1
  N  N43  1  0.14327674  0.07563066  0.62875594  1
  N  N44  1  0.87730663  0.21026177  0.33775983  1
  N  N45  1  0.77781305  0.09286212  0.10236913  1
  N  N46  1  0.55981343  0.20362846  0.89787239  1
  N  N47  1  0.46154019  0.08252407  0.65063597  1
  N  N48  1  0.21561470  0.54875353  0.40103648  1
  N  N49  1  0.09940105  0.41276427  0.07625748  1
  N  N50  1  0.88725069  0.53805035  0.83719312  1
  N  N51  1  0.76899775  0.45028625  0.57049211  1
  N  N52  1  0.54476644  0.54375375  0.37344419  1
  N  N53  1  0.44703336  0.39563001  0.16554661  1
  N  N54  1  0.22967335  0.53020223  0.86837248  1
  N  N55  1  0.10988046  0.42078381  0.59568953  1
  N  N56  1  0.89312929  0.53680455  0.33621035  1
  N  N57  1  0.81014971  0.41303142  0.09497817  1
  N  N58  1  0.57151679  0.50811145  0.89148396  1
  N  N59  1  0.45065802  0.42285906  0.63768129  1
  N  N60  1  0.21273140  0.87968988  0.39396499  1
  N  N61  1  0.09827962  0.79520949  0.16788983  1
  N  N62  1  0.89757978  0.86692790  0.86359822  1
  N  N63  1  0.76536722  0.74048558  0.57507807  1
  N  N64  1  0.54324184  0.88392130  0.38604431  1
  N  N65  1  0.42522997  0.80085441  0.15636214  1
  N  N66  1  0.20797492  0.87023116  0.91709470  1
  N  N67  1  0.14432374  0.74948753  0.64957564  1
  N  N68  1  0.87176771  0.87863800  0.35259051  1
  N  N69  1  0.79037355  0.75291933  0.10312204  1
  N  N70  1  0.57043741  0.88402251  0.90959182  1
  N  N71  1  0.44689664  0.75663493  0.61024030  1
