# generated using pymatgen
data_Gd5Al31N36
_symmetry_space_group_name_H-M   'P 1'
_cell_length_a   9.72415170
_cell_length_b   9.74789242
_cell_length_c   10.39910674
_cell_angle_alpha   89.86769584
_cell_angle_beta   89.94379306
_cell_angle_gamma   59.76017016
_symmetry_Int_Tables_number   1
_chemical_formula_structural   Gd5Al31N36
_chemical_formula_sum   'Gd5 Al31 N36'
_cell_volume   851.59542480
_cell_formula_units_Z   1
loop_
 _symmetry_equiv_pos_site_id
 _symmetry_equiv_pos_as_xyz
  1  'x, y, z'
loop_
 _atom_site_type_symbol
 _atom_site_label
 _atom_site_symmetry_multiplicity
 _atom_site_fract_x
 _atom_site_fract_y
 _atom_site_fract_z
 _atom_site_occupancy
  Al  Al0  1  0.11356784  0.10252063  0.39060646  1
  Al  Al1  1  0.22375415  0.20076716  0.14678442  1
  Al  Al2  1  0.77720114  0.09684826  0.91681935  1
  Al  Al3  1  0.44247978  0.09820240  0.39884978  1
  Al  Al4  1  0.55493077  0.19019844  0.15022152  1
  Al  Al5  1  0.10727109  0.10589191  0.91320005  1
  Al  Al6  1  0.22934758  0.20362727  0.64977337  1
  Al  Al7  1  0.77087804  0.09771292  0.39095632  1
  Al  Al8  1  0.89811224  0.19767541  0.15494036  1
  Al  Al9  1  0.45181732  0.09398843  0.89576780  1
  Al  Al10  1  0.54967843  0.21029058  0.64767784  1
  Al  Al11  1  0.10956874  0.42654705  0.41173840  1
  Al  Al12  1  0.79182903  0.41788373  0.91422072  1
  Al  Al13  1  0.88100710  0.54438906  0.64847826  1
  Al  Al14  1  0.43879040  0.41975711  0.40745872  1
  Al  Al15  1  0.10939624  0.42402871  0.89110071  1
  Al  Al16  1  0.22756503  0.54013529  0.65053410  1
  Al  Al17  1  0.78575887  0.42986179  0.39180289  1
  Al  Al18  1  0.89419907  0.53089565  0.14938605  1
  Al  Al19  1  0.44910352  0.41067763  0.89698373  1
  Al  Al20  1  0.54969346  0.55285219  0.56736882  1
  Al  Al21  1  0.10960010  0.75824464  0.40208757  1
  Al  Al22  1  0.21594701  0.88177857  0.09019104  1
  Al  Al23  1  0.77912484  0.76255005  0.90840154  1
  Al  Al24  1  0.43304742  0.77439538  0.33073899  1
  Al  Al25  1  0.55669873  0.87836636  0.15203933  1
  Al  Al26  1  0.10220069  0.76524178  0.91311097  1
  Al  Al27  1  0.23707771  0.87118369  0.56665412  1
  Al  Al28  1  0.77569785  0.75882710  0.39377228  1
  Al  Al29  1  0.88437218  0.87595462  0.15368588  1
  Al  Al30  1  0.55813325  0.87997221  0.63681025  1
  Gd  Gd31  1  0.88817611  0.21181313  0.64974900  1
  Gd  Gd32  1  0.21066402  0.53049540  0.15364635  1
  Gd  Gd33  1  0.55718010  0.52154209  0.12950836  1
  Gd  Gd34  1  0.88447775  0.87122594  0.65494127  1
  Gd  Gd35  1  0.44635199  0.75287015  0.83919303  1
  N  N36  1  0.22354126  0.21258029  0.33549882  1
  N  N37  1  0.11102597  0.10024488  0.10177620  1
  N  N38  1  0.89214130  0.20210414  0.86718416  1
  N  N39  1  0.74967617  0.10995614  0.56986257  1
  N  N40  1  0.54913668  0.20834604  0.33542097  1
  N  N41  1  0.44621273  0.08633203  0.08485411  1
  N  N42  1  0.22666488  0.20088815  0.83730273  1
  N  N43  1  0.13754499  0.09280297  0.57556598  1
  N  N44  1  0.88875142  0.20687970  0.34300982  1
  N  N45  1  0.77487816  0.09602587  0.10382179  1
  N  N46  1  0.56288099  0.19911518  0.83387836  1
  N  N47  1  0.44325106  0.10114141  0.58519151  1
  N  N48  1  0.21976348  0.53547102  0.36908526  1
  N  N49  1  0.09713527  0.40719935  0.07207609  1
  N  N50  1  0.88430123  0.54148076  0.83765039  1
  N  N51  1  0.77051607  0.45344949  0.57325483  1
  N  N52  1  0.54806292  0.54340826  0.37195377  1
  N  N53  1  0.44372371  0.38441558  0.07486869  1
  N  N54  1  0.22042776  0.54229096  0.84269701  1
  N  N55  1  0.10845591  0.42932589  0.59882420  1
  N  N56  1  0.89595146  0.53792523  0.33543234  1
  N  N57  1  0.81095108  0.40759752  0.09796756  1
  N  N58  1  0.57482574  0.50430199  0.89487224  1
  N  N59  1  0.44580705  0.42796570  0.59276176  1
  N  N60  1  0.21897227  0.87533172  0.37841155  1
  N  N61  1  0.09552686  0.78177810  0.09882694  1
  N  N62  1  0.88648994  0.87516433  0.87223454  1
  N  N63  1  0.76618592  0.74887527  0.57437607  1
  N  N64  1  0.55624214  0.88048736  0.33957321  1
  N  N65  1  0.42737293  0.78641674  0.14265146  1
  N  N66  1  0.19879256  0.88739764  0.90012951  1
  N  N67  1  0.13555048  0.75130444  0.58690774  1
  N  N68  1  0.88766994  0.87106138  0.34339969  1
  N  N69  1  0.77741541  0.75588241  0.09630843  1
  N  N70  1  0.57885253  0.88721503  0.82635161  1
  N  N71  1  0.44768046  0.76491931  0.61748089  1
