# generated using pymatgen
data_Gd5Al31N36
_symmetry_space_group_name_H-M   'P 1'
_cell_length_a   9.74416755
_cell_length_b   9.71591263
_cell_length_c   10.39325471
_cell_angle_alpha   89.77295747
_cell_angle_beta   89.54996548
_cell_angle_gamma   60.27303027
_symmetry_Int_Tables_number   1
_chemical_formula_structural   Gd5Al31N36
_chemical_formula_sum   'Gd5 Al31 N36'
_cell_volume   854.44759427
_cell_formula_units_Z   1
loop_
 _symmetry_equiv_pos_site_id
 _symmetry_equiv_pos_as_xyz
  1  'x, y, z'
loop_
 _atom_site_type_symbol
 _atom_site_label
 _atom_site_symmetry_multiplicity
 _atom_site_fract_x
 _atom_site_fract_y
 _atom_site_fract_z
 _atom_site_occupancy
  Al  Al0  1  0.11757706  0.09491317  0.30982516  1
  Al  Al1  1  0.22176751  0.20261011  0.06043386  1
  Al  Al2  1  0.77579581  0.09472253  0.81251479  1
  Al  Al3  1  0.43742191  0.10035367  0.30391158  1
  Al  Al4  1  0.55641860  0.19866908  0.05912775  1
  Al  Al5  1  0.12119264  0.08703022  0.81510820  1
  Al  Al6  1  0.23325123  0.19870369  0.56214018  1
  Al  Al7  1  0.75961101  0.10542580  0.31628438  1
  Al  Al8  1  0.89432023  0.20303918  0.12837572  1
  Al  Al9  1  0.45085696  0.09623818  0.81057343  1
  Al  Al10  1  0.54289247  0.20971104  0.55553848  1
  Al  Al11  1  0.11115183  0.42315582  0.31737826  1
  Al  Al12  1  0.79888205  0.40931021  0.87818466  1
  Al  Al13  1  0.87081683  0.54592685  0.62550643  1
  Al  Al14  1  0.43417885  0.42371176  0.31352026  1
  Al  Al15  1  0.11724623  0.42055879  0.79726427  1
  Al  Al16  1  0.22767155  0.53386078  0.56312320  1
  Al  Al17  1  0.77339134  0.43832442  0.36943330  1
  Al  Al18  1  0.89302979  0.53289013  0.13026032  1
  Al  Al19  1  0.45616321  0.41644035  0.79735416  1
  Al  Al20  1  0.54192652  0.54496368  0.54097757  1
  Al  Al21  1  0.11159346  0.76585130  0.31798475  1
  Al  Al22  1  0.20908609  0.88828095  0.06639126  1
  Al  Al23  1  0.79304234  0.75945138  0.88445893  1
  Al  Al24  1  0.43157754  0.77792306  0.30907415  1
  Al  Al25  1  0.54999266  0.88554724  0.06352399  1
  Al  Al26  1  0.11933086  0.75872752  0.80319406  1
  Al  Al27  1  0.23733185  0.86667978  0.55450595  1
  Al  Al28  1  0.76902487  0.75623910  0.37043357  1
  Al  Al29  1  0.88120410  0.87616299  0.13739268  1
  Al  Al30  1  0.54157324  0.88066270  0.54528078  1
  Gd  Gd31  1  0.90056746  0.20580356  0.58938855  1
  Gd  Gd32  1  0.21078438  0.54536032  0.05516607  1
  Gd  Gd33  1  0.56072508  0.53566424  0.08622321  1
  Gd  Gd34  1  0.89185910  0.86356346  0.58895712  1
  Gd  Gd35  1  0.45128088  0.75873903  0.80415619  1
  N  N36  1  0.22105635  0.20505106  0.37507526  1
  N  N37  1  0.11577880  0.09638580  0.12598971  1
  N  N38  1  0.89788954  0.19922074  0.82206508  1
  N  N39  1  0.74284201  0.11381817  0.61734071  1
  N  N40  1  0.54428259  0.20764525  0.37152862  1
  N  N41  1  0.44191808  0.09816085  0.11946155  1
  N  N42  1  0.22569630  0.20568818  0.87184052  1
  N  N43  1  0.16348600  0.06490452  0.63252881  1
  N  N44  1  0.88382427  0.21256414  0.33022223  1
  N  N45  1  0.76852804  0.09982595  0.12506263  1
  N  N46  1  0.55774435  0.20464227  0.87070386  1
  N  N47  1  0.44670555  0.09323862  0.62058798  1
  N  N48  1  0.21360677  0.54307588  0.37193444  1
  N  N49  1  0.11220381  0.40551688  0.13396677  1
  N  N50  1  0.88360957  0.54235384  0.81401959  1
  N  N51  1  0.76039255  0.45633946  0.55064756  1
  N  N52  1  0.54178369  0.54558388  0.34681435  1
  N  N53  1  0.44662092  0.39778491  0.13542765  1
  N  N54  1  0.22838309  0.53128766  0.83798574  1
  N  N55  1  0.10974551  0.42253716  0.61094408  1
  N  N56  1  0.87870180  0.54476153  0.31344716  1
  N  N57  1  0.82033109  0.40478877  0.06214687  1
  N  N58  1  0.57313237  0.50658264  0.86429570  1
  N  N59  1  0.44589304  0.42551451  0.60783283  1
  N  N60  1  0.21387075  0.88131034  0.37182267  1
  N  N61  1  0.10043762  0.79042592  0.13826669  1
  N  N62  1  0.89553204  0.86675155  0.82365565  1
  N  N63  1  0.75936449  0.74523474  0.55365288  1
  N  N64  1  0.54222345  0.88544784  0.35877397  1
  N  N65  1  0.42467926  0.79791316  0.12359389  1
  N  N66  1  0.20065573  0.87877201  0.88500355  1
  N  N67  1  0.15501109  0.74369446  0.62063142  1
  N  N68  1  0.87768717  0.87489816  0.33723699  1
  N  N69  1  0.79087592  0.75263299  0.07486728  1
  N  N70  1  0.56858641  0.88914046  0.88015058  1
  N  N71  1  0.45125041  0.75641137  0.58701067  1
