# generated using pymatgen
data_Gd5Al31N36
_symmetry_space_group_name_H-M   'P 1'
_cell_length_a   9.68329600
_cell_length_b   9.70357756
_cell_length_c   10.63319136
_cell_angle_alpha   89.17936933
_cell_angle_beta   89.01608358
_cell_angle_gamma   59.82672014
_symmetry_Int_Tables_number   1
_chemical_formula_structural   Gd5Al31N36
_chemical_formula_sum   'Gd5 Al31 N36'
_cell_volume   863.60456942
_cell_formula_units_Z   1
loop_
 _symmetry_equiv_pos_site_id
 _symmetry_equiv_pos_as_xyz
  1  'x, y, z'
loop_
 _atom_site_type_symbol
 _atom_site_label
 _atom_site_symmetry_multiplicity
 _atom_site_fract_x
 _atom_site_fract_y
 _atom_site_fract_z
 _atom_site_occupancy
  Al  Al0  1  0.10767004  0.09516695  0.33295610  1
  Al  Al1  1  0.21809794  0.21254079  0.15123252  1
  Al  Al2  1  0.79434462  0.08217069  0.92212918  1
  Al  Al3  1  0.44375081  0.09791728  0.32739388  1
  Al  Al4  1  0.54982522  0.20232958  0.08481508  1
  Al  Al5  1  0.12023389  0.08614386  0.86887142  1
  Al  Al6  1  0.23010699  0.20135010  0.66073234  1
  Al  Al7  1  0.76721181  0.10091349  0.39678680  1
  Al  Al8  1  0.88619591  0.20393476  0.15280088  1
  Al  Al9  1  0.46497946  0.08935319  0.83682591  1
  Al  Al10  1  0.53861619  0.21083675  0.57473230  1
  Al  Al11  1  0.10709710  0.42440250  0.40955383  1
  Al  Al12  1  0.79597591  0.41493431  0.91508917  1
  Al  Al13  1  0.88114206  0.53880210  0.64740089  1
  Al  Al14  1  0.43393001  0.42450501  0.33927760  1
  Al  Al15  1  0.11148502  0.41764577  0.89344246  1
  Al  Al16  1  0.22868448  0.53865664  0.58979268  1
  Al  Al17  1  0.78069448  0.42924408  0.39244479  1
  Al  Al18  1  0.89785377  0.53170376  0.15553304  1
  Al  Al19  1  0.45710150  0.41410790  0.82477538  1
  Al  Al20  1  0.54572493  0.54411045  0.56190592  1
  Al  Al21  1  0.10687249  0.76924935  0.34353001  1
  Al  Al22  1  0.21156276  0.88790767  0.09679009  1
  Al  Al23  1  0.79591380  0.75404443  0.91925952  1
  Al  Al24  1  0.43215302  0.77758607  0.33638570  1
  Al  Al25  1  0.55060336  0.88431415  0.09021787  1
  Al  Al26  1  0.12445785  0.75426569  0.83164662  1
  Al  Al27  1  0.22801095  0.87126673  0.57508044  1
  Al  Al28  1  0.77543775  0.75419364  0.39629803  1
  Al  Al29  1  0.87613109  0.88229394  0.16757363  1
  Al  Al30  1  0.54239436  0.87714703  0.56592870  1
  Gd  Gd31  1  0.88165684  0.21454856  0.65587103  1
  Gd  Gd32  1  0.21457831  0.55502181  0.08349387  1
  Gd  Gd33  1  0.55256760  0.54181895  0.11151707  1
  Gd  Gd34  1  0.87398473  0.87068600  0.64700501  1
  Gd  Gd35  1  0.45500395  0.75801567  0.82327800  1
  N  N36  1  0.21327392  0.21726605  0.33879738  1
  N  N37  1  0.10973709  0.09867123  0.14215739  1
  N  N38  1  0.89787750  0.19747536  0.87297691  1
  N  N39  1  0.75794872  0.10822103  0.57231581  1
  N  N40  1  0.53472561  0.21157691  0.39526151  1
  N  N41  1  0.44865383  0.09442805  0.14574815  1
  N  N42  1  0.23087728  0.20089249  0.84651866  1
  N  N43  1  0.14416328  0.07211495  0.64225525  1
  N  N44  1  0.87640265  0.21083531  0.33868349  1
  N  N45  1  0.77787774  0.09291668  0.10231793  1
  N  N46  1  0.56013895  0.20347944  0.89780714  1
  N  N47  1  0.46153461  0.08235806  0.65013741  1
  N  N48  1  0.21553854  0.54906216  0.40107355  1
  N  N49  1  0.09943717  0.41270759  0.07660881  1
  N  N50  1  0.88742492  0.53792509  0.83723555  1
  N  N51  1  0.76850395  0.45112610  0.57024507  1
  N  N52  1  0.54428800  0.54424118  0.37336834  1
  N  N53  1  0.44712413  0.39568727  0.16549407  1
  N  N54  1  0.22982048  0.53012017  0.86872448  1
  N  N55  1  0.10980964  0.42034558  0.59542974  1
  N  N56  1  0.89309438  0.53684530  0.33618155  1
  N  N57  1  0.81021665  0.41288199  0.09493180  1
  N  N58  1  0.57188434  0.50774408  0.89152313  1
  N  N59  1  0.45079551  0.42277117  0.63766853  1
  N  N60  1  0.21180685  0.88148036  0.39581908  1
  N  N61  1  0.09862652  0.79559497  0.16792878  1
  N  N62  1  0.89775502  0.86675111  0.86373443  1
  N  N63  1  0.76565821  0.74040951  0.57506131  1
  N  N64  1  0.54336785  0.88386559  0.38602800  1
  N  N65  1  0.42466366  0.80121615  0.15619005  1
  N  N66  1  0.20798320  0.87073525  0.91627261  1
  N  N67  1  0.14434445  0.74898801  0.64974747  1
  N  N68  1  0.87179304  0.87869821  0.35251807  1
  N  N69  1  0.79040213  0.75292302  0.10317019  1
  N  N70  1  0.57060584  0.88398715  0.90956305  1
  N  N71  1  0.44691961  0.75682455  0.61017670  1
