# generated using pymatgen
data_Gd5Al31N36
_symmetry_space_group_name_H-M   'P 1'
_cell_length_a   9.74191989
_cell_length_b   9.75261318
_cell_length_c   10.35972567
_cell_angle_alpha   89.89419389
_cell_angle_beta   90.19941813
_cell_angle_gamma   59.77330361
_symmetry_Int_Tables_number   1
_chemical_formula_structural   Gd5Al31N36
_chemical_formula_sum   'Gd5 Al31 N36'
_cell_volume   850.43558750
_cell_formula_units_Z   1
loop_
 _symmetry_equiv_pos_site_id
 _symmetry_equiv_pos_as_xyz
  1  'x, y, z'
loop_
 _atom_site_type_symbol
 _atom_site_label
 _atom_site_symmetry_multiplicity
 _atom_site_fract_x
 _atom_site_fract_y
 _atom_site_fract_z
 _atom_site_occupancy
  Al  Al0  1  0.11449922  0.10216990  0.38952713  1
  Al  Al1  1  0.22360061  0.20086178  0.14701035  1
  Al  Al2  1  0.77663552  0.09669906  0.91555637  1
  Al  Al3  1  0.44292482  0.09786043  0.39894272  1
  Al  Al4  1  0.55519691  0.18998440  0.14954920  1
  Al  Al5  1  0.10570212  0.10639870  0.91351495  1
  Al  Al6  1  0.23012324  0.20327509  0.64917794  1
  Al  Al7  1  0.77043555  0.09853985  0.39046938  1
  Al  Al8  1  0.89755602  0.19821160  0.15446251  1
  Al  Al9  1  0.45094994  0.09548306  0.89577037  1
  Al  Al10  1  0.55047495  0.20938987  0.64774124  1
  Al  Al11  1  0.10950497  0.42689314  0.41087065  1
  Al  Al12  1  0.79040102  0.41849513  0.91150546  1
  Al  Al13  1  0.88129549  0.54453414  0.64872920  1
  Al  Al14  1  0.43914829  0.42073616  0.40838779  1
  Al  Al15  1  0.10863979  0.42400956  0.89086620  1
  Al  Al16  1  0.22763360  0.54006914  0.65036593  1
  Al  Al17  1  0.78439265  0.43098138  0.39369623  1
  Al  Al18  1  0.89397991  0.53098842  0.14891559  1
  Al  Al19  1  0.44924761  0.41115685  0.89465113  1
  Al  Al20  1  0.55004201  0.55229946  0.57447515  1
  Al  Al21  1  0.11093402  0.75790705  0.40058516  1
  Al  Al22  1  0.21375899  0.88193858  0.09153830  1
  Al  Al23  1  0.77952253  0.76286932  0.90737191  1
  Al  Al24  1  0.43408743  0.77364677  0.32937003  1
  Al  Al25  1  0.55661637  0.87825118  0.15031466  1
  Al  Al26  1  0.10062878  0.76537190  0.91282529  1
  Al  Al27  1  0.23994018  0.86979773  0.56696926  1
  Al  Al28  1  0.77460624  0.75912829  0.39415075  1
  Al  Al29  1  0.88366906  0.87551918  0.15426825  1
  Al  Al30  1  0.55844060  0.87957232  0.64071552  1
  Gd  Gd31  1  0.89132910  0.20951856  0.64841646  1
  Gd  Gd32  1  0.21332200  0.52894132  0.15189300  1
  Gd  Gd33  1  0.55917783  0.51927275  0.13089197  1
  Gd  Gd34  1  0.88681531  0.87042210  0.65197597  1
  Gd  Gd35  1  0.44460319  0.75669579  0.84674930  1
  N  N36  1  0.22395601  0.21272347  0.33561820  1
  N  N37  1  0.11049874  0.10029286  0.10297010  1
  N  N38  1  0.89122151  0.20221943  0.86627844  1
  N  N39  1  0.74953985  0.11067690  0.56989019  1
  N  N40  1  0.54869785  0.20913834  0.33535504  1
  N  N41  1  0.44520881  0.08713180  0.08483478  1
  N  N42  1  0.22569251  0.20082075  0.83742366  1
  N  N43  1  0.13991581  0.09128319  0.57457917  1
  N  N44  1  0.88834884  0.20779589  0.34337130  1
  N  N45  1  0.77489413  0.09549806  0.10361278  1
  N  N46  1  0.56228334  0.19910560  0.83377384  1
  N  N47  1  0.44402201  0.10027074  0.58580881  1
  N  N48  1  0.22025904  0.53514950  0.36814172  1
  N  N49  1  0.09694704  0.40731811  0.07267017  1
  N  N50  1  0.88418539  0.54181655  0.83762372  1
  N  N51  1  0.77058837  0.45289868  0.57548716  1
  N  N52  1  0.54789107  0.54413985  0.37290895  1
  N  N53  1  0.44608128  0.38391268  0.07299016  1
  N  N54  1  0.21922498  0.54241193  0.84298971  1
  N  N55  1  0.10842100  0.42954742  0.59849369  1
  N  N56  1  0.89466908  0.53825707  0.33589885  1
  N  N57  1  0.81097321  0.40769056  0.09572630  1
  N  N58  1  0.57433664  0.50453451  0.88952541  1
  N  N59  1  0.44579921  0.42758374  0.59417983  1
  N  N60  1  0.22066479  0.87473827  0.37660927  1
  N  N61  1  0.09416509  0.78136983  0.09981171  1
  N  N62  1  0.88591468  0.87537873  0.87005005  1
  N  N63  1  0.76497802  0.74946876  0.57544037  1
  N  N64  1  0.55590269  0.88049240  0.33814002  1
  N  N65  1  0.42806628  0.78486573  0.13868237  1
  N  N66  1  0.19496515  0.88868675  0.90049424  1
  N  N67  1  0.13792127  0.75058785  0.58574384  1
  N  N68  1  0.88730420  0.87122978  0.34455441  1
  N  N69  1  0.77708833  0.75608328  0.09571423  1
  N  N70  1  0.57849903  0.88873991  0.82823690  1
  N  N71  1  0.44811783  0.76454961  0.62308489  1
