# generated using pymatgen
data_Gd5Al31N36
_symmetry_space_group_name_H-M   'P 1'
_cell_length_a   9.74226583
_cell_length_b   9.70992017
_cell_length_c   10.38605949
_cell_angle_alpha   89.78852494
_cell_angle_beta   89.61224193
_cell_angle_gamma   60.25553069
_symmetry_Int_Tables_number   1
_chemical_formula_structural   Gd5Al31N36
_chemical_formula_sum   'Gd5 Al31 N36'
_cell_volume   853.02077710
_cell_formula_units_Z   1
loop_
 _symmetry_equiv_pos_site_id
 _symmetry_equiv_pos_as_xyz
  1  'x, y, z'
loop_
 _atom_site_type_symbol
 _atom_site_label
 _atom_site_symmetry_multiplicity
 _atom_site_fract_x
 _atom_site_fract_y
 _atom_site_fract_z
 _atom_site_occupancy
  Al  Al0  1  0.11811550  0.09477904  0.30953903  1
  Al  Al1  1  0.22250615  0.20250069  0.06033687  1
  Al  Al2  1  0.77195303  0.09757824  0.81495279  1
  Al  Al3  1  0.43955659  0.09988101  0.30541980  1
  Al  Al4  1  0.55534951  0.19904113  0.05884325  1
  Al  Al5  1  0.11908958  0.08882469  0.81419697  1
  Al  Al6  1  0.23129071  0.19953488  0.56169439  1
  Al  Al7  1  0.76394486  0.09825008  0.30858476  1
  Al  Al8  1  0.89616249  0.20386157  0.12603403  1
  Al  Al9  1  0.44877897  0.09716326  0.81052564  1
  Al  Al10  1  0.54368668  0.20807233  0.55847508  1
  Al  Al11  1  0.11240865  0.42344663  0.31733562  1
  Al  Al12  1  0.79826609  0.40959462  0.87720854  1
  Al  Al13  1  0.87222000  0.54397242  0.62493493  1
  Al  Al14  1  0.43753713  0.42195315  0.31670542  1
  Al  Al15  1  0.11692106  0.42122233  0.79769748  1
  Al  Al16  1  0.22643079  0.53541946  0.56278370  1
  Al  Al17  1  0.77473846  0.43770855  0.36894651  1
  Al  Al18  1  0.89393933  0.53368535  0.13022540  1
  Al  Al19  1  0.45466607  0.41720857  0.79753275  1
  Al  Al20  1  0.54282692  0.54483860  0.54109757  1
  Al  Al21  1  0.10585361  0.76919992  0.31557218  1
  Al  Al22  1  0.21116984  0.88833738  0.06584348  1
  Al  Al23  1  0.78999460  0.75703265  0.88258237  1
  Al  Al24  1  0.43198248  0.77766401  0.30996876  1
  Al  Al25  1  0.54981974  0.88545113  0.06367880  1
  Al  Al26  1  0.11786979  0.75994336  0.80639842  1
  Al  Al27  1  0.23538418  0.86690250  0.55407123  1
  Al  Al28  1  0.77134854  0.75794918  0.37003994  1
  Al  Al29  1  0.88660675  0.87796467  0.09856545  1
  Al  Al30  1  0.54165993  0.88005101  0.54559324  1
  Gd  Gd31  1  0.89651646  0.20155490  0.58699069  1
  Gd  Gd32  1  0.21656205  0.54152136  0.05695254  1
  Gd  Gd33  1  0.56235059  0.53503493  0.08712307  1
  Gd  Gd34  1  0.88969933  0.86619762  0.58644837  1
  Gd  Gd35  1  0.44971654  0.75879608  0.80385619  1
  N  N36  1  0.22205373  0.20511134  0.37468067  1
  N  N37  1  0.11709565  0.09621260  0.12560747  1
  N  N38  1  0.89697904  0.19999784  0.82228714  1
  N  N39  1  0.73710691  0.11305367  0.63342298  1
  N  N40  1  0.55057028  0.20399867  0.37360266  1
  N  N41  1  0.44266731  0.09782055  0.12048298  1
  N  N42  1  0.22453667  0.20630460  0.87162793  1
  N  N43  1  0.15904172  0.06700147  0.63083980  1
  N  N44  1  0.88367151  0.21171096  0.32794861  1
  N  N45  1  0.77081851  0.09861655  0.11941659  1
  N  N46  1  0.55294417  0.20717356  0.87294063  1
  N  N47  1  0.44453473  0.09309724  0.62053716  1
  N  N48  1  0.21452254  0.54375374  0.37113006  1
  N  N49  1  0.11307205  0.40573252  0.13362695  1
  N  N50  1  0.88308626  0.54213333  0.81295171  1
  N  N51  1  0.76220988  0.45320449  0.55098710  1
  N  N52  1  0.54334991  0.54568322  0.34771297  1
  N  N53  1  0.45129169  0.39503295  0.13898769  1
  N  N54  1  0.22757326  0.53206818  0.83952395  1
  N  N55  1  0.11000780  0.42318878  0.61101490  1
  N  N56  1  0.87973133  0.54527660  0.31370637  1
  N  N57  1  0.82124874  0.40589376  0.06127247  1
  N  N58  1  0.57215755  0.50672497  0.86494037  1
  N  N59  1  0.44531566  0.42615696  0.60734770  1
  N  N60  1  0.21357841  0.88067710  0.37074095  1
  N  N61  1  0.09995491  0.79061045  0.13466257  1
  N  N62  1  0.89591405  0.86878148  0.84151163  1
  N  N63  1  0.75963364  0.74471749  0.55583540  1
  N  N64  1  0.54372181  0.88466098  0.35929298  1
  N  N65  1  0.42543377  0.79731984  0.12410444  1
  N  N66  1  0.20057084  0.88061102  0.88482883  1
  N  N67  1  0.15166753  0.74550637  0.62364548  1
  N  N68  1  0.88049038  0.87693136  0.34960350  1
  N  N69  1  0.78909240  0.75173048  0.07288271  1
  N  N70  1  0.56647515  0.88972818  0.87957289  1
  N  N71  1  0.44983051  0.75677182  0.58657113  1
