# generated using pymatgen
data_Gd5Al31N36
_symmetry_space_group_name_H-M   'P 1'
_cell_length_a   9.68685851
_cell_length_b   9.71890613
_cell_length_c   10.62618899
_cell_angle_alpha   89.61092447
_cell_angle_beta   89.45925450
_cell_angle_gamma   60.07623096
_symmetry_Int_Tables_number   1
_chemical_formula_structural   Gd5Al31N36
_chemical_formula_sum   'Gd5 Al31 N36'
_cell_volume   867.00381388
_cell_formula_units_Z   1
loop_
 _symmetry_equiv_pos_site_id
 _symmetry_equiv_pos_as_xyz
  1  'x, y, z'
loop_
 _atom_site_type_symbol
 _atom_site_label
 _atom_site_symmetry_multiplicity
 _atom_site_fract_x
 _atom_site_fract_y
 _atom_site_fract_z
 _atom_site_occupancy
  Al  Al0  1  0.11045349  0.10116025  0.39815873  1
  Al  Al1  1  0.21561975  0.21114239  0.15348678  1
  Al  Al2  1  0.78063104  0.08877844  0.91789838  1
  Al  Al3  1  0.44037922  0.09237876  0.33115247  1
  Al  Al4  1  0.56432772  0.19531548  0.16180785  1
  Al  Al5  1  0.10990666  0.09757335  0.91799897  1
  Al  Al6  1  0.22491180  0.20071373  0.65103807  1
  Al  Al7  1  0.76730105  0.10076232  0.39675419  1
  Al  Al8  1  0.89900757  0.19758417  0.15639013  1
  Al  Al9  1  0.45646408  0.08650375  0.83309854  1
  Al  Al10  1  0.55385206  0.20529310  0.64231591  1
  Al  Al11  1  0.11044027  0.43094929  0.40695684  1
  Al  Al12  1  0.79702677  0.41133401  0.91647382  1
  Al  Al13  1  0.87852483  0.53979148  0.64781904  1
  Al  Al14  1  0.43109046  0.42958149  0.33497648  1
  Al  Al15  1  0.10791557  0.41370785  0.89157316  1
  Al  Al16  1  0.22518433  0.53390480  0.64355330  1
  Al  Al17  1  0.78344436  0.42691283  0.39291144  1
  Al  Al18  1  0.90126271  0.53019123  0.15549117  1
  Al  Al19  1  0.46217808  0.41719991  0.82772342  1
  Al  Al20  1  0.54449144  0.54409517  0.56050226  1
  Al  Al21  1  0.10790898  0.76537448  0.33629988  1
  Al  Al22  1  0.21451268  0.88551327  0.09772035  1
  Al  Al23  1  0.79334920  0.75458691  0.91814834  1
  Al  Al24  1  0.43148046  0.77615229  0.33426113  1
  Al  Al25  1  0.54844170  0.88785158  0.08937589  1
  Al  Al26  1  0.11604677  0.76595340  0.83486473  1
  Al  Al27  1  0.23131675  0.86312908  0.56949540  1
  Al  Al28  1  0.77613773  0.75335152  0.39532948  1
  Al  Al29  1  0.87546586  0.88233114  0.16457787  1
  Al  Al30  1  0.54154120  0.87576804  0.56510584  1
  Gd  Gd31  1  0.88857161  0.21071444  0.65621427  1
  Gd  Gd32  1  0.21460504  0.55750838  0.08017827  1
  Gd  Gd33  1  0.56046671  0.54334366  0.11405255  1
  Gd  Gd34  1  0.87364307  0.87220420  0.64282777  1
  Gd  Gd35  1  0.45322418  0.75681509  0.82566072  1
  N  N36  1  0.21124936  0.21648533  0.33909994  1
  N  N37  1  0.11166961  0.10430271  0.09847593  1
  N  N38  1  0.89532604  0.19581333  0.87016767  1
  N  N39  1  0.75127673  0.11421183  0.57059509  1
  N  N40  1  0.55339757  0.20275988  0.34818023  1
  N  N41  1  0.44463733  0.09517513  0.14599257  1
  N  N42  1  0.22049933  0.19675170  0.83714700  1
  N  N43  1  0.13716674  0.08767148  0.57870097  1
  N  N44  1  0.88861622  0.20421184  0.34140053  1
  N  N45  1  0.77531298  0.09524367  0.10052062  1
  N  N46  1  0.57381358  0.19404687  0.83533039  1
  N  N47  1  0.45307983  0.08018556  0.64460556  1
  N  N48  1  0.21295810  0.54629318  0.37170523  1
  N  N49  1  0.10260302  0.41182147  0.07452028  1
  N  N50  1  0.88472453  0.53742034  0.83747421  1
  N  N51  1  0.76813813  0.44786660  0.57258365  1
  N  N52  1  0.54713438  0.54297542  0.37305127  1
  N  N53  1  0.44636052  0.40857638  0.15531597  1
  N  N54  1  0.22566794  0.52817595  0.85136264  1
  N  N55  1  0.10873225  0.42555303  0.59678331  1
  N  N56  1  0.89262375  0.53659141  0.33686191  1
  N  N57  1  0.81743564  0.40678936  0.09672335  1
  N  N58  1  0.57316008  0.50822089  0.89617177  1
  N  N59  1  0.44950665  0.43018329  0.63988495  1
  N  N60  1  0.21603830  0.87138074  0.39106003  1
  N  N61  1  0.09409646  0.80133613  0.16109951  1
  N  N62  1  0.89280507  0.86833864  0.86244548  1
  N  N63  1  0.76441912  0.74034974  0.57552460  1
  N  N64  1  0.54371427  0.88042252  0.38640622  1
  N  N65  1  0.42407987  0.80326173  0.15558011  1
  N  N66  1  0.20888199  0.86982890  0.91453754  1
  N  N67  1  0.14132666  0.75559355  0.65433248  1
  N  N68  1  0.87354427  0.87715036  0.35203367  1
  N  N69  1  0.78882724  0.75199438  0.10209867  1
  N  N70  1  0.56759949  0.88654525  0.90923909  1
  N  N71  1  0.44554228  0.75737448  0.61238225  1
