# generated using pymatgen
data_Gd5Al31N36
_symmetry_space_group_name_H-M   'P 1'
_cell_length_a   9.70439385
_cell_length_b   9.71761839
_cell_length_c   10.33992595
_cell_angle_alpha   90.01255662
_cell_angle_beta   89.87324028
_cell_angle_gamma   60.06962510
_symmetry_Int_Tables_number   1
_chemical_formula_structural   Gd5Al31N36
_chemical_formula_sum   'Gd5 Al31 N36'
_cell_volume   845.04339977
_cell_formula_units_Z   1
loop_
 _symmetry_equiv_pos_site_id
 _symmetry_equiv_pos_as_xyz
  1  'x, y, z'
loop_
 _atom_site_type_symbol
 _atom_site_label
 _atom_site_symmetry_multiplicity
 _atom_site_fract_x
 _atom_site_fract_y
 _atom_site_fract_z
 _atom_site_occupancy
  Al  Al0  1  0.10917819  0.09828886  0.30138714  1
  Al  Al1  1  0.22469349  0.20016643  0.06245955  1
  Al  Al2  1  0.77283871  0.09508073  0.82085131  1
  Al  Al3  1  0.44205353  0.09925418  0.30962812  1
  Al  Al4  1  0.55483031  0.19846249  0.05964372  1
  Al  Al5  1  0.12078276  0.08790645  0.81879185  1
  Al  Al6  1  0.23072913  0.19945118  0.56285738  1
  Al  Al7  1  0.77200081  0.09783566  0.29617421  1
  Al  Al8  1  0.89854262  0.19423532  0.06191903  1
  Al  Al9  1  0.44891420  0.09724933  0.81233499  1
  Al  Al10  1  0.55015544  0.20515475  0.56066864  1
  Al  Al11  1  0.11113733  0.42355478  0.32046402  1
  Al  Al12  1  0.78921250  0.41749543  0.85876116  1
  Al  Al13  1  0.87712218  0.53980722  0.63398213  1
  Al  Al14  1  0.44062023  0.41986669  0.31831868  1
  Al  Al15  1  0.12254915  0.41801457  0.80215272  1
  Al  Al16  1  0.22662978  0.53684349  0.56255625  1
  Al  Al17  1  0.77721116  0.42749276  0.32204295  1
  Al  Al18  1  0.89300700  0.53439916  0.12919843  1
  Al  Al19  1  0.45425182  0.41749818  0.79528992  1
  Al  Al20  1  0.55130835  0.54116054  0.53875744  1
  Al  Al21  1  0.10442833  0.77110731  0.30756928  1
  Al  Al22  1  0.21509552  0.88557477  0.06637725  1
  Al  Al23  1  0.77606032  0.76533575  0.82471807  1
  Al  Al24  1  0.43504475  0.77729452  0.31930674  1
  Al  Al25  1  0.55187574  0.88466464  0.06704177  1
  Al  Al26  1  0.11729841  0.75999677  0.80843490  1
  Al  Al27  1  0.22826955  0.87124780  0.55125573  1
  Al  Al28  1  0.77121031  0.77159695  0.30096080  1
  Al  Al29  1  0.88794797  0.87647963  0.05937064  1
  Al  Al30  1  0.55163150  0.87574592  0.54986427  1
  Gd  Gd31  1  0.89645061  0.20117552  0.56600504  1
  Gd  Gd32  1  0.21550818  0.53742645  0.05813977  1
  Gd  Gd33  1  0.54816673  0.54414623  0.07998544  1
  Gd  Gd34  1  0.88580847  0.86330072  0.56561052  1
  Gd  Gd35  1  0.45181558  0.76127776  0.79279627  1
  N  N36  1  0.22138927  0.20269911  0.37484396  1
  N  N37  1  0.11186438  0.09782497  0.11729675  1
  N  N38  1  0.89876994  0.19450754  0.86809545  1
  N  N39  1  0.74836713  0.10580173  0.64055085  1
  N  N40  1  0.55772635  0.20093500  0.37393559  1
  N  N41  1  0.44274050  0.09808742  0.12380159  1
  N  N42  1  0.22761619  0.20452863  0.87324636  1
  N  N43  1  0.15241404  0.07134473  0.63597024  1
  N  N44  1  0.88573537  0.20501396  0.34334040  1
  N  N45  1  0.77444480  0.09496748  0.10844219  1
  N  N46  1  0.55151121  0.20882158  0.87291723  1
  N  N47  1  0.44567250  0.09327086  0.62127483  1
  N  N48  1  0.21495044  0.54490842  0.37030881  1
  N  N49  1  0.11059449  0.40378204  0.13455802  1
  N  N50  1  0.89541651  0.53225411  0.82985832  1
  N  N51  1  0.75979170  0.45142055  0.58787342  1
  N  N52  1  0.54911159  0.54144415  0.34817713  1
  N  N53  1  0.45139219  0.39409426  0.14021098  1
  N  N54  1  0.23007323  0.53243712  0.83982023  1
  N  N55  1  0.11113218  0.42468957  0.61364823  1
  N  N56  1  0.88184289  0.54668220  0.32340429  1
  N  N57  1  0.80338723  0.41072754  0.09851331  1
  N  N58  1  0.56947696  0.51098760  0.86026765  1
  N  N59  1  0.44743051  0.42570660  0.60568362  1
  N  N60  1  0.20906030  0.88394746  0.36742529  1
  N  N61  1  0.09822374  0.78966685  0.12634384  1
  N  N62  1  0.89618746  0.86661238  0.86744747  1
  N  N63  1  0.74564388  0.75981160  0.63993032  1
  N  N64  1  0.55725221  0.88079153  0.36528932  1
  N  N65  1  0.42488053  0.80198133  0.13296975  1
  N  N66  1  0.20699158  0.87669233  0.88314866  1
  N  N67  1  0.14249769  0.75114020  0.62501856  1
  N  N68  1  0.88153633  0.87930848  0.34795308  1
  N  N69  1  0.77790306  0.76353862  0.11283173  1
  N  N70  1  0.56563534  0.88957268  0.88499207  1
  N  N71  1  0.44585695  0.75966671  0.57307375  1
