# generated using pymatgen
data_Gd5Al31N36
_symmetry_space_group_name_H-M   'P 1'
_cell_length_a   9.68817888
_cell_length_b   9.71002892
_cell_length_c   10.54542891
_cell_angle_alpha   89.48472029
_cell_angle_beta   89.09823376
_cell_angle_gamma   60.00438434
_symmetry_Int_Tables_number   1
_chemical_formula_structural   Gd5Al31N36
_chemical_formula_sum   'Gd5 Al31 N36'
_cell_volume   859.05818341
_cell_formula_units_Z   1
loop_
 _symmetry_equiv_pos_site_id
 _symmetry_equiv_pos_as_xyz
  1  'x, y, z'
loop_
 _atom_site_type_symbol
 _atom_site_label
 _atom_site_symmetry_multiplicity
 _atom_site_fract_x
 _atom_site_fract_y
 _atom_site_fract_z
 _atom_site_occupancy
  Al  Al0  1  0.11228616  0.09836254  0.31115072  1
  Al  Al1  1  0.22488656  0.19702210  0.05584463  1
  Al  Al2  1  0.79545253  0.08193170  0.89563902  1
  Al  Al3  1  0.43430925  0.10190284  0.30416004  1
  Al  Al4  1  0.54984341  0.20160946  0.06053779  1
  Al  Al5  1  0.12717289  0.08017604  0.81802957  1
  Al  Al6  1  0.23157792  0.19517636  0.56500760  1
  Al  Al7  1  0.76481760  0.10164573  0.37196128  1
  Al  Al8  1  0.88991113  0.20253056  0.13223596  1
  Al  Al9  1  0.45694356  0.09084661  0.81109506  1
  Al  Al10  1  0.53595022  0.21270233  0.55048266  1
  Al  Al11  1  0.10212442  0.43339548  0.38736337  1
  Al  Al12  1  0.79974610  0.40868710  0.88993656  1
  Al  Al13  1  0.87877337  0.54199094  0.62542063  1
  Al  Al14  1  0.43368063  0.42494630  0.31467713  1
  Al  Al15  1  0.11113145  0.41920986  0.86575193  1
  Al  Al16  1  0.22797478  0.54022183  0.56854281  1
  Al  Al17  1  0.77923795  0.43159111  0.36816848  1
  Al  Al18  1  0.89999278  0.53051591  0.13094772  1
  Al  Al19  1  0.45923550  0.41134617  0.80105168  1
  Al  Al20  1  0.54372286  0.54664380  0.53772729  1
  Al  Al21  1  0.10625622  0.77299155  0.32020075  1
  Al  Al22  1  0.20919925  0.89239253  0.07016759  1
  Al  Al23  1  0.79579153  0.75338842  0.89593321  1
  Al  Al24  1  0.42979034  0.77997452  0.31159538  1
  Al  Al25  1  0.55040416  0.88492376  0.06716922  1
  Al  Al26  1  0.12501769  0.75325435  0.80891605  1
  Al  Al27  1  0.22906860  0.87118326  0.55572563  1
  Al  Al28  1  0.77396891  0.75638085  0.37077949  1
  Al  Al29  1  0.87668680  0.88280615  0.14237865  1
  Al  Al30  1  0.54281852  0.87734601  0.54233692  1
  Gd  Gd31  1  0.88043156  0.21650711  0.62406089  1
  Gd  Gd32  1  0.21658759  0.55584682  0.06057158  1
  Gd  Gd33  1  0.55724479  0.53972941  0.08967958  1
  Gd  Gd34  1  0.87462497  0.87122403  0.62326884  1
  Gd  Gd35  1  0.45856296  0.75323488  0.80330681  1
  N  N36  1  0.21908766  0.20366789  0.37646821  1
  N  N37  1  0.11494736  0.10120584  0.12849352  1
  N  N38  1  0.90074603  0.19365887  0.84062315  1
  N  N39  1  0.75385981  0.10832111  0.54949185  1
  N  N40  1  0.53308506  0.21229764  0.36920501  1
  N  N41  1  0.44007088  0.09883224  0.12154665  1
  N  N42  1  0.23651589  0.18804452  0.86917674  1
  N  N43  1  0.15018396  0.07089917  0.63376960  1
  N  N44  1  0.87759271  0.21126611  0.31967817  1
  N  N45  1  0.77856805  0.09378864  0.07838453  1
  N  N46  1  0.56023817  0.20050320  0.87159447  1
  N  N47  1  0.45048182  0.08906017  0.62270253  1
  N  N48  1  0.21505500  0.55119239  0.37546102  1
  N  N49  1  0.09857788  0.41860436  0.05344642  1
  N  N50  1  0.88718008  0.53666786  0.81386163  1
  N  N51  1  0.76535932  0.45538316  0.54695717  1
  N  N52  1  0.54325085  0.54639492  0.34827492  1
  N  N53  1  0.44964684  0.39560519  0.13999076  1
  N  N54  1  0.23166361  0.52823073  0.84271696  1
  N  N55  1  0.10401780  0.42950358  0.57449035  1
  N  N56  1  0.89335600  0.53701154  0.31238956  1
  N  N57  1  0.81504595  0.40830305  0.07085284  1
  N  N58  1  0.57540155  0.50278674  0.86884030  1
  N  N59  1  0.45034012  0.42452907  0.61255091  1
  N  N60  1  0.21072577  0.88474058  0.37570850  1
  N  N61  1  0.09797644  0.79923196  0.14310848  1
  N  N62  1  0.89938978  0.86396828  0.84138591  1
  N  N63  1  0.76396158  0.74276640  0.55167612  1
  N  N64  1  0.54320236  0.88451895  0.36018032  1
  N  N65  1  0.42320390  0.80120400  0.12929316  1
  N  N66  1  0.20727177  0.87255900  0.88881936  1
  N  N67  1  0.14385348  0.75046352  0.62619744  1
  N  N68  1  0.87204790  0.87945109  0.32907281  1
  N  N69  1  0.78829340  0.75352621  0.08124537  1
  N  N70  1  0.57222183  0.88399215  0.88410790  1
  N  N71  1  0.44699404  0.75817198  0.58839969  1
