# generated using pymatgen
data_Gd5Al31N36
_symmetry_space_group_name_H-M   'P 1'
_cell_length_a   9.69396928
_cell_length_b   9.71399267
_cell_length_c   10.51647300
_cell_angle_alpha   89.50569507
_cell_angle_beta   89.19328712
_cell_angle_gamma   60.02219259
_symmetry_Int_Tables_number   1
_chemical_formula_structural   Gd5Al31N36
_chemical_formula_sum   'Gd5 Al31 N36'
_cell_volume   857.73562310
_cell_formula_units_Z   1
loop_
 _symmetry_equiv_pos_site_id
 _symmetry_equiv_pos_as_xyz
  1  'x, y, z'
loop_
 _atom_site_type_symbol
 _atom_site_label
 _atom_site_symmetry_multiplicity
 _atom_site_fract_x
 _atom_site_fract_y
 _atom_site_fract_z
 _atom_site_occupancy
  Al  Al0  1  0.11220693  0.09833314  0.30858937  1
  Al  Al1  1  0.22377634  0.19924582  0.05330543  1
  Al  Al2  1  0.79593738  0.08184263  0.89360746  1
  Al  Al3  1  0.43329563  0.10244761  0.30137056  1
  Al  Al4  1  0.54996966  0.20154345  0.05865244  1
  Al  Al5  1  0.12740775  0.08017941  0.81589777  1
  Al  Al6  1  0.23182271  0.19444781  0.56339422  1
  Al  Al7  1  0.76464145  0.10168878  0.36868444  1
  Al  Al8  1  0.89059458  0.20255013  0.12942297  1
  Al  Al9  1  0.45766452  0.09093435  0.80878036  1
  Al  Al10  1  0.53584062  0.21271521  0.54729683  1
  Al  Al11  1  0.10164356  0.43342965  0.38569868  1
  Al  Al12  1  0.80096655  0.40872330  0.88790724  1
  Al  Al13  1  0.87613721  0.54304374  0.62275326  1
  Al  Al14  1  0.43180685  0.42534124  0.31185929  1
  Al  Al15  1  0.11336060  0.41914826  0.85109274  1
  Al  Al16  1  0.22794141  0.54007368  0.56868356  1
  Al  Al17  1  0.77812188  0.43168773  0.36611403  1
  Al  Al18  1  0.90114517  0.53041046  0.13042908  1
  Al  Al19  1  0.46198624  0.41045325  0.79712762  1
  Al  Al20  1  0.54274921  0.54687168  0.53509408  1
  Al  Al21  1  0.10663146  0.77127695  0.31825139  1
  Al  Al22  1  0.20942706  0.89122409  0.06815427  1
  Al  Al23  1  0.79639438  0.75317568  0.89427775  1
  Al  Al24  1  0.42929741  0.78000765  0.30883951  1
  Al  Al25  1  0.55047526  0.88487401  0.06505768  1
  Al  Al26  1  0.12499343  0.75478678  0.80482337  1
  Al  Al27  1  0.22875986  0.87139844  0.55276613  1
  Al  Al28  1  0.77261414  0.75734151  0.36850119  1
  Al  Al29  1  0.87764394  0.88169523  0.14005768  1
  Al  Al30  1  0.54164885  0.87790309  0.54006317  1
  Gd  Gd31  1  0.88097166  0.21593975  0.62108899  1
  Gd  Gd32  1  0.21733354  0.55539403  0.05300060  1
  Gd  Gd33  1  0.55807718  0.53911826  0.08788052  1
  Gd  Gd34  1  0.87353222  0.87183401  0.62056069  1
  Gd  Gd35  1  0.45912655  0.75327983  0.80133086  1
  N  N36  1  0.21838894  0.20411705  0.37495835  1
  N  N37  1  0.11542793  0.10044932  0.12531293  1
  N  N38  1  0.90125864  0.19359460  0.83849416  1
  N  N39  1  0.75336550  0.10870793  0.54680748  1
  N  N40  1  0.53285073  0.21227191  0.36579409  1
  N  N41  1  0.43985714  0.09874605  0.11852969  1
  N  N42  1  0.23589328  0.19004979  0.86546719  1
  N  N43  1  0.15054345  0.07029295  0.63151668  1
  N  N44  1  0.87774041  0.21137775  0.31749014  1
  N  N45  1  0.77893914  0.09346485  0.07673367  1
  N  N46  1  0.56101564  0.20056085  0.86900823  1
  N  N47  1  0.45064079  0.08919293  0.62025926  1
  N  N48  1  0.21457796  0.55038585  0.37563317  1
  N  N49  1  0.10105457  0.41881353  0.05697606  1
  N  N50  1  0.88664105  0.53752367  0.81100504  1
  N  N51  1  0.76390995  0.45535087  0.54526741  1
  N  N52  1  0.54225578  0.54648242  0.34550290  1
  N  N53  1  0.44868628  0.39638317  0.13664253  1
  N  N54  1  0.23254269  0.52798055  0.83399857  1
  N  N55  1  0.10412780  0.42836697  0.57686269  1
  N  N56  1  0.89171614  0.53773471  0.31246002  1
  N  N57  1  0.81612694  0.40848060  0.06885683  1
  N  N58  1  0.57662224  0.50258033  0.86604581  1
  N  N59  1  0.45115809  0.42410224  0.60936853  1
  N  N60  1  0.21059335  0.88452618  0.37249720  1
  N  N61  1  0.09905515  0.79655735  0.14055827  1
  N  N62  1  0.90024081  0.86357716  0.83960397  1
  N  N63  1  0.76230780  0.74367047  0.54974428  1
  N  N64  1  0.54200381  0.88524334  0.35759402  1
  N  N65  1  0.42360428  0.80055109  0.12619558  1
  N  N66  1  0.20779128  0.87234453  0.88619069  1
  N  N67  1  0.14235827  0.75201279  0.62243531  1
  N  N68  1  0.87225209  0.87907619  0.32716661  1
  N  N69  1  0.78804429  0.75334568  0.07980130  1
  N  N70  1  0.57287313  0.88427131  0.88157132  1
  N  N71  1  0.44638879  0.75823049  0.58600619  1
