# generated using pymatgen
data_Gd5Al31N36
_symmetry_space_group_name_H-M   'P 1'
_cell_length_a   9.67620157
_cell_length_b   9.70766929
_cell_length_c   10.65040885
_cell_angle_alpha   89.55145040
_cell_angle_beta   89.39520314
_cell_angle_gamma   60.00003731
_symmetry_Int_Tables_number   1
_chemical_formula_structural   Gd5Al31N36
_chemical_formula_sum   'Gd5 Al31 N36'
_cell_volume   866.34500353
_cell_formula_units_Z   1
loop_
 _symmetry_equiv_pos_site_id
 _symmetry_equiv_pos_as_xyz
  1  'x, y, z'
loop_
 _atom_site_type_symbol
 _atom_site_label
 _atom_site_symmetry_multiplicity
 _atom_site_fract_x
 _atom_site_fract_y
 _atom_site_fract_z
 _atom_site_occupancy
  Al  Al0  1  0.11032395  0.10141334  0.39821602  1
  Al  Al1  1  0.21576831  0.21135941  0.15302757  1
  Al  Al2  1  0.78018708  0.08919263  0.91786775  1
  Al  Al3  1  0.44053760  0.09211857  0.33132217  1
  Al  Al4  1  0.56340400  0.19683839  0.16357840  1
  Al  Al5  1  0.11008535  0.09665193  0.91821569  1
  Al  Al6  1  0.22472290  0.20087681  0.65155570  1
  Al  Al7  1  0.76805426  0.10020824  0.39734071  1
  Al  Al8  1  0.89897128  0.19806226  0.15631519  1
  Al  Al9  1  0.45659813  0.08692966  0.83262854  1
  Al  Al10  1  0.55393162  0.20543557  0.64169123  1
  Al  Al11  1  0.10822932  0.42859172  0.40861405  1
  Al  Al12  1  0.79615768  0.41169114  0.91628334  1
  Al  Al13  1  0.87898300  0.53934270  0.64809899  1
  Al  Al14  1  0.43198336  0.42963177  0.33903737  1
  Al  Al15  1  0.10899584  0.41470054  0.88977828  1
  Al  Al16  1  0.22621540  0.53791169  0.60726562  1
  Al  Al17  1  0.78373608  0.42682246  0.39298825  1
  Al  Al18  1  0.90116253  0.53055337  0.15488388  1
  Al  Al19  1  0.45654993  0.42023430  0.82397862  1
  Al  Al20  1  0.54583009  0.54438224  0.56091599  1
  Al  Al21  1  0.10814532  0.76563008  0.33944341  1
  Al  Al22  1  0.21474947  0.88420180  0.09808608  1
  Al  Al23  1  0.79375422  0.75458324  0.91853638  1
  Al  Al24  1  0.43211194  0.77591915  0.33389657  1
  Al  Al25  1  0.54882141  0.88804997  0.08938266  1
  Al  Al26  1  0.11890953  0.76037987  0.83209203  1
  Al  Al27  1  0.23115657  0.86405370  0.56953989  1
  Al  Al28  1  0.77619839  0.75357394  0.39573745  1
  Al  Al29  1  0.87622770  0.88180736  0.16516726  1
  Al  Al30  1  0.54142243  0.87570787  0.56511166  1
  Gd  Gd31  1  0.88879376  0.21025896  0.65701084  1
  Gd  Gd32  1  0.21495818  0.55817401  0.07452726  1
  Gd  Gd33  1  0.55884791  0.54257783  0.11348631  1
  Gd  Gd34  1  0.87170628  0.87276567  0.64538272  1
  Gd  Gd35  1  0.45328542  0.75710888  0.82623320  1
  N  N36  1  0.21109782  0.21698860  0.33842413  1
  N  N37  1  0.11210428  0.10354788  0.09853552  1
  N  N38  1  0.89532938  0.19581776  0.87059234  1
  N  N39  1  0.75217364  0.11379581  0.57046188  1
  N  N40  1  0.55361858  0.20226583  0.34965787  1
  N  N41  1  0.44506409  0.09538035  0.14674236  1
  N  N42  1  0.22047310  0.19624986  0.83711684  1
  N  N43  1  0.13709903  0.08820226  0.57827236  1
  N  N44  1  0.88871994  0.20428449  0.34096119  1
  N  N45  1  0.77486218  0.09595941  0.10096978  1
  N  N46  1  0.57355308  0.19503445  0.83374356  1
  N  N47  1  0.45331864  0.07996208  0.64441620  1
  N  N48  1  0.21613132  0.54749836  0.39698317  1
  N  N49  1  0.10280665  0.41237238  0.07470809  1
  N  N50  1  0.88415581  0.53770229  0.83736702  1
  N  N51  1  0.76912562  0.44725890  0.57232184  1
  N  N52  1  0.54777614  0.54335110  0.37374385  1
  N  N53  1  0.44106209  0.41139741  0.16122200  1
  N  N54  1  0.22651638  0.52843698  0.85692333  1
  N  N55  1  0.10716162  0.42358651  0.59586799  1
  N  N56  1  0.89351878  0.53671668  0.33623271  1
  N  N57  1  0.81655097  0.40760722  0.09659038  1
  N  N58  1  0.57143757  0.50759178  0.89593942  1
  N  N59  1  0.44885993  0.43075517  0.63708979  1
  N  N60  1  0.21671997  0.87165540  0.39124890  1
  N  N61  1  0.09660452  0.79736864  0.16440460  1
  N  N62  1  0.89393039  0.86774486  0.86312085  1
  N  N63  1  0.76481066  0.73991157  0.57501344  1
  N  N64  1  0.54369823  0.88021048  0.38665861  1
  N  N65  1  0.42494867  0.80259108  0.15559861  1
  N  N66  1  0.20829411  0.86802428  0.91485469  1
  N  N67  1  0.14009840  0.75551465  0.65139982  1
  N  N68  1  0.87394946  0.87671084  0.35203077  1
  N  N69  1  0.78901704  0.75243963  0.10220907  1
  N  N70  1  0.56755938  0.88713351  0.90973231  1
  N  N71  1  0.44542683  0.75756474  0.61319569  1
