# generated using pymatgen
data_Gd5Al31N36
_symmetry_space_group_name_H-M   'P 1'
_cell_length_a   9.63927299
_cell_length_b   9.69497593
_cell_length_c   10.72796453
_cell_angle_alpha   89.48139100
_cell_angle_beta   88.97121782
_cell_angle_gamma   59.63510183
_symmetry_Int_Tables_number   1
_chemical_formula_structural   Gd5Al31N36
_chemical_formula_sum   'Gd5 Al31 N36'
_cell_volume   864.88887126
_cell_formula_units_Z   1
loop_
 _symmetry_equiv_pos_site_id
 _symmetry_equiv_pos_as_xyz
  1  'x, y, z'
loop_
 _atom_site_type_symbol
 _atom_site_label
 _atom_site_symmetry_multiplicity
 _atom_site_fract_x
 _atom_site_fract_y
 _atom_site_fract_z
 _atom_site_occupancy
  Al  Al0  1  0.10753409  0.10294424  0.40052455  1
  Al  Al1  1  0.21674464  0.21013273  0.15429395  1
  Al  Al2  1  0.78157950  0.08948000  0.92296659  1
  Al  Al3  1  0.43850321  0.09115370  0.33459035  1
  Al  Al4  1  0.56342152  0.19722256  0.16856016  1
  Al  Al5  1  0.11553390  0.09351087  0.91762420  1
  Al  Al6  1  0.22236289  0.20235614  0.65141538  1
  Al  Al7  1  0.77422765  0.09669665  0.39542029  1
  Al  Al8  1  0.90026703  0.19882117  0.15610005  1
  Al  Al9  1  0.46326645  0.08836416  0.82675542  1
  Al  Al10  1  0.54424205  0.21081168  0.59872473  1
  Al  Al11  1  0.10477907  0.42796956  0.40872934  1
  Al  Al12  1  0.79881963  0.41016889  0.91636011  1
  Al  Al13  1  0.88005284  0.53975088  0.64717652  1
  Al  Al14  1  0.43045133  0.43377594  0.34435027  1
  Al  Al15  1  0.11291883  0.41315641  0.88884663  1
  Al  Al16  1  0.21951346  0.54577240  0.58900421  1
  Al  Al17  1  0.78244813  0.42794531  0.39324792  1
  Al  Al18  1  0.89953204  0.53090327  0.15551876  1
  Al  Al19  1  0.46005770  0.41240752  0.81569523  1
  Al  Al20  1  0.54407425  0.54772573  0.56065023  1
  Al  Al21  1  0.10625011  0.76856954  0.33985148  1
  Al  Al22  1  0.21750347  0.88163797  0.09679748  1
  Al  Al23  1  0.79733166  0.75231449  0.92277487  1
  Al  Al24  1  0.43211455  0.77539390  0.33294342  1
  Al  Al25  1  0.55046535  0.88818078  0.08956108  1
  Al  Al26  1  0.12437551  0.75404829  0.83162176  1
  Al  Al27  1  0.22461147  0.86720193  0.57174576  1
  Al  Al28  1  0.77709299  0.75497041  0.39684663  1
  Al  Al29  1  0.87870011  0.87999302  0.16367464  1
  Al  Al30  1  0.53964956  0.87464073  0.56402220  1
  Gd  Gd31  1  0.88133037  0.21356813  0.66175232  1
  Gd  Gd32  1  0.21689675  0.55467558  0.07390804  1
  Gd  Gd33  1  0.55432961  0.54122159  0.10723597  1
  Gd  Gd34  1  0.85531311  0.88276190  0.66218716  1
  Gd  Gd35  1  0.45984573  0.75491599  0.82602339  1
  N  N36  1  0.20860738  0.21717948  0.33855840  1
  N  N37  1  0.11527829  0.10188561  0.09725309  1
  N  N38  1  0.89975583  0.19297750  0.87394726  1
  N  N39  1  0.75901926  0.11027354  0.56611717  1
  N  N40  1  0.54741108  0.20516680  0.36643274  1
  N  N41  1  0.44844347  0.09394142  0.15313459  1
  N  N42  1  0.22436513  0.19440547  0.83485367  1
  N  N43  1  0.13120262  0.09233441  0.57955180  1
  N  N44  1  0.88820574  0.20577354  0.33868770  1
  N  N45  1  0.77531056  0.09760573  0.10583315  1
  N  N46  1  0.58185263  0.19028639  0.83648499  1
  N  N47  1  0.45370020  0.08193842  0.63861814  1
  N  N48  1  0.21223517  0.55138331  0.40333159  1
  N  N49  1  0.10301062  0.41064980  0.07453404  1
  N  N50  1  0.88587616  0.53728881  0.83705781  1
  N  N51  1  0.76860628  0.44890108  0.57192387  1
  N  N52  1  0.54649453  0.54539002  0.37605480  1
  N  N53  1  0.43893609  0.41135717  0.17095191  1
  N  N54  1  0.23222921  0.52438187  0.86066840  1
  N  N55  1  0.10663393  0.42337096  0.59318822  1
  N  N56  1  0.89239659  0.53757328  0.33575768  1
  N  N57  1  0.81351817  0.40980699  0.09661798  1
  N  N58  1  0.57344350  0.50273107  0.89133659  1
  N  N59  1  0.44396219  0.43234494  0.62861596  1
  N  N60  1  0.21526608  0.87265111  0.39360506  1
  N  N61  1  0.10146946  0.79377475  0.16576689  1
  N  N62  1  0.90110510  0.86376259  0.87489696  1
  N  N63  1  0.76587689  0.74205906  0.57515380  1
  N  N64  1  0.54307289  0.87862806  0.38787524  1
  N  N65  1  0.42792353  0.80068569  0.15590624  1
  N  N66  1  0.21406828  0.86311072  0.91457209  1
  N  N67  1  0.12912640  0.75934902  0.65053379  1
  N  N68  1  0.87226914  0.87719529  0.34687280  1
  N  N69  1  0.78973569  0.75179743  0.10336210  1
  N  N70  1  0.56983761  0.88888980  0.90987143  1
  N  N71  1  0.44070470  0.76036435  0.61548444  1
