# generated using pymatgen
data_Gd5Al31N36
_symmetry_space_group_name_H-M   'P 1'
_cell_length_a   9.72433358
_cell_length_b   9.73418948
_cell_length_c   10.29091420
_cell_angle_alpha   89.65738312
_cell_angle_beta   90.04823312
_cell_angle_gamma   59.79905098
_symmetry_Int_Tables_number   1
_chemical_formula_structural   Gd5Al31N36
_chemical_formula_sum   'Gd5 Al31 N36'
_cell_volume   841.87806056
_cell_formula_units_Z   1
loop_
 _symmetry_equiv_pos_site_id
 _symmetry_equiv_pos_as_xyz
  1  'x, y, z'
loop_
 _atom_site_type_symbol
 _atom_site_label
 _atom_site_symmetry_multiplicity
 _atom_site_fract_x
 _atom_site_fract_y
 _atom_site_fract_z
 _atom_site_occupancy
  Al  Al0  1  0.11800530  0.09645197  0.38827815  1
  Al  Al1  1  0.22249096  0.20229812  0.14595389  1
  Al  Al2  1  0.77532076  0.09599602  0.91521330  1
  Al  Al3  1  0.44310198  0.09844324  0.39561999  1
  Al  Al4  1  0.55685277  0.19758644  0.14660397  1
  Al  Al5  1  0.10323545  0.10448684  0.90953254  1
  Al  Al6  1  0.22972045  0.20254275  0.64748530  1
  Al  Al7  1  0.77144803  0.09786083  0.38709363  1
  Al  Al8  1  0.89163509  0.20456746  0.14927874  1
  Al  Al9  1  0.44913476  0.09752581  0.89561544  1
  Al  Al10  1  0.54968896  0.20488963  0.64695652  1
  Al  Al11  1  0.11097071  0.42577384  0.40681070  1
  Al  Al12  1  0.78176281  0.42412158  0.90180721  1
  Al  Al13  1  0.88278800  0.54165399  0.64751026  1
  Al  Al14  1  0.44402373  0.42382978  0.41346096  1
  Al  Al15  1  0.10627811  0.42496291  0.89039342  1
  Al  Al16  1  0.22501326  0.53704282  0.65023794  1
  Al  Al17  1  0.78209141  0.42868095  0.40148502  1
  Al  Al18  1  0.89137525  0.53207559  0.14714855  1
  Al  Al19  1  0.45201005  0.41396033  0.88464027  1
  Al  Al20  1  0.56019018  0.53170303  0.63984976  1
  Al  Al21  1  0.11554075  0.75606109  0.39856935  1
  Al  Al22  1  0.21580601  0.88371251  0.11767541  1
  Al  Al23  1  0.77735480  0.76366052  0.90734087  1
  Al  Al24  1  0.45235680  0.76064639  0.40476309  1
  Al  Al25  1  0.55099506  0.87978408  0.15069898  1
  Al  Al26  1  0.10007018  0.76972873  0.90628490  1
  Al  Al27  1  0.22993067  0.87101975  0.59164648  1
  Al  Al28  1  0.77772280  0.75639449  0.39040099  1
  Al  Al29  1  0.88506018  0.87493098  0.15118308  1
  Al  Al30  1  0.55840873  0.87802254  0.63908623  1
  Gd  Gd31  1  0.89472177  0.20020054  0.65067207  1
  Gd  Gd32  1  0.22134246  0.52765854  0.14466443  1
  Gd  Gd33  1  0.55312373  0.53918037  0.15161912  1
  Gd  Gd34  1  0.88364743  0.86818646  0.65097273  1
  Gd  Gd35  1  0.43952889  0.76813526  0.86677801  1
  N  N36  1  0.22415502  0.21089972  0.33413843  1
  N  N37  1  0.10862556  0.10100528  0.09862942  1
  N  N38  1  0.88576192  0.20603212  0.86906424  1
  N  N39  1  0.74820968  0.10844194  0.56776145  1
  N  N40  1  0.54838932  0.21177116  0.33365803  1
  N  N41  1  0.44446947  0.09447430  0.08661743  1
  N  N42  1  0.22388250  0.20194925  0.83682233  1
  N  N43  1  0.14086639  0.08879164  0.57300218  1
  N  N44  1  0.89000907  0.20699011  0.34111267  1
  N  N45  1  0.77624069  0.09456984  0.10299597  1
  N  N46  1  0.56189701  0.19795227  0.83384391  1
  N  N47  1  0.44317503  0.09809600  0.58337474  1
  N  N48  1  0.22437474  0.53342321  0.36353060  1
  N  N49  1  0.09619455  0.40957131  0.07388849  1
  N  N50  1  0.88287595  0.54433681  0.83676604  1
  N  N51  1  0.77252313  0.44595170  0.58331348  1
  N  N52  1  0.55477819  0.53751699  0.37080859  1
  N  N53  1  0.46186424  0.39516077  0.06556028  1
  N  N54  1  0.21774330  0.54216646  0.84342377  1
  N  N55  1  0.10842396  0.42793997  0.59612467  1
  N  N56  1  0.89381224  0.53481928  0.33553029  1
  N  N57  1  0.79799593  0.41774008  0.08674416  1
  N  N58  1  0.57427470  0.50539297  0.82821975  1
  N  N59  1  0.44323303  0.42380266  0.59867472  1
  N  N60  1  0.22802894  0.86901827  0.36620997  1
  N  N61  1  0.09844327  0.78348808  0.09367129  1
  N  N62  1  0.88284405  0.87556739  0.87043403  1
  N  N63  1  0.76458247  0.74613812  0.57249197  1
  N  N64  1  0.55432565  0.87529264  0.33925906  1
  N  N65  1  0.43135737  0.79148011  0.08998816  1
  N  N66  1  0.18228929  0.89641865  0.85851311  1
  N  N67  1  0.13513109  0.74738106  0.58415056  1
  N  N68  1  0.89044911  0.86902378  0.34206987  1
  N  N69  1  0.77536138  0.75813985  0.09673313  1
  N  N70  1  0.57682259  0.89118877  0.82369730  1
  N  N71  1  0.45156720  0.76030502  0.60160620  1
