# generated using pymatgen
data_Gd5Al31N36
_symmetry_space_group_name_H-M   'P 1'
_cell_length_a   9.68506455
_cell_length_b   9.68764487
_cell_length_c   10.30574721
_cell_angle_alpha   89.83893054
_cell_angle_beta   89.91016093
_cell_angle_gamma   59.96473209
_symmetry_Int_Tables_number   1
_chemical_formula_structural   Gd5Al31N36
_chemical_formula_sum   'Gd5 Al31 N36'
_cell_volume   837.09485514
_cell_formula_units_Z   1
loop_
 _symmetry_equiv_pos_site_id
 _symmetry_equiv_pos_as_xyz
  1  'x, y, z'
loop_
 _atom_site_type_symbol
 _atom_site_label
 _atom_site_symmetry_multiplicity
 _atom_site_fract_x
 _atom_site_fract_y
 _atom_site_fract_z
 _atom_site_occupancy
  Al  Al0  1  0.10996987  0.09713887  0.30150157  1
  Al  Al1  1  0.22269999  0.20228282  0.06390951  1
  Al  Al2  1  0.77181653  0.09718072  0.82197562  1
  Al  Al3  1  0.44348866  0.09783564  0.31039900  1
  Al  Al4  1  0.55522058  0.19933517  0.06019238  1
  Al  Al5  1  0.11584593  0.09205563  0.82036091  1
  Al  Al6  1  0.23171710  0.19827103  0.56362692  1
  Al  Al7  1  0.77384117  0.09627097  0.29615123  1
  Al  Al8  1  0.89472130  0.20233322  0.05919933  1
  Al  Al9  1  0.44764131  0.09853881  0.81405974  1
  Al  Al10  1  0.55108745  0.20418386  0.56069127  1
  Al  Al11  1  0.10679888  0.42536550  0.32065965  1
  Al  Al12  1  0.77840379  0.42603312  0.81113628  1
  Al  Al13  1  0.87939266  0.54286718  0.56946220  1
  Al  Al14  1  0.44532889  0.41956088  0.32022401  1
  Al  Al15  1  0.11162631  0.42390199  0.80411281  1
  Al  Al16  1  0.22691359  0.53635174  0.56221996  1
  Al  Al17  1  0.78422034  0.42488604  0.30703070  1
  Al  Al18  1  0.89392755  0.53190725  0.06612081  1
  Al  Al19  1  0.44856852  0.41976152  0.79562089  1
  Al  Al20  1  0.55573501  0.53794502  0.54598170  1
  Al  Al21  1  0.10591939  0.76930299  0.30771639  1
  Al  Al22  1  0.21374368  0.88614717  0.06737558  1
  Al  Al23  1  0.77774938  0.76041006  0.82292930  1
  Al  Al24  1  0.43925373  0.77232944  0.32042128  1
  Al  Al25  1  0.55269712  0.88367261  0.06857324  1
  Al  Al26  1  0.11465741  0.76106424  0.80949180  1
  Al  Al27  1  0.23030879  0.86914579  0.55028432  1
  Al  Al28  1  0.77751959  0.76085094  0.30319609  1
  Al  Al29  1  0.88764114  0.87596152  0.06023221  1
  Al  Al30  1  0.55406082  0.87429979  0.55031445  1
  Gd  Gd31  1  0.89821510  0.20165112  0.56556098  1
  Gd  Gd32  1  0.21758582  0.53643193  0.06073281  1
  Gd  Gd33  1  0.55386800  0.54228271  0.07270469  1
  Gd  Gd34  1  0.88662698  0.86517780  0.56553629  1
  Gd  Gd35  1  0.44383154  0.76951550  0.79393944  1
  N  N36  1  0.22225594  0.20196424  0.37503509  1
  N  N37  1  0.10981610  0.09962300  0.11671020  1
  N  N38  1  0.89180368  0.20503303  0.86603770  1
  N  N39  1  0.75015844  0.10762457  0.64055027  1
  N  N40  1  0.55956459  0.19894004  0.37422545  1
  N  N41  1  0.44200709  0.09924774  0.12408728  1
  N  N42  1  0.22518145  0.20653866  0.87373180  1
  N  N43  1  0.15306494  0.06924654  0.63659110  1
  N  N44  1  0.88764564  0.20256092  0.34709442  1
  N  N45  1  0.77523854  0.09594341  0.10753526  1
  N  N46  1  0.54982489  0.21051360  0.87328754  1
  N  N47  1  0.44729069  0.09155657  0.62220683  1
  N  N48  1  0.21705552  0.54300595  0.36969294  1
  N  N49  1  0.10077479  0.41026559  0.13599252  1
  N  N50  1  0.89256166  0.53489503  0.87199871  1
  N  N51  1  0.76089605  0.45047626  0.62550670  1
  N  N52  1  0.55795502  0.53630193  0.35606317  1
  N  N53  1  0.45576085  0.39582669  0.14122265  1
  N  N54  1  0.22534965  0.53371602  0.84109432  1
  N  N55  1  0.10758342  0.42538742  0.61567540  1
  N  N56  1  0.88400599  0.54314084  0.37464929  1
  N  N57  1  0.80428057  0.41256414  0.12399274  1
  N  N58  1  0.56232673  0.51629903  0.85580054  1
  N  N59  1  0.44746774  0.42414143  0.60627102  1
  N  N60  1  0.21187168  0.88128189  0.36669173  1
  N  N61  1  0.09830540  0.78894941  0.12640333  1
  N  N62  1  0.89360123  0.86775144  0.86713310  1
  N  N63  1  0.75328712  0.75160786  0.63785715  1
  N  N64  1  0.56008341  0.87787516  0.36512883  1
  N  N65  1  0.42565554  0.79903044  0.13289278  1
  N  N66  1  0.20083146  0.88063456  0.88448645  1
  N  N67  1  0.14367813  0.75051344  0.62529892  1
  N  N68  1  0.88309344  0.87628115  0.34724879  1
  N  N69  1  0.78047743  0.75680213  0.11651762  1
  N  N70  1  0.56688418  0.88931502  0.88554254  1
  N  N71  1  0.44861848  0.75815068  0.57422299  1
