# generated using pymatgen
data_Gd5Al31N36
_symmetry_space_group_name_H-M   'P 1'
_cell_length_a   9.74720365
_cell_length_b   9.71836047
_cell_length_c   10.39308534
_cell_angle_alpha   89.77935321
_cell_angle_beta   89.51443745
_cell_angle_gamma   60.26789449
_symmetry_Int_Tables_number   1
_chemical_formula_structural   Gd5Al31N36
_chemical_formula_sum   'Gd5 Al31 N36'
_cell_volume   854.86707312
_cell_formula_units_Z   1
loop_
 _symmetry_equiv_pos_site_id
 _symmetry_equiv_pos_as_xyz
  1  'x, y, z'
loop_
 _atom_site_type_symbol
 _atom_site_label
 _atom_site_symmetry_multiplicity
 _atom_site_fract_x
 _atom_site_fract_y
 _atom_site_fract_z
 _atom_site_occupancy
  Al  Al0  1  0.11727719  0.09503473  0.30989504  1
  Al  Al1  1  0.22138242  0.20266396  0.06052144  1
  Al  Al2  1  0.78027019  0.09232313  0.82803477  1
  Al  Al3  1  0.43660402  0.10044366  0.30324114  1
  Al  Al4  1  0.55588401  0.19895609  0.06076495  1
  Al  Al5  1  0.12235709  0.08643929  0.81509447  1
  Al  Al6  1  0.23330425  0.19852422  0.56208966  1
  Al  Al7  1  0.76055040  0.10472200  0.32566465  1
  Al  Al8  1  0.89365790  0.20312005  0.13025563  1
  Al  Al9  1  0.45125260  0.09596085  0.81031523  1
  Al  Al10  1  0.54041811  0.21091789  0.55242211  1
  Al  Al11  1  0.11100726  0.42312707  0.31750057  1
  Al  Al12  1  0.79868361  0.41006660  0.87883808  1
  Al  Al13  1  0.87076596  0.54602665  0.62491650  1
  Al  Al14  1  0.43328788  0.42425990  0.31253646  1
  Al  Al15  1  0.11750410  0.42047153  0.79705188  1
  Al  Al16  1  0.22766715  0.53401327  0.56296091  1
  Al  Al17  1  0.77361964  0.43796890  0.36954140  1
  Al  Al18  1  0.89303115  0.53279838  0.13054886  1
  Al  Al19  1  0.45653242  0.41638523  0.79717618  1
  Al  Al20  1  0.54193394  0.54482773  0.54060527  1
  Al  Al21  1  0.11125108  0.76597911  0.31812586  1
  Al  Al22  1  0.20897307  0.88835659  0.06672278  1
  Al  Al23  1  0.79281200  0.75883878  0.88530772  1
  Al  Al24  1  0.43147312  0.77796868  0.30908065  1
  Al  Al25  1  0.54997421  0.88548112  0.06362430  1
  Al  Al26  1  0.12066281  0.75815927  0.80307995  1
  Al  Al27  1  0.23716906  0.86677343  0.55433655  1
  Al  Al28  1  0.76917880  0.75628227  0.37061913  1
  Al  Al29  1  0.88051525  0.87712082  0.13928152  1
  Al  Al30  1  0.54156351  0.88065406  0.54493895  1
  Gd  Gd31  1  0.90021968  0.20722971  0.59204528  1
  Gd  Gd32  1  0.20986996  0.54600873  0.05522085  1
  Gd  Gd33  1  0.56090777  0.53573013  0.08659229  1
  Gd  Gd34  1  0.89126956  0.86277652  0.59218213  1
  Gd  Gd35  1  0.45158276  0.75855972  0.80392891  1
  N  N36  1  0.22063544  0.20500669  0.37518741  1
  N  N37  1  0.11563888  0.09644598  0.12586487  1
  N  N38  1  0.89756334  0.19880979  0.82290961  1
  N  N39  1  0.74626898  0.11245240  0.59283465  1
  N  N40  1  0.54045383  0.20936603  0.36881974  1
  N  N41  1  0.44137164  0.09814433  0.11888185  1
  N  N42  1  0.22576624  0.20577043  0.87174539  1
  N  N43  1  0.16413362  0.06449434  0.63278391  1
  N  N44  1  0.88402995  0.21313185  0.32907490  1
  N  N45  1  0.76888912  0.09978151  0.12280615  1
  N  N46  1  0.55899376  0.20397001  0.87024937  1
  N  N47  1  0.44700320  0.09341840  0.62086902  1
  N  N48  1  0.21331516  0.54331032  0.37196221  1
  N  N49  1  0.11219889  0.40545016  0.13407439  1
  N  N50  1  0.88381878  0.54232277  0.81383023  1
  N  N51  1  0.75999401  0.45698802  0.55046138  1
  N  N52  1  0.54164455  0.54544245  0.34652157  1
  N  N53  1  0.44569071  0.39895073  0.13435645  1
  N  N54  1  0.22851085  0.53118917  0.83800049  1
  N  N55  1  0.10984979  0.42249933  0.61095326  1
  N  N56  1  0.87861624  0.54474355  0.31355254  1
  N  N57  1  0.82066565  0.40452898  0.06210336  1
  N  N58  1  0.57346585  0.50640308  0.86421548  1
  N  N59  1  0.44594982  0.42527488  0.60821471  1
  N  N60  1  0.21381448  0.88130896  0.37176153  1
  N  N61  1  0.10033247  0.79065285  0.13830529  1
  N  N62  1  0.89535875  0.86734773  0.82481438  1
  N  N63  1  0.75890368  0.74514019  0.55344558  1
  N  N64  1  0.54205291  0.88557955  0.35851706  1
  N  N65  1  0.42468980  0.79790454  0.12342497  1
  N  N66  1  0.20060509  0.87882234  0.88501550  1
  N  N67  1  0.15528127  0.74366528  0.62069424  1
  N  N68  1  0.87793472  0.87381484  0.33632846  1
  N  N69  1  0.79101766  0.75259299  0.07489276  1
  N  N70  1  0.56882971  0.88904919  0.88002412  1
  N  N71  1  0.45116524  0.75637804  0.58694428  1
