# generated using pymatgen
data_Gd5Al31N36
_symmetry_space_group_name_H-M   'P 1'
_cell_length_a   9.68599734
_cell_length_b   9.68479561
_cell_length_c   10.29641636
_cell_angle_alpha   89.89988611
_cell_angle_beta   90.00736893
_cell_angle_gamma   59.89543930
_symmetry_Int_Tables_number   1
_chemical_formula_structural   Gd5Al31N36
_chemical_formula_sum   'Gd5 Al31 N36'
_cell_volume   835.58768200
_cell_formula_units_Z   1
loop_
 _symmetry_equiv_pos_site_id
 _symmetry_equiv_pos_as_xyz
  1  'x, y, z'
loop_
 _atom_site_type_symbol
 _atom_site_label
 _atom_site_symmetry_multiplicity
 _atom_site_fract_x
 _atom_site_fract_y
 _atom_site_fract_z
 _atom_site_occupancy
  Al  Al0  1  0.11054194  0.09672071  0.29810774  1
  Al  Al1  1  0.22192343  0.20284689  0.06049412  1
  Al  Al2  1  0.77114266  0.09825009  0.81922677  1
  Al  Al3  1  0.44435448  0.09684687  0.30701439  1
  Al  Al4  1  0.55490717  0.19921176  0.05714664  1
  Al  Al5  1  0.11479985  0.09343858  0.81717820  1
  Al  Al6  1  0.23184536  0.19829625  0.55996160  1
  Al  Al7  1  0.77451775  0.09560689  0.29261913  1
  Al  Al8  1  0.89429733  0.20302714  0.05579696  1
  Al  Al9  1  0.44696152  0.09963049  0.81067034  1
  Al  Al10  1  0.55099161  0.20404020  0.55746740  1
  Al  Al11  1  0.10735824  0.42474378  0.31556867  1
  Al  Al12  1  0.77821617  0.42780955  0.80559102  1
  Al  Al13  1  0.88021464  0.54197902  0.55875318  1
  Al  Al14  1  0.44594805  0.41920229  0.31728142  1
  Al  Al15  1  0.11013884  0.42524882  0.79919213  1
  Al  Al16  1  0.22655203  0.53633686  0.55857588  1
  Al  Al17  1  0.78473636  0.42453975  0.30246674  1
  Al  Al18  1  0.89303640  0.53193897  0.05782748  1
  Al  Al19  1  0.44789750  0.42085415  0.79181878  1
  Al  Al20  1  0.55660621  0.53754039  0.54298611  1
  Al  Al21  1  0.10654184  0.76858505  0.30417082  1
  Al  Al22  1  0.21329832  0.88619535  0.06421461  1
  Al  Al23  1  0.77752912  0.76037553  0.81737117  1
  Al  Al24  1  0.44024174  0.77145946  0.31669946  1
  Al  Al25  1  0.55313017  0.88317500  0.06449485  1
  Al  Al26  1  0.11382165  0.76190933  0.80603869  1
  Al  Al27  1  0.23088792  0.86888265  0.54657368  1
  Al  Al28  1  0.77846613  0.75988454  0.29848453  1
  Al  Al29  1  0.88743799  0.87535203  0.05638640  1
  Al  Al30  1  0.55541351  0.87312967  0.54692978  1
  Gd  Gd31  1  0.89846783  0.20053351  0.56227847  1
  Gd  Gd32  1  0.21721968  0.53580982  0.05710614  1
  Gd  Gd33  1  0.55330894  0.54176779  0.06819792  1
  Gd  Gd34  1  0.88658877  0.86559591  0.56221117  1
  Gd  Gd35  1  0.44121321  0.77205508  0.79068649  1
  N  N36  1  0.22283996  0.20160900  0.37103134  1
  N  N37  1  0.10958163  0.09985548  0.11333702  1
  N  N38  1  0.89082698  0.20690311  0.86227740  1
  N  N39  1  0.74957612  0.10805643  0.63787431  1
  N  N40  1  0.56040823  0.19808293  0.37092113  1
  N  N41  1  0.44181898  0.09899086  0.12047665  1
  N  N42  1  0.22414993  0.20795677  0.87004491  1
  N  N43  1  0.15371482  0.06901597  0.63334325  1
  N  N44  1  0.88817544  0.20232363  0.34337161  1
  N  N45  1  0.77537586  0.09573643  0.10379436  1
  N  N46  1  0.54890091  0.21184199  0.87026774  1
  N  N47  1  0.44766128  0.09114006  0.61871098  1
  N  N48  1  0.21721150  0.54241773  0.36576051  1
  N  N49  1  0.09862020  0.41122385  0.13124581  1
  N  N50  1  0.89200370  0.53573960  0.86892192  1
  N  N51  1  0.76310477  0.45012724  0.61986952  1
  N  N52  1  0.55889693  0.53577036  0.35265296  1
  N  N53  1  0.45551147  0.39568990  0.13821003  1
  N  N54  1  0.22435584  0.53446376  0.83707987  1
  N  N55  1  0.10692333  0.42572436  0.61079157  1
  N  N56  1  0.88489307  0.54228870  0.37033731  1
  N  N57  1  0.80381693  0.41366406  0.11955277  1
  N  N58  1  0.56214387  0.51785737  0.85042724  1
  N  N59  1  0.44735852  0.42428825  0.60247341  1
  N  N60  1  0.21273319  0.88059785  0.36288540  1
  N  N61  1  0.09838024  0.78847584  0.12271708  1
  N  N62  1  0.89281511  0.86802600  0.86299246  1
  N  N63  1  0.75589821  0.74887028  0.63216917  1
  N  N64  1  0.56135578  0.87658611  0.36144071  1
  N  N65  1  0.42603040  0.79853433  0.12878683  1
  N  N66  1  0.19881648  0.88215313  0.88144903  1
  N  N67  1  0.14392360  0.75084179  0.62166573  1
  N  N68  1  0.88377119  0.87529928  0.34356313  1
  N  N69  1  0.78077197  0.75592311  0.11204173  1
  N  N70  1  0.56705103  0.88969956  0.88106691  1
  N  N71  1  0.44928955  0.75789721  0.57103478  1
