# generated using pymatgen
data_Gd5Al31N36
_symmetry_space_group_name_H-M   'P 1'
_cell_length_a   9.65850499
_cell_length_b   9.69356715
_cell_length_c   10.64449360
_cell_angle_alpha   89.25781763
_cell_angle_beta   89.12531662
_cell_angle_gamma   59.84968846
_symmetry_Int_Tables_number   1
_chemical_formula_structural   Gd5Al31N36
_chemical_formula_sum   'Gd5 Al31 N36'
_cell_volume   861.64951879
_cell_formula_units_Z   1
loop_
 _symmetry_equiv_pos_site_id
 _symmetry_equiv_pos_as_xyz
  1  'x, y, z'
loop_
 _atom_site_type_symbol
 _atom_site_label
 _atom_site_symmetry_multiplicity
 _atom_site_fract_x
 _atom_site_fract_y
 _atom_site_fract_z
 _atom_site_occupancy
  Al  Al0  1  0.11014246  0.10205265  0.39519751  1
  Al  Al1  1  0.21549631  0.21024042  0.15279126  1
  Al  Al2  1  0.79348422  0.08277258  0.92242620  1
  Al  Al3  1  0.44394518  0.09774639  0.32665060  1
  Al  Al4  1  0.54971004  0.20229188  0.08547126  1
  Al  Al5  1  0.11299598  0.09647896  0.91902130  1
  Al  Al6  1  0.22760118  0.20097735  0.65583789  1
  Al  Al7  1  0.76906602  0.10090878  0.39698238  1
  Al  Al8  1  0.89533211  0.19958814  0.15566661  1
  Al  Al9  1  0.46210393  0.08956623  0.83610011  1
  Al  Al10  1  0.53895057  0.21145419  0.57495835  1
  Al  Al11  1  0.10677297  0.42613917  0.40846176  1
  Al  Al12  1  0.79515349  0.41429054  0.91538911  1
  Al  Al13  1  0.88069233  0.53903703  0.64765203  1
  Al  Al14  1  0.43394613  0.42447595  0.33945642  1
  Al  Al15  1  0.11102314  0.41616891  0.89120763  1
  Al  Al16  1  0.22771039  0.53954298  0.59017566  1
  Al  Al17  1  0.78164900  0.42837513  0.39283010  1
  Al  Al18  1  0.89848220  0.53142846  0.15520358  1
  Al  Al19  1  0.45667135  0.41371239  0.82465649  1
  Al  Al20  1  0.54621866  0.54355440  0.56307987  1
  Al  Al21  1  0.10687778  0.76824797  0.34214947  1
  Al  Al22  1  0.21449761  0.88291580  0.09894214  1
  Al  Al23  1  0.79542091  0.75409775  0.91925858  1
  Al  Al24  1  0.43284418  0.77651408  0.33497068  1
  Al  Al25  1  0.55071022  0.88455446  0.09024428  1
  Al  Al26  1  0.12384989  0.75498777  0.83173739  1
  Al  Al27  1  0.23082856  0.86595170  0.57071130  1
  Al  Al28  1  0.77495896  0.75457370  0.39633983  1
  Al  Al29  1  0.87521378  0.88303296  0.16745033  1
  Al  Al30  1  0.54149725  0.87766696  0.56599065  1
  Gd  Gd31  1  0.88953116  0.21115539  0.65810787  1
  Gd  Gd32  1  0.21491441  0.55494866  0.08104450  1
  Gd  Gd33  1  0.55392771  0.53992127  0.11180631  1
  Gd  Gd34  1  0.87173046  0.87222732  0.64746794  1
  Gd  Gd35  1  0.45365013  0.75824455  0.82592440  1
  N  N36  1  0.21125842  0.21718091  0.33587408  1
  N  N37  1  0.11122033  0.10284581  0.10068727  1
  N  N38  1  0.89731525  0.19695501  0.87176203  1
  N  N39  1  0.75937596  0.11092796  0.57314074  1
  N  N40  1  0.53552395  0.21119834  0.39561868  1
  N  N41  1  0.44831241  0.09432448  0.14624551  1
  N  N42  1  0.22393959  0.19660383  0.84012104  1
  N  N43  1  0.14017023  0.08872588  0.58099088  1
  N  N44  1  0.88588017  0.20650327  0.33976837  1
  N  N45  1  0.77874930  0.09384515  0.10321545  1
  N  N46  1  0.55796228  0.20349352  0.89829329  1
  N  N47  1  0.46069924  0.08271351  0.65007442  1
  N  N48  1  0.21569519  0.54880141  0.40119558  1
  N  N49  1  0.10057541  0.41186517  0.07568824  1
  N  N50  1  0.88612180  0.53817368  0.83711991  1
  N  N51  1  0.76950398  0.44821253  0.57180061  1
  N  N52  1  0.54586033  0.54305037  0.37433501  1
  N  N53  1  0.44636770  0.39584640  0.16609109  1
  N  N54  1  0.22868365  0.52907943  0.86633930  1
  N  N55  1  0.10907654  0.42214045  0.59470684  1
  N  N56  1  0.89267696  0.53745291  0.33614803  1
  N  N57  1  0.81157370  0.41106711  0.09635590  1
  N  N58  1  0.57116567  0.50712486  0.89262159  1
  N  N59  1  0.45001907  0.42356506  0.63776214  1
  N  N60  1  0.21591356  0.87346124  0.39220840  1
  N  N61  1  0.09777612  0.79527910  0.16749792  1
  N  N62  1  0.89659339  0.86706790  0.86341493  1
  N  N63  1  0.76499570  0.74019946  0.57475986  1
  N  N64  1  0.54233798  0.88417941  0.38646985  1
  N  N65  1  0.42606460  0.80006444  0.15636592  1
  N  N66  1  0.20813987  0.86788733  0.91555869  1
  N  N67  1  0.14253202  0.75197084  0.64966924  1
  N  N68  1  0.87149293  0.87894313  0.35269858  1
  N  N69  1  0.79032784  0.75278918  0.10308731  1
  N  N70  1  0.56957717  0.88499446  0.91012499  1
  N  N71  1  0.44604730  0.75792040  0.61286564  1
