# generated using pymatgen
data_Gd5Al31N36
_symmetry_space_group_name_H-M   'P 1'
_cell_length_a   9.68599398
_cell_length_b   9.68478904
_cell_length_c   10.29642709
_cell_angle_alpha   89.89984111
_cell_angle_beta   90.00734386
_cell_angle_gamma   59.89540450
_symmetry_Int_Tables_number   1
_chemical_formula_structural   Gd5Al31N36
_chemical_formula_sum   'Gd5 Al31 N36'
_cell_volume   835.58740136
_cell_formula_units_Z   1
loop_
 _symmetry_equiv_pos_site_id
 _symmetry_equiv_pos_as_xyz
  1  'x, y, z'
loop_
 _atom_site_type_symbol
 _atom_site_label
 _atom_site_symmetry_multiplicity
 _atom_site_fract_x
 _atom_site_fract_y
 _atom_site_fract_z
 _atom_site_occupancy
  Al  Al0  1  0.11054244  0.09672666  0.29682381  1
  Al  Al1  1  0.22192419  0.20285276  0.05921298  1
  Al  Al2  1  0.77114380  0.09825579  0.81794047  1
  Al  Al3  1  0.44435523  0.09685303  0.30573266  1
  Al  Al4  1  0.55490887  0.19921729  0.05586447  1
  Al  Al5  1  0.11480132  0.09344377  0.81589709  1
  Al  Al6  1  0.23184715  0.19830078  0.55868083  1
  Al  Al7  1  0.77451892  0.09561234  0.29133735  1
  Al  Al8  1  0.89429740  0.20303283  0.05451183  1
  Al  Al9  1  0.44696282  0.09963603  0.80938947  1
  Al  Al10  1  0.55099264  0.20404566  0.55618541  1
  Al  Al11  1  0.10735913  0.42474930  0.31428895  1
  Al  Al12  1  0.77821688  0.42781562  0.80430666  1
  Al  Al13  1  0.88021511  0.54198480  0.55747214  1
  Al  Al14  1  0.44594906  0.41920801  0.31599790  1
  Al  Al15  1  0.11013967  0.42525443  0.79790999  1
  Al  Al16  1  0.22655356  0.53634215  0.55729436  1
  Al  Al17  1  0.78473682  0.42454530  0.30118301  1
  Al  Al18  1  0.89303742  0.53194408  0.05654608  1
  Al  Al19  1  0.44789835  0.42086040  0.79053658  1
  Al  Al20  1  0.55660764  0.53754451  0.54170396  1
  Al  Al21  1  0.10654256  0.76859016  0.30288561  1
  Al  Al22  1  0.21330038  0.88620024  0.06293261  1
  Al  Al23  1  0.77752956  0.76038122  0.81609027  1
  Al  Al24  1  0.44024344  0.77146378  0.31542004  1
  Al  Al25  1  0.55313055  0.88318056  0.06321424  1
  Al  Al26  1  0.11382334  0.76191514  0.80475523  1
  Al  Al27  1  0.23088855  0.86888814  0.54528819  1
  Al  Al28  1  0.77846810  0.75988984  0.29720102  1
  Al  Al29  1  0.88743879  0.87535826  0.05510102  1
  Al  Al30  1  0.55541547  0.87313513  0.54564483  1
  Gd  Gd31  1  0.89847119  0.20053825  0.56099471  1
  Gd  Gd32  1  0.21721998  0.53581426  0.05582304  1
  Gd  Gd33  1  0.55330872  0.54177523  0.06691332  1
  Gd  Gd34  1  0.88659062  0.86559952  0.56092790  1
  Gd  Gd35  1  0.44121349  0.77206337  0.78940015  1
  N  N36  1  0.22284091  0.20161374  0.36975039  1
  N  N37  1  0.10958188  0.09986126  0.11205329  1
  N  N38  1  0.89082754  0.20690878  0.86099322  1
  N  N39  1  0.74957873  0.10806125  0.63658883  1
  N  N40  1  0.56040883  0.19808890  0.36963900  1
  N  N41  1  0.44181972  0.09899716  0.11919488  1
  N  N42  1  0.22415097  0.20796276  0.86876348  1
  N  N43  1  0.15371762  0.06901951  0.63206200  1
  N  N44  1  0.88817653  0.20232930  0.34208849  1
  N  N45  1  0.77537715  0.09574176  0.10251198  1
  N  N46  1  0.54890293  0.21184753  0.86898488  1
  N  N47  1  0.44766317  0.09114466  0.61742943  1
  N  N48  1  0.21721268  0.54242329  0.36447851  1
  N  N49  1  0.09862067  0.41122913  0.12996578  1
  N  N50  1  0.89200495  0.53574485  0.86763984  1
  N  N51  1  0.76310611  0.45013185  0.61858625  1
  N  N52  1  0.55889839  0.53577461  0.35137086  1
  N  N53  1  0.45551230  0.39569647  0.13692641  1
  N  N54  1  0.22435665  0.53446949  0.83579683  1
  N  N55  1  0.10692431  0.42572966  0.60950949  1
  N  N56  1  0.88489343  0.54229453  0.36905583  1
  N  N57  1  0.80381670  0.41366965  0.11826909  1
  N  N58  1  0.56214390  0.51786552  0.84914239  1
  N  N59  1  0.44735970  0.42429333  0.60119170  1
  N  N60  1  0.21273282  0.88060378  0.36160101  1
  N  N61  1  0.09838120  0.78848064  0.12143229  1
  N  N62  1  0.89281603  0.86803218  0.86170811  1
  N  N63  1  0.75589806  0.74887608  0.63088805  1
  N  N64  1  0.56135792  0.87659181  0.36015691  1
  N  N65  1  0.42603143  0.79853985  0.12750703  1
  N  N66  1  0.19881898  0.88215773  0.88016694  1
  N  N67  1  0.14392539  0.75084747  0.62038274  1
  N  N68  1  0.88377277  0.87530448  0.34228024  1
  N  N69  1  0.78077355  0.75592864  0.11075848  1
  N  N70  1  0.56705140  0.88970500  0.87978611  1
  N  N71  1  0.44929077  0.75790273  0.56974764  1
