# generated using pymatgen
data_TiZnN2
_symmetry_space_group_name_H-M   'P 1'
_cell_length_a   6.85812192
_cell_length_b   5.93193324
_cell_length_c   4.82369709
_cell_angle_alpha   90.00018146
_cell_angle_beta   89.99998905
_cell_angle_gamma   89.99988450
_symmetry_Int_Tables_number   1
_chemical_formula_structural   TiZnN2
_chemical_formula_sum   'Ti4 Zn4 N8'
_cell_volume   196.23726568
_cell_formula_units_Z   4
loop_
 _symmetry_equiv_pos_site_id
 _symmetry_equiv_pos_as_xyz
  1  'x, y, z'
loop_
 _atom_site_type_symbol
 _atom_site_label
 _atom_site_symmetry_multiplicity
 _atom_site_fract_x
 _atom_site_fract_y
 _atom_site_fract_z
 _atom_site_occupancy
  Ti  Ti0  1  -0.37125207  0.92086224  0.06459833  1
  Ti  Ti1  1  -0.12874784  0.42086234  0.06459882  1
  Ti  Ti2  1  -0.62874731  0.09024544  0.56459984  1
  Ti  Ti3  1  -0.87125262  0.59024558  0.56459955  1
  Zn  Zn4  1  -0.87851881  0.92194592  0.05664870  1
  Zn  Zn5  1  -0.12148011  0.08917368  0.55664611  1
  Zn  Zn6  1  -0.62148072  0.42194600  0.05664893  1
  Zn  Zn7  1  -0.37852060  0.58917341  0.55664548  1
  N  N8  1  -0.13386676  0.09544138  0.98831149  1
  N  N9  1  -0.86613349  0.91566617  0.48831280  1
  N  N10  1  -0.61444143  0.07789337  0.97180889  1
  N  N11  1  -0.88555846  0.57789294  0.97180889  1
  N  N12  1  -0.38555698  0.93321655  0.47180799  1
  N  N13  1  -0.11444288  0.43321664  0.47180811  1
  N  N14  1  -0.36613364  0.59544118  0.98831196  1
  N  N15  1  -0.63386628  0.41566604  0.48831340  1
