# generated using pymatgen
data_TiZnN2
_symmetry_space_group_name_H-M   'P 1'
_cell_length_a   6.61297519
_cell_length_b   5.74965986
_cell_length_c   5.27423151
_cell_angle_alpha   89.99949193
_cell_angle_beta   89.99997321
_cell_angle_gamma   90.00161991
_symmetry_Int_Tables_number   1
_chemical_formula_structural   TiZnN2
_chemical_formula_sum   'Ti4 Zn4 N8'
_cell_volume   200.53871862
_cell_formula_units_Z   4
loop_
 _symmetry_equiv_pos_site_id
 _symmetry_equiv_pos_as_xyz
  1  'x, y, z'
loop_
 _atom_site_type_symbol
 _atom_site_label
 _atom_site_symmetry_multiplicity
 _atom_site_fract_x
 _atom_site_fract_y
 _atom_site_fract_z
 _atom_site_occupancy
  Ti  Ti0  1  -0.37415802  0.92103553  -0.01526315  1
  Ti  Ti1  1  -0.12584453  0.42103405  -0.01526044  1
  Ti  Ti2  1  -0.62583983  0.09007580  0.48473767  1
  Ti  Ti3  1  -0.87415733  0.59007343  0.48473716  1
  Zn  Zn4  1  -0.87606465  0.91853781  -0.01641716  1
  Zn  Zn5  1  -0.12393519  0.09257754  0.48358007  1
  Zn  Zn6  1  -0.62393885  0.41853495  -0.01641829  1
  Zn  Zn7  1  -0.37606149  0.59257975  0.48358101  1
  N  N8  1  -0.13410642  0.09420663  0.09098439  1
  N  N9  1  -0.86590589  0.91687595  0.59098436  1
  N  N10  1  -0.61547070  0.07715347  0.11317520  1
  N  N11  1  -0.88451307  0.57716268  0.11320066  1
  N  N12  1  -0.38451672  0.93394846  0.61319989  1
  N  N13  1  -0.11547307  0.43395757  0.61317198  1
  N  N14  1  -0.36590266  0.59423083  0.09098757  1
  N  N15  1  -0.63411158  0.41690444  0.59098641  1
