# generated using pymatgen
data_TiZnN2
_symmetry_space_group_name_H-M   'P 1'
_cell_length_a   6.61165072
_cell_length_b   5.74903477
_cell_length_c   5.27621667
_cell_angle_alpha   89.99960223
_cell_angle_beta   89.99998144
_cell_angle_gamma   90.00059224
_symmetry_Int_Tables_number   1
_chemical_formula_structural   TiZnN2
_chemical_formula_sum   'Ti4 Zn4 N8'
_cell_volume   200.55221352
_cell_formula_units_Z   4
loop_
 _symmetry_equiv_pos_site_id
 _symmetry_equiv_pos_as_xyz
  1  'x, y, z'
loop_
 _atom_site_type_symbol
 _atom_site_label
 _atom_site_symmetry_multiplicity
 _atom_site_fract_x
 _atom_site_fract_y
 _atom_site_fract_z
 _atom_site_occupancy
  Ti  Ti0  1  0.37417263  -0.92104420  0.00313805  1
  Ti  Ti1  1  0.12582854  -0.42104495  0.00313851  1
  Ti  Ti2  1  0.62582758  -0.09006639  -0.49686115  1
  Ti  Ti3  1  0.87417120  -0.59006572  -0.49686097  1
  Zn  Zn4  1  0.87605999  -0.91851394  0.00428044  1
  Zn  Zn5  1  0.12394006  -0.09260016  -0.49571989  1
  Zn  Zn6  1  0.62394111  -0.41851316  0.00427990  1
  Zn  Zn7  1  0.37605879  -0.59260095  -0.49572042  1
  N  N8  1  0.13410803  -0.09423376  -0.10320415  1
  N  N9  1  0.86589211  -0.91687593  -0.60320358  1
  N  N10  1  0.61548188  -0.07715323  -0.12543322  1
  N  N11  1  0.88451645  -0.57715285  -0.12543258  1
  N  N12  1  0.38451803  -0.93395688  -0.62543365  1
  N  N13  1  0.11548376  -0.43395733  -0.62543328  1
  N  N14  1  0.36589099  -0.59423316  -0.10320537  1
  N  N15  1  0.63410885  -0.41687629  -0.60320486  1
