# generated using pymatgen
data_TiZnN2
_symmetry_space_group_name_H-M   'P 1'
_cell_length_a   6.61147891
_cell_length_b   5.74891863
_cell_length_c   5.27644771
_cell_angle_alpha   90.00008164
_cell_angle_beta   89.99998854
_cell_angle_gamma   89.99993175
_symmetry_Int_Tables_number   1
_chemical_formula_structural   TiZnN2
_chemical_formula_sum   'Ti4 Zn4 N8'
_cell_volume   200.55173189
_cell_formula_units_Z   4
loop_
 _symmetry_equiv_pos_site_id
 _symmetry_equiv_pos_as_xyz
  1  'x, y, z'
loop_
 _atom_site_type_symbol
 _atom_site_label
 _atom_site_symmetry_multiplicity
 _atom_site_fract_x
 _atom_site_fract_y
 _atom_site_fract_z
 _atom_site_occupancy
  Ti  Ti0  1  0.37417406  -0.92104288  -0.03243220  1
  Ti  Ti1  1  0.12582534  -0.42104427  -0.03243182  1
  Ti  Ti2  1  0.62582494  -0.09006549  -0.53243230  1
  Ti  Ti3  1  0.87417437  -0.59006722  -0.53243219  1
  Zn  Zn4  1  0.87605566  -0.91850520  -0.03360125  1
  Zn  Zn5  1  0.12394365  -0.09260846  -0.53360207  1
  Zn  Zn6  1  0.62394434  -0.41850584  -0.03360245  1
  Zn  Zn7  1  0.37605689  -0.59260934  -0.53360104  1
  N  N8  1  0.13410751  -0.09423254  -0.92607211  1
  N  N9  1  0.86589424  -0.91687920  -0.42607734  1
  N  N10  1  0.61548378  -0.07715375  -0.90383778  1
  N  N11  1  0.88451482  -0.57714922  -0.90383838  1
  N  N12  1  0.38451379  -0.93396113  -0.40383788  1
  N  N13  1  0.11548456  -0.43395688  -0.40383733  1
  N  N14  1  0.36589469  -0.59423051  -0.92607668  1
  N  N15  1  0.63410736  -0.41687698  -0.42607280  1
