# generated using pymatgen
data_TiZnN2
_symmetry_space_group_name_H-M   'P 1'
_cell_length_a   6.74055677
_cell_length_b   5.83699997
_cell_length_c   5.06033537
_cell_angle_alpha   89.99994552
_cell_angle_beta   90.00000152
_cell_angle_gamma   89.99991602
_symmetry_Int_Tables_number   1
_chemical_formula_structural   TiZnN2
_chemical_formula_sum   'Ti4 Zn4 N8'
_cell_volume   199.09702105
_cell_formula_units_Z   4
loop_
 _symmetry_equiv_pos_site_id
 _symmetry_equiv_pos_as_xyz
  1  'x, y, z'
loop_
 _atom_site_type_symbol
 _atom_site_label
 _atom_site_symmetry_multiplicity
 _atom_site_fract_x
 _atom_site_fract_y
 _atom_site_fract_z
 _atom_site_occupancy
  Ti  Ti0  1  -0.37254217  0.92071568  -0.03180175  1
  Ti  Ti1  1  -0.12745846  0.42071561  -0.03180137  1
  Ti  Ti2  1  -0.62745766  0.09039660  0.46819807  1
  Ti  Ti3  1  -0.87254166  0.59039669  0.46819814  1
  Zn  Zn4  1  -0.87710139  0.92086925  -0.02901915  1
  Zn  Zn5  1  -0.12289813  0.09023937  0.47098361  1
  Zn  Zn6  1  -0.62289818  0.42086938  -0.02901760  1
  Zn  Zn7  1  -0.37710251  0.59023923  0.47098344  1
  N  N8  1  -0.13398649  0.09445512  0.06222758  1
  N  N9  1  -0.86601300  0.91665682  0.56222685  1
  N  N10  1  -0.61474748  0.07776867  0.08221927  1
  N  N11  1  -0.88525243  0.57776811  0.08221929  1
  N  N12  1  -0.38525200  0.93334314  0.58221910  1
  N  N13  1  -0.11474770  0.43334328  0.58221910  1
  N  N14  1  -0.36601403  0.59445467  0.06222711  1
  N  N15  1  -0.63398672  0.41665726  0.56222710  1
