# generated using pymatgen
data_TiZnN2
_symmetry_space_group_name_H-M   'P 1'
_cell_length_a   6.62122687
_cell_length_b   5.75433698
_cell_length_c   5.26231113
_cell_angle_alpha   89.99938010
_cell_angle_beta   90.00010871
_cell_angle_gamma   89.99984856
_symmetry_Int_Tables_number   1
_chemical_formula_structural   TiZnN2
_chemical_formula_sum   'Ti4 Zn4 N8'
_cell_volume   200.49810953
_cell_formula_units_Z   4
loop_
 _symmetry_equiv_pos_site_id
 _symmetry_equiv_pos_as_xyz
  1  'x, y, z'
loop_
 _atom_site_type_symbol
 _atom_site_label
 _atom_site_symmetry_multiplicity
 _atom_site_fract_x
 _atom_site_fract_y
 _atom_site_fract_z
 _atom_site_occupancy
  Ti  Ti0  1  -0.37405457  0.92100736  -0.02741535  1
  Ti  Ti1  1  -0.12594549  0.42100691  -0.02741435  1
  Ti  Ti2  1  -0.62594445  0.09010260  0.47258316  1
  Ti  Ti3  1  -0.87405582  0.59010276  0.47258567  1
  Zn  Zn4  1  -0.87610266  0.91871025  -0.02835342  1
  Zn  Zn5  1  -0.12389474  0.09240510  0.47164734  1
  Zn  Zn6  1  -0.62389710  0.41871179  -0.02835392  1
  Zn  Zn7  1  -0.37610550  0.59240571  0.47164673  1
  N  N8  1  -0.13409212  0.09420331  0.07820385  1
  N  N9  1  -0.86590394  0.91691055  0.57820238  1
  N  N10  1  -0.61541424  0.07719304  0.10032875  1
  N  N11  1  -0.88458866  0.57719002  0.10032597  1
  N  N12  1  -0.38458630  0.93391975  0.60032546  1
  N  N13  1  -0.11541610  0.43391693  0.60033160  1
  N  N14  1  -0.36590582  0.59419836  0.07820320  1
  N  N15  1  -0.63409249  0.41690445  0.57820262  1
