# generated using pymatgen
data_TiZnN2
_symmetry_space_group_name_H-M   'P 1'
_cell_length_a   6.62148068
_cell_length_b   5.75461620
_cell_length_c   5.26191107
_cell_angle_alpha   90.00053824
_cell_angle_beta   89.99981613
_cell_angle_gamma   89.99957143
_symmetry_Int_Tables_number   1
_chemical_formula_structural   TiZnN2
_chemical_formula_sum   'Ti4 Zn4 N8'
_cell_volume   200.50028027
_cell_formula_units_Z   4
loop_
 _symmetry_equiv_pos_site_id
 _symmetry_equiv_pos_as_xyz
  1  'x, y, z'
loop_
 _atom_site_type_symbol
 _atom_site_label
 _atom_site_symmetry_multiplicity
 _atom_site_fract_x
 _atom_site_fract_y
 _atom_site_fract_z
 _atom_site_occupancy
  Ti  Ti0  1  -0.37404999  0.92100492  0.06874207  1
  Ti  Ti1  1  -0.12594937  0.42100457  0.06874571  1
  Ti  Ti2  1  -0.62594917  0.09010383  0.56874498  1
  Ti  Ti3  1  -0.87405189  0.59010523  0.56874655  1
  Zn  Zn4  1  -0.87610373  0.91871177  0.06967138  1
  Zn  Zn5  1  -0.12389566  0.09240337  0.56967044  1
  Zn  Zn6  1  -0.62389477  0.41871287  0.06966992  1
  Zn  Zn7  1  -0.37610633  0.59240401  0.56966989  1
  N  N8  1  -0.13409359  0.09420456  0.96313391  1
  N  N9  1  -0.86590450  0.91690634  0.46313469  1
  N  N10  1  -0.61541209  0.07719403  0.94101146  1
  N  N11  1  -0.88459001  0.57719278  0.94101565  1
  N  N12  1  -0.38458972  0.93391775  0.44101444  1
  N  N13  1  -0.11541084  0.43391651  0.44101267  1
  N  N14  1  -0.36590444  0.59420149  0.96313437  1
  N  N15  1  -0.63409392  0.41690484  0.46313483  1
