# generated using pymatgen
data_TiZnN2
_symmetry_space_group_name_H-M   'P 1'
_cell_length_a   6.95677895
_cell_length_b   6.01873713
_cell_length_c   4.60070841
_cell_angle_alpha   90.00010658
_cell_angle_beta   90.00002271
_cell_angle_gamma   90.00001862
_symmetry_Int_Tables_number   1
_chemical_formula_structural   TiZnN2
_chemical_formula_sum   'Ti4 Zn4 N8'
_cell_volume   192.63637101
_cell_formula_units_Z   4
loop_
 _symmetry_equiv_pos_site_id
 _symmetry_equiv_pos_as_xyz
  1  'x, y, z'
loop_
 _atom_site_type_symbol
 _atom_site_label
 _atom_site_symmetry_multiplicity
 _atom_site_fract_x
 _atom_site_fract_y
 _atom_site_fract_z
 _atom_site_occupancy
  Ti  Ti0  1  0.37040514  -0.92163139  -0.05259244  1
  Ti  Ti1  1  0.12959474  -0.42163070  -0.05259143  1
  Ti  Ti2  1  0.62959317  -0.08947680  -0.55259154  1
  Ti  Ti3  1  0.87040645  -0.58947594  -0.55259309  1
  Zn  Zn4  1  0.87999274  -0.92163422  -0.03991990  1
  Zn  Zn5  1  0.12000590  -0.08948589  -0.53992554  1
  Zn  Zn6  1  0.62000724  -0.42163349  -0.03992505  1
  Zn  Zn7  1  0.37999420  -0.58948522  -0.53992047  1
  N  N8  1  0.13360417  -0.09688867  -1.00027198  1
  N  N9  1  0.86639611  -0.91421767  -0.50027306  1
  N  N10  1  0.61434739  -0.07726722  -0.98857613  1
  N  N11  1  0.88565228  -0.57726766  -0.98857529  1
  N  N12  1  0.38565007  -0.93384263  -0.48857483  1
  N  N13  1  0.11434953  -0.43384309  -0.48857569  1
  N  N14  1  0.36639642  -0.59688977  -1.00027226  1
  N  N15  1  0.63360445  -0.41421854  -0.50027245  1
