# generated using pymatgen
data_TiZnN2
_symmetry_space_group_name_H-M   'P 1'
_cell_length_a   6.85824472
_cell_length_b   5.93190749
_cell_length_c   4.82355613
_cell_angle_alpha   89.99984512
_cell_angle_beta   89.99999164
_cell_angle_gamma   89.99997592
_symmetry_Int_Tables_number   1
_chemical_formula_structural   TiZnN2
_chemical_formula_sum   'Ti4 Zn4 N8'
_cell_volume   196.23419304
_cell_formula_units_Z   4
loop_
 _symmetry_equiv_pos_site_id
 _symmetry_equiv_pos_as_xyz
  1  'x, y, z'
loop_
 _atom_site_type_symbol
 _atom_site_label
 _atom_site_symmetry_multiplicity
 _atom_site_fract_x
 _atom_site_fract_y
 _atom_site_fract_z
 _atom_site_occupancy
  Ti  Ti0  1  0.37125143  -0.92086447  0.02327052  1
  Ti  Ti1  1  0.12874779  -0.42086347  0.02327072  1
  Ti  Ti2  1  0.62874797  -0.09024409  -0.47672826  1
  Ti  Ti3  1  0.87125244  -0.59024355  -0.47672810  1
  Zn  Zn4  1  0.87851954  -0.92194979  0.01530105  1
  Zn  Zn5  1  0.12147891  -0.08916979  -0.48470196  1
  Zn  Zn6  1  0.62148061  -0.42194989  0.01530049  1
  Zn  Zn7  1  0.37852113  -0.58916972  -0.48470125  1
  N  N8  1  0.13386608  -0.09544017  -0.05299559  1
  N  N9  1  0.86613370  -0.91566691  -0.55299440  1
  N  N10  1  0.61444212  -0.07789083  -0.06949290  1
  N  N11  1  0.88555830  -0.57789086  -0.06949299  1
  N  N12  1  0.38555644  -0.93321904  -0.56949373  1
  N  N13  1  0.11444360  -0.43321882  -0.56949380  1
  N  N14  1  0.36613355  -0.59544025  -0.05299583  1
  N  N15  1  0.63386637  -0.41566724  -0.55299495  1
