# generated using pymatgen
data_TiZnN2
_symmetry_space_group_name_H-M   'P 1'
_cell_length_a   6.74050977
_cell_length_b   5.83698753
_cell_length_c   5.06033126
_cell_angle_alpha   90.00004994
_cell_angle_beta   89.99998472
_cell_angle_gamma   89.99995085
_symmetry_Int_Tables_number   1
_chemical_formula_structural   TiZnN2
_chemical_formula_sum   'Ti4 Zn4 N8'
_cell_volume   199.09504701
_cell_formula_units_Z   4
loop_
 _symmetry_equiv_pos_site_id
 _symmetry_equiv_pos_as_xyz
  1  'x, y, z'
loop_
 _atom_site_type_symbol
 _atom_site_label
 _atom_site_symmetry_multiplicity
 _atom_site_fract_x
 _atom_site_fract_y
 _atom_site_fract_z
 _atom_site_occupancy
  Ti  Ti0  1  0.37254112  -0.92071458  -0.07311015  1
  Ti  Ti1  1  0.12746078  -0.42071928  -0.07311058  1
  Ti  Ti2  1  0.62745949  -0.09039790  -0.57310997  1
  Ti  Ti3  1  0.87253838  -0.59039373  -0.57310979  1
  Zn  Zn4  1  0.87710266  -0.92087332  -0.07030553  1
  Zn  Zn5  1  0.12289658  -0.09023546  -0.57030513  1
  Zn  Zn6  1  0.62289718  -0.42087376  -0.07030492  1
  Zn  Zn7  1  0.37710378  -0.59023488  -0.57030440  1
  N  N8  1  0.13398710  -0.09445854  -0.97908064  1
  N  N9  1  0.86601215  -0.91665336  -0.47908028  1
  N  N10  1  0.61474654  -0.07777102  -0.95909447  1
  N  N11  1  0.88525371  -0.57777099  -0.95909491  1
  N  N12  1  0.38525293  -0.93334035  -0.45909472  1
  N  N13  1  0.11474703  -0.43334023  -0.45909462  1
  N  N14  1  0.36601187  -0.59445902  -0.97908240  1
  N  N15  1  0.63398872  -0.41665247  -0.47908239  1
