# generated using pymatgen
data_TiZnN2
_symmetry_space_group_name_H-M   'P 1'
_cell_length_a   6.67238841
_cell_length_b   5.78757389
_cell_length_c   5.18085035
_cell_angle_alpha   89.99996227
_cell_angle_beta   90.00000986
_cell_angle_gamma   90.00042741
_symmetry_Int_Tables_number   1
_chemical_formula_structural   TiZnN2
_chemical_formula_sum   'Ti4 Zn4 N8'
_cell_volume   200.06859188
_cell_formula_units_Z   4
loop_
 _symmetry_equiv_pos_site_id
 _symmetry_equiv_pos_as_xyz
  1  'x, y, z'
loop_
 _atom_site_type_symbol
 _atom_site_label
 _atom_site_symmetry_multiplicity
 _atom_site_fract_x
 _atom_site_fract_y
 _atom_site_fract_z
 _atom_site_occupancy
  Ti  Ti0  1  0.37339258  -0.92086009  -0.07609792  1
  Ti  Ti1  1  0.12660485  -0.42085570  -0.07610228  1
  Ti  Ti2  1  0.62660951  -0.09025741  -0.57609894  1
  Ti  Ti3  1  0.87339199  -0.59025495  -0.57610041  1
  Zn  Zn4  1  0.87646280  -0.91973427  -0.07561473  1
  Zn  Zn5  1  0.12353660  -0.09137433  -0.57561446  1
  Zn  Zn6  1  0.62353803  -0.41973425  -0.07561435  1
  Zn  Zn7  1  0.37646217  -0.59137543  -0.57561459  1
  N  N8  1  0.13404513  -0.09422684  -0.97486214  1
  N  N9  1  0.86595632  -0.91688412  -0.47486126  1
  N  N10  1  0.61507781  -0.07746339  -0.95350364  1
  N  N11  1  0.88492049  -0.57746319  -0.95350412  1
  N  N12  1  0.38491910  -0.93364534  -0.45350056  1
  N  N13  1  0.11508144  -0.43364669  -0.45350396  1
  N  N14  1  0.36595719  -0.59422856  -0.97486013  1
  N  N15  1  0.63404401  -0.41688431  -0.47486086  1
