# generated using pymatgen
data_TiZnN2
_symmetry_space_group_name_H-M   'P 1'
_cell_length_a   6.80186698
_cell_length_b   5.88529438
_cell_length_c   4.94124102
_cell_angle_alpha   90.00014335
_cell_angle_beta   89.99998961
_cell_angle_gamma   89.99983084
_symmetry_Int_Tables_number   1
_chemical_formula_structural   TiZnN2
_chemical_formula_sum   'Ti4 Zn4 N8'
_cell_volume   197.80276740
_cell_formula_units_Z   4
loop_
 _symmetry_equiv_pos_site_id
 _symmetry_equiv_pos_as_xyz
  1  'x, y, z'
loop_
 _atom_site_type_symbol
 _atom_site_label
 _atom_site_symmetry_multiplicity
 _atom_site_fract_x
 _atom_site_fract_y
 _atom_site_fract_z
 _atom_site_occupancy
  Ti  Ti0  1  0.37183426  -0.92071607  -0.06916691  1
  Ti  Ti1  1  0.12816369  -0.42071408  -0.06916666  1
  Ti  Ti2  1  0.62816523  -0.09039331  -0.56916723  1
  Ti  Ti3  1  0.87183661  -0.59039435  -0.56916823  1
  Zn  Zn4  1  0.87780160  -0.92159787  -0.06387164  1
  Zn  Zn5  1  0.12219751  -0.08951855  -0.56386857  1
  Zn  Zn6  1  0.62219964  -0.42159778  -0.06386936  1
  Zn  Zn7  1  0.37780203  -0.58951792  -0.56387035  1
  N  N8  1  0.13393626  -0.09487498  -0.98337219  1
  N  N9  1  0.86606372  -0.91623391  -0.48337263  1
  N  N10  1  0.61455032  -0.07792158  -0.96499700  1
  N  N11  1  0.88545021  -0.57792190  -0.96499687  1
  N  N12  1  0.38544799  -0.93318911  -0.46499680  1
  N  N13  1  0.11455084  -0.43318847  -0.46499683  1
  N  N14  1  0.36606307  -0.59487521  -0.98337179  1
  N  N15  1  0.63393703  -0.41623378  -0.48337247  1
