# generated using pymatgen
data_TiZnN2
_symmetry_space_group_name_H-M   'P 1'
_cell_length_a   6.61288088
_cell_length_b   5.74971608
_cell_length_c   5.27421186
_cell_angle_alpha   90.00026321
_cell_angle_beta   89.99989918
_cell_angle_gamma   90.00012819
_symmetry_Int_Tables_number   1
_chemical_formula_structural   TiZnN2
_chemical_formula_sum   'Ti4 Zn4 N8'
_cell_volume   200.53707240
_cell_formula_units_Z   4
loop_
 _symmetry_equiv_pos_site_id
 _symmetry_equiv_pos_as_xyz
  1  'x, y, z'
loop_
 _atom_site_type_symbol
 _atom_site_label
 _atom_site_symmetry_multiplicity
 _atom_site_fract_x
 _atom_site_fract_y
 _atom_site_fract_z
 _atom_site_occupancy
  Ti  Ti0  1  0.37415759  -0.92103338  -0.05657658  1
  Ti  Ti1  1  0.12584528  -0.42103096  -0.05657589  1
  Ti  Ti2  1  0.62584377  -0.09008060  -0.55657462  1
  Ti  Ti3  1  0.87415405  -0.59007738  -0.55657419  1
  Zn  Zn4  1  0.87606391  -0.91853563  -0.05771940  1
  Zn  Zn5  1  0.12393524  -0.09257962  -0.55772181  1
  Zn  Zn6  1  0.62393572  -0.41853385  -0.05772007  1
  Zn  Zn7  1  0.37606531  -0.59257926  -0.55772197  1
  N  N8  1  0.13410674  -0.09421239  -0.95032686  1
  N  N9  1  0.86590346  -0.91687604  -0.45032552  1
  N  N10  1  0.61547229  -0.07715499  -0.92813977  1
  N  N11  1  0.88451761  -0.57716198  -0.92811944  1
  N  N12  1  0.38451558  -0.93394747  -0.42811380  1
  N  N13  1  0.11547279  -0.43395531  -0.42813388  1
  N  N14  1  0.36590136  -0.59423002  -0.95032696  1
  N  N15  1  0.63410930  -0.41690003  -0.45032655  1
