# generated using pymatgen
data_TiZnN2
_symmetry_space_group_name_H-M   'P 1'
_cell_length_a   6.61152588
_cell_length_b   5.74913169
_cell_length_c   5.27630887
_cell_angle_alpha   89.99963432
_cell_angle_beta   89.99998348
_cell_angle_gamma   90.00003672
_symmetry_Int_Tables_number   1
_chemical_formula_structural   TiZnN2
_chemical_formula_sum   'Ti4 Zn4 N8'
_cell_volume   200.55531195
_cell_formula_units_Z   4
loop_
 _symmetry_equiv_pos_site_id
 _symmetry_equiv_pos_as_xyz
  1  'x, y, z'
loop_
 _atom_site_type_symbol
 _atom_site_label
 _atom_site_symmetry_multiplicity
 _atom_site_fract_x
 _atom_site_fract_y
 _atom_site_fract_z
 _atom_site_occupancy
  Ti  Ti0  1  -0.37417346  0.92104283  0.00890145  1
  Ti  Ti1  1  -0.12582653  0.42104270  0.00890116  1
  Ti  Ti2  1  -0.62582657  0.09006701  0.50890199  1
  Ti  Ti3  1  -0.87417336  0.59006679  0.50890102  1
  Zn  Zn4  1  -0.87605273  0.91850397  0.00770926  1
  Zn  Zn5  1  -0.12394394  0.09261121  0.50770792  1
  Zn  Zn6  1  -0.62394744  0.41850312  0.00770939  1
  Zn  Zn7  1  -0.37605601  0.59261058  0.50770787  1
  N  N8  1  -0.13410590  0.09423065  0.11523422  1
  N  N9  1  -0.86589714  0.91687957  0.61522965  1
  N  N10  1  -0.61548204  0.07715126  0.13748504  1
  N  N11  1  -0.88451765  0.57715137  0.13748572  1
  N  N12  1  -0.38451514  0.93395779  0.63748313  1
  N  N13  1  -0.11548447  0.43395793  0.63748224  1
  N  N14  1  -0.36589428  0.59423156  0.11523408  1
  N  N15  1  -0.63410334  0.41688053  0.61522983  1
