# generated using pymatgen
data_TiZnN2
_symmetry_space_group_name_H-M   'P 1'
_cell_length_a   6.90945000
_cell_length_b   5.97631278
_cell_length_c   4.70978519
_cell_angle_alpha   89.99986708
_cell_angle_beta   90.00001232
_cell_angle_gamma   90.00018459
_symmetry_Int_Tables_number   1
_chemical_formula_structural   TiZnN2
_chemical_formula_sum   'Ti4 Zn4 N8'
_cell_volume   194.48132168
_cell_formula_units_Z   4
loop_
 _symmetry_equiv_pos_site_id
 _symmetry_equiv_pos_as_xyz
  1  'x, y, z'
loop_
 _atom_site_type_symbol
 _atom_site_label
 _atom_site_symmetry_multiplicity
 _atom_site_fract_x
 _atom_site_fract_y
 _atom_site_fract_z
 _atom_site_occupancy
  Ti  Ti0  1  0.37078367  -0.92116875  0.01784796  1
  Ti  Ti1  1  0.12921748  -0.42116943  0.01784753  1
  Ti  Ti2  1  0.62921608  -0.08993834  -0.48215196  1
  Ti  Ti3  1  0.87078296  -0.58993841  -0.48215219  1
  Zn  Zn4  1  0.87924813  -0.92194964  0.00724101  1
  Zn  Zn5  1  0.12075163  -0.08917112  -0.49275797  1
  Zn  Zn6  1  0.62075202  -0.42194946  0.00724138  1
  Zn  Zn7  1  0.37924808  -0.58917132  -0.49275747  1
  N  N8  1  0.13375408  -0.09612059  -0.04734349  1
  N  N9  1  0.86624621  -0.91498643  -0.54734285  1
  N  N10  1  0.61438867  -0.07767262  -0.06167166  1
  N  N11  1  0.88561124  -0.57767279  -0.06167171  1
  N  N12  1  0.38560958  -0.93343678  -0.56167210  1
  N  N13  1  0.11439040  -0.43343655  -0.56167203  1
  N  N14  1  0.36624551  -0.59612039  -0.04734334  1
  N  N15  1  0.63375427  -0.41498626  -0.54734296  1
