# generated using pymatgen
data_Sc11Al25N36
_symmetry_space_group_name_H-M   'P 1'
_cell_length_a   9.86749181
_cell_length_b   9.83889733
_cell_length_c   10.18584219
_cell_angle_alpha   90.04880283
_cell_angle_beta   89.78482630
_cell_angle_gamma   60.19312393
_symmetry_Int_Tables_number   1
_chemical_formula_structural   Sc11Al25N36
_chemical_formula_sum   'Sc11 Al25 N36'
_cell_volume   858.05960219
_cell_formula_units_Z   1
loop_
 _symmetry_equiv_pos_site_id
 _symmetry_equiv_pos_as_xyz
  1  'x, y, z'
loop_
 _atom_site_type_symbol
 _atom_site_label
 _atom_site_symmetry_multiplicity
 _atom_site_fract_x
 _atom_site_fract_y
 _atom_site_fract_z
 _atom_site_occupancy
  Al  Al0  1  0.11308334  0.09552668  0.29652457  1
  Al  Al1  1  0.22778704  0.19844560  0.05971497  1
  Al  Al2  1  0.44070073  0.09631143  0.30468168  1
  Al  Al3  1  0.55020931  0.21048903  0.06309307  1
  Al  Al4  1  0.11230795  0.09923735  0.82098628  1
  Al  Al5  1  0.76921648  0.10538172  0.30302201  1
  Al  Al6  1  0.88725810  0.21021461  0.06377060  1
  Al  Al7  1  0.44344094  0.09665430  0.81443640  1
  Al  Al8  1  0.55990212  0.20035509  0.55815194  1
  Al  Al9  1  0.11643006  0.41552964  0.30248006  1
  Al  Al10  1  0.77290848  0.43008538  0.81162514  1
  Al  Al11  1  0.45097188  0.42234355  0.31102814  1
  Al  Al12  1  0.55554388  0.53779653  0.06271875  1
  Al  Al13  1  0.11442217  0.42282560  0.81126981  1
  Al  Al14  1  0.77570207  0.42423064  0.30474008  1
  Al  Al15  1  0.44903485  0.42725101  0.80767215  1
  Al  Al16  1  0.55962168  0.53709568  0.56074613  1
  Al  Al17  1  0.22736069  0.87326313  0.05392150  1
  Al  Al18  1  0.77325931  0.76501185  0.80235437  1
  Al  Al19  1  0.87658101  0.88313257  0.55792945  1
  Al  Al20  1  0.44083486  0.76751100  0.30786321  1
  Al  Al21  1  0.54848792  0.87601142  0.05752739  1
  Al  Al22  1  0.10719599  0.76147494  0.80490299  1
  Al  Al23  1  0.45218598  0.75657843  0.81426674  1
  Al  Al24  1  0.55311174  0.87677262  0.56550957  1
  Sc  Sc25  1  0.77216832  0.09960095  0.81945888  1
  Sc  Sc26  1  0.88748369  0.20254385  0.55652808  1
  Sc  Sc27  1  0.23335166  0.19525526  0.55790743  1
  Sc  Sc28  1  0.23334588  0.53319653  0.05874628  1
  Sc  Sc29  1  0.88722417  0.53626727  0.57324280  1
  Sc  Sc30  1  0.23045419  0.53197541  0.57112376  1
  Sc  Sc31  1  0.88448161  0.53655941  0.05881150  1
  Sc  Sc32  1  0.11487222  0.76313507  0.31944998  1
  Sc  Sc33  1  0.23052635  0.87139176  0.57410982  1
  Sc  Sc34  1  0.76588096  0.76356633  0.32440959  1
  Sc  Sc35  1  0.88636393  0.87374594  0.06692104  1
  N  N36  1  0.22262683  0.20193998  0.34839082  1
  N  N37  1  0.11296197  0.09199079  0.10740473  1
  N  N38  1  0.89642245  0.21834992  0.87508376  1
  N  N39  1  0.76711208  0.09021579  0.61389767  1
  N  N40  1  0.55365726  0.20503287  0.36598880  1
  N  N41  1  0.44561225  0.09299005  0.11563384  1
  N  N42  1  0.22599048  0.20418217  0.87002831  1
  N  N43  1  0.10915652  0.09805510  0.63681340  1
  N  N44  1  0.89003726  0.20444342  0.34588032  1
  N  N45  1  0.76582760  0.11315184  0.11120893  1
  N  N46  1  0.53213052  0.21987253  0.87682494  1
  N  N47  1  0.46344296  0.08724618  0.62742158  1
  N  N48  1  0.23293217  0.51633762  0.35752148  1
  N  N49  1  0.12013940  0.40972747  0.11464920  1
  N  N50  1  0.88565202  0.54243905  0.84447394  1
  N  N51  1  0.76079657  0.42904348  0.62719393  1
  N  N52  1  0.55423890  0.54289473  0.36871875  1
  N  N53  1  0.46324909  0.41998289  0.12487876  1
  N  N54  1  0.22525211  0.54016866  0.84391808  1
  N  N55  1  0.11729887  0.41750302  0.62862930  1
  N  N56  1  0.90009453  0.51588599  0.35811428  1
  N  N57  1  0.76570412  0.42290544  0.11907537  1
  N  N58  1  0.55465306  0.53880246  0.87318016  1
  N  N59  1  0.46993960  0.41383624  0.62037270  1
  N  N60  1  0.22940129  0.88702988  0.36452923  1
  N  N61  1  0.12321879  0.76886769  0.11334497  1
  N  N62  1  0.89503788  0.85521303  0.85989156  1
  N  N63  1  0.76666428  0.77975537  0.60948864  1
  N  N64  1  0.52831061  0.88869377  0.37710234  1
  N  N65  1  0.44368106  0.76243586  0.11516830  1
  N  N66  1  0.22506792  0.86980969  0.86037371  1
  N  N67  1  0.08852543  0.77319024  0.61291438  1
  N  N68  1  0.87501627  0.89582443  0.36577227  1
  N  N69  1  0.75433480  0.76984011  0.11922007  1
  N  N70  1  0.55527134  0.87407002  0.86782979  1
  N  N71  1  0.46950077  0.74781896  0.62738574  1
