# generated using pymatgen
data_Sc11Al25N36
_symmetry_space_group_name_H-M   'P 1'
_cell_length_a   10.03911446
_cell_length_b   10.00206617
_cell_length_c   9.74301232
_cell_angle_alpha   90.05485980
_cell_angle_beta   90.05776575
_cell_angle_gamma   60.34713026
_symmetry_Int_Tables_number   1
_chemical_formula_structural   Sc11Al25N36
_chemical_formula_sum   'Sc11 Al25 N36'
_cell_volume   850.19246874
_cell_formula_units_Z   1
loop_
 _symmetry_equiv_pos_site_id
 _symmetry_equiv_pos_as_xyz
  1  'x, y, z'
loop_
 _atom_site_type_symbol
 _atom_site_label
 _atom_site_symmetry_multiplicity
 _atom_site_fract_x
 _atom_site_fract_y
 _atom_site_fract_z
 _atom_site_occupancy
  Al  Al0  1  0.11616983  0.09451525  0.36533673  1
  Al  Al1  1  0.23215226  0.19163873  0.12215955  1
  Al  Al2  1  0.44645521  0.09319750  0.37345934  1
  Al  Al3  1  0.55842348  0.20730413  0.13071433  1
  Al  Al4  1  0.11080733  0.09655817  0.89096538  1
  Al  Al5  1  0.76799531  0.09928500  0.38423857  1
  Al  Al6  1  0.88195792  0.20744897  0.13495933  1
  Al  Al7  1  0.44161140  0.09590967  0.88522457  1
  Al  Al8  1  0.55173242  0.20406187  0.62499723  1
  Al  Al9  1  0.11925789  0.41474083  0.31723116  1
  Al  Al10  1  0.77419340  0.42584559  0.88300372  1
  Al  Al11  1  0.45430010  0.42134877  0.37828013  1
  Al  Al12  1  0.55599564  0.53743765  0.12766935  1
  Al  Al13  1  0.11362184  0.42299876  0.84812507  1
  Al  Al14  1  0.77207776  0.42949954  0.37308044  1
  Al  Al15  1  0.44970586  0.42646925  0.87809623  1
  Al  Al16  1  0.55816715  0.53894272  0.62791847  1
  Al  Al17  1  0.23097996  0.87459097  0.12976012  1
  Al  Al18  1  0.76644942  0.76374823  0.88253457  1
  Al  Al19  1  0.88184638  0.87156470  0.63563162  1
  Al  Al20  1  0.44840449  0.76085826  0.37779233  1
  Al  Al21  1  0.54191500  0.87798388  0.12678000  1
  Al  Al22  1  0.11579675  0.76355248  0.88591609  1
  Al  Al23  1  0.44424574  0.76139309  0.87969255  1
  Al  Al24  1  0.55774099  0.87461120  0.63066375  1
  Sc  Sc25  1  0.76965657  0.10632433  0.85749246  1
  Sc  Sc26  1  0.88919352  0.20908069  0.60829997  1
  Sc  Sc27  1  0.23470328  0.19514099  0.62396904  1
  Sc  Sc28  1  0.23671995  0.53061129  0.10460518  1
  Sc  Sc29  1  0.88081641  0.54532163  0.62235766  1
  Sc  Sc30  1  0.22847721  0.53879552  0.61715026  1
  Sc  Sc31  1  0.88559651  0.53338448  0.10486563  1
  Sc  Sc32  1  0.10609640  0.76477479  0.35778533  1
  Sc  Sc33  1  0.22524553  0.87002933  0.61885425  1
  Sc  Sc34  1  0.76801627  0.76734424  0.36486660  1
  Sc  Sc35  1  0.87869845  0.88640381  0.10615858  1
  N  N36  1  0.23024850  0.19858472  0.32778840  1
  N  N37  1  0.10796874  0.09399678  0.09003453  1
  N  N38  1  0.90273599  0.21676663  0.82836661  1
  N  N39  1  0.76719146  0.08677200  0.59087307  1
  N  N40  1  0.55597683  0.20615784  0.32737295  1
  N  N41  1  0.44861045  0.09412576  0.08044027  1
  N  N42  1  0.22631682  0.19611758  0.85044840  1
  N  N43  1  0.11559175  0.09254300  0.55734422  1
  N  N44  1  0.88412580  0.20625130  0.33597033  1
  N  N45  1  0.76421942  0.11982228  0.07337192  1
  N  N46  1  0.52777339  0.21804934  0.81989066  1
  N  N47  1  0.46592424  0.08225422  0.56757930  1
  N  N48  1  0.23599006  0.51639039  0.34187004  1
  N  N49  1  0.12390520  0.40449856  0.10181189  1
  N  N50  1  0.88187490  0.54162113  0.85704227  1
  N  N51  1  0.75736837  0.44005866  0.56560826  1
  N  N52  1  0.55316166  0.54213866  0.32259965  1
  N  N53  1  0.46975274  0.41494251  0.07264811  1
  N  N54  1  0.22685459  0.54283413  0.85616365  1
  N  N55  1  0.11210054  0.42599511  0.64138389  1
  N  N56  1  0.90152931  0.51977812  0.33810590  1
  N  N57  1  0.76589180  0.41661349  0.07883673  1
  N  N58  1  0.55635851  0.53943661  0.82610400  1
  N  N59  1  0.46819426  0.41657469  0.57348096  1
  N  N60  1  0.23578285  0.87706484  0.32838446  1
  N  N61  1  0.12039671  0.77274731  0.08792699  1
  N  N62  1  0.89575408  0.85608330  0.84263731  1
  N  N63  1  0.76590818  0.78058665  0.58564380  1
  N  N64  1  0.53284384  0.88343288  0.31970233  1
  N  N65  1  0.44458511  0.75907593  0.07499605  1
  N  N66  1  0.22162008  0.87590424  0.84013233  1
  N  N67  1  0.08644385  0.77305494  0.57815668  1
  N  N68  1  0.87125933  0.89797258  0.32225743  1
  N  N69  1  0.75039606  0.77352881  0.08100514  1
  N  N70  1  0.55001874  0.87638877  0.82902134  1
  N  N71  1  0.46528745  0.75190763  0.57470966  1
