# generated using pymatgen
data_Sc11Al25N36
_symmetry_space_group_name_H-M   'P 1'
_cell_length_a   10.15275799
_cell_length_b   10.10050570
_cell_length_c   9.41600278
_cell_angle_alpha   90.05590202
_cell_angle_beta   90.04279942
_cell_angle_gamma   60.35149261
_symmetry_Int_Tables_number   1
_chemical_formula_structural   Sc11Al25N36
_chemical_formula_sum   'Sc11 Al25 N36'
_cell_volume   839.17295729
_cell_formula_units_Z   1
loop_
 _symmetry_equiv_pos_site_id
 _symmetry_equiv_pos_as_xyz
  1  'x, y, z'
loop_
 _atom_site_type_symbol
 _atom_site_label
 _atom_site_symmetry_multiplicity
 _atom_site_fract_x
 _atom_site_fract_y
 _atom_site_fract_z
 _atom_site_occupancy
  Al  Al0  1  0.11627553  0.09438413  0.35782578  1
  Al  Al1  1  0.23180318  0.19394704  0.11560794  1
  Al  Al2  1  0.44675074  0.09302747  0.36867495  1
  Al  Al3  1  0.55768654  0.20820580  0.12811604  1
  Al  Al4  1  0.11071446  0.09613610  0.88941417  1
  Al  Al5  1  0.76742477  0.10015792  0.37999630  1
  Al  Al6  1  0.88092198  0.20808463  0.13112210  1
  Al  Al7  1  0.44226925  0.09576778  0.88286219  1
  Al  Al8  1  0.55145736  0.20392534  0.62168780  1
  Al  Al9  1  0.11944716  0.41517303  0.32234175  1
  Al  Al10  1  0.77465256  0.42632641  0.87960972  1
  Al  Al11  1  0.45446163  0.42207126  0.37626872  1
  Al  Al12  1  0.55529080  0.53811646  0.12410873  1
  Al  Al13  1  0.11416986  0.42148637  0.85137481  1
  Al  Al14  1  0.77094067  0.42957753  0.36917169  1
  Al  Al15  1  0.44972214  0.42645588  0.87361335  1
  Al  Al16  1  0.55862951  0.53897581  0.62662850  1
  Al  Al17  1  0.23180561  0.87273137  0.12518297  1
  Al  Al18  1  0.76757802  0.76247133  0.87676052  1
  Al  Al19  1  0.88093004  0.87244155  0.63101833  1
  Al  Al20  1  0.44882390  0.76045936  0.37618357  1
  Al  Al21  1  0.54201529  0.87735574  0.12215337  1
  Al  Al22  1  0.11509947  0.76311937  0.87877599  1
  Al  Al23  1  0.44474952  0.76090785  0.87535039  1
  Al  Al24  1  0.55762060  0.87478092  0.62947107  1
  Sc  Sc25  1  0.76898319  0.10666344  0.85363204  1
  Sc  Sc26  1  0.88951954  0.20863892  0.60378911  1
  Sc  Sc27  1  0.23421990  0.19582161  0.61583913  1
  Sc  Sc28  1  0.23654758  0.53079743  0.10224815  1
  Sc  Sc29  1  0.88420364  0.54321807  0.61314540  1
  Sc  Sc30  1  0.22779955  0.53754430  0.61153428  1
  Sc  Sc31  1  0.88652011  0.53309100  0.10330665  1
  Sc  Sc32  1  0.10555539  0.76561620  0.35420828  1
  Sc  Sc33  1  0.22540829  0.87075569  0.61345709  1
  Sc  Sc34  1  0.76625558  0.76880541  0.35899193  1
  Sc  Sc35  1  0.87918580  0.88567998  0.10190737  1
  N  N36  1  0.22982155  0.20094593  0.33193475  1
  N  N37  1  0.10829188  0.09406807  0.09743202  1
  N  N38  1  0.90266516  0.21584727  0.83404734  1
  N  N39  1  0.76661718  0.08786919  0.59389926  1
  N  N40  1  0.55539590  0.20704086  0.33146173  1
  N  N41  1  0.44875397  0.09468708  0.08527668  1
  N  N42  1  0.22698640  0.19480368  0.85504102  1
  N  N43  1  0.11443222  0.09314033  0.55922806  1
  N  N44  1  0.88283745  0.20687588  0.33838748  1
  N  N45  1  0.76372827  0.11907165  0.07816904  1
  N  N46  1  0.52866717  0.21730857  0.82400504  1
  N  N47  1  0.46616489  0.08164556  0.57081484  1
  N  N48  1  0.23526582  0.51684644  0.34670150  1
  N  N49  1  0.12346019  0.40581201  0.09721069  1
  N  N50  1  0.88192489  0.54113465  0.85630775  1
  N  N51  1  0.75769648  0.43943925  0.57002075  1
  N  N52  1  0.55242727  0.54288270  0.32594812  1
  N  N53  1  0.46836916  0.41592307  0.07642391  1
  N  N54  1  0.22762235  0.54266583  0.85545538  1
  N  N55  1  0.11337655  0.42428568  0.63791393  1
  N  N56  1  0.90271199  0.51992013  0.34417974  1
  N  N57  1  0.76598001  0.41812709  0.08420716  1
  N  N58  1  0.55722801  0.53884047  0.83089852  1
  N  N59  1  0.46772205  0.41747846  0.57879540  1
  N  N60  1  0.23662394  0.87541553  0.33319140  1
  N  N61  1  0.11991986  0.77180415  0.09188356  1
  N  N62  1  0.89467899  0.85726677  0.84589642  1
  N  N63  1  0.76557229  0.77977971  0.59083316  1
  N  N64  1  0.53211269  0.88329252  0.32259619  1
  N  N65  1  0.44471485  0.75862357  0.07717892  1
  N  N66  1  0.22148469  0.87650004  0.84438479  1
  N  N67  1  0.08713487  0.77288016  0.58513428  1
  N  N68  1  0.87167699  0.89718105  0.32795500  1
  N  N69  1  0.75191814  0.77202480  0.08675964  1
  N  N70  1  0.55019156  0.87667016  0.83458980  1
  N  N71  1  0.46557043  0.75197089  0.58080170  1
