# generated using pymatgen
data_Sc11Al25N36
_symmetry_space_group_name_H-M   'P 1'
_cell_length_a   10.09643479
_cell_length_b   10.05129484
_cell_length_c   9.57757155
_cell_angle_alpha   90.05661765
_cell_angle_beta   90.04939409
_cell_angle_gamma   60.35249758
_symmetry_Int_Tables_number   1
_chemical_formula_structural   Sc11Al25N36
_chemical_formula_sum   'Sc11 Al25 N36'
_cell_volume   844.70978000
_cell_formula_units_Z   1
loop_
 _symmetry_equiv_pos_site_id
 _symmetry_equiv_pos_as_xyz
  1  'x, y, z'
loop_
 _atom_site_type_symbol
 _atom_site_label
 _atom_site_symmetry_multiplicity
 _atom_site_fract_x
 _atom_site_fract_y
 _atom_site_fract_z
 _atom_site_occupancy
  Al  Al0  1  0.11624010  0.09450297  0.36181421  1
  Al  Al1  1  0.23201537  0.19277679  0.11901081  1
  Al  Al2  1  0.44662405  0.09315320  0.37139442  1
  Al  Al3  1  0.55821446  0.20768699  0.12945135  1
  Al  Al4  1  0.11071842  0.09630362  0.89018644  1
  Al  Al5  1  0.76758971  0.09959171  0.38271143  1
  Al  Al6  1  0.88127918  0.20773630  0.13346380  1
  Al  Al7  1  0.44195068  0.09580959  0.88406968  1
  Al  Al8  1  0.55142286  0.20409718  0.62365028  1
  Al  Al9  1  0.11942387  0.41491303  0.31995905  1
  Al  Al10  1  0.77454187  0.42601458  0.88127768  1
  Al  Al11  1  0.45450598  0.42165441  0.37737753  1
  Al  Al12  1  0.55567908  0.53778602  0.12597106  1
  Al  Al13  1  0.11389240  0.42226510  0.84978009  1
  Al  Al14  1  0.77135823  0.42966099  0.37141727  1
  Al  Al15  1  0.44967076  0.42652451  0.87604055  1
  Al  Al16  1  0.55837125  0.53901794  0.62755609  1
  Al  Al17  1  0.23148565  0.87372349  0.12804676  1
  Al  Al18  1  0.76693937  0.76288406  0.88029409  1
  Al  Al19  1  0.88143748  0.87170874  0.63383259  1
  Al  Al20  1  0.44870966  0.76062880  0.37726328  1
  Al  Al21  1  0.54175219  0.87779551  0.12473553  1
  Al  Al22  1  0.11574288  0.76323573  0.88294646  1
  Al  Al23  1  0.44437294  0.76123240  0.87759934  1
  Al  Al24  1  0.55788048  0.87455633  0.63007403  1
  Sc  Sc25  1  0.76933445  0.10664887  0.85506726  1
  Sc  Sc26  1  0.88939037  0.20890534  0.60582363  1
  Sc  Sc27  1  0.23446762  0.19545874  0.62007996  1
  Sc  Sc28  1  0.23670493  0.53054515  0.10337123  1
  Sc  Sc29  1  0.88277425  0.54431638  0.61689839  1
  Sc  Sc30  1  0.22804390  0.53820004  0.61368763  1
  Sc  Sc31  1  0.88619930  0.53298314  0.10408016  1
  Sc  Sc32  1  0.10554250  0.76531315  0.35551071  1
  Sc  Sc33  1  0.22519769  0.87027956  0.61579455  1
  Sc  Sc34  1  0.76710242  0.76829721  0.36130446  1
  Sc  Sc35  1  0.87883365  0.88629237  0.10346857  1
  N  N36  1  0.23007584  0.19978791  0.32982464  1
  N  N37  1  0.10805642  0.09399961  0.09366296  1
  N  N38  1  0.90282831  0.21635325  0.83068461  1
  N  N39  1  0.76688412  0.08719805  0.59285015  1
  N  N40  1  0.55575977  0.20655200  0.32931025  1
  N  N41  1  0.44874309  0.09437200  0.08267014  1
  N  N42  1  0.22667031  0.19539166  0.85256840  1
  N  N43  1  0.11503473  0.09285088  0.55815417  1
  N  N44  1  0.88331486  0.20660002  0.33748937  1
  N  N45  1  0.76390967  0.11969785  0.07513868  1
  N  N46  1  0.52808195  0.21779515  0.82194435  1
  N  N47  1  0.46612902  0.08191336  0.56922592  1
  N  N48  1  0.23565524  0.51652649  0.34465456  1
  N  N49  1  0.12374037  0.40506378  0.09931635  1
  N  N50  1  0.88191661  0.54141613  0.85666564  1
  N  N51  1  0.75739135  0.43986781  0.56784472  1
  N  N52  1  0.55280968  0.54256913  0.32415879  1
  N  N53  1  0.46908172  0.41543654  0.07455908  1
  N  N54  1  0.22723571  0.54281510  0.85590264  1
  N  N55  1  0.11287576  0.42509023  0.63968555  1
  N  N56  1  0.90228454  0.51973498  0.34161396  1
  N  N57  1  0.76599217  0.41726410  0.08139113  1
  N  N58  1  0.55677742  0.53916697  0.82852502  1
  N  N59  1  0.46808395  0.41700020  0.57604146  1
  N  N60  1  0.23623704  0.87623395  0.33104760  1
  N  N61  1  0.12031479  0.77222011  0.09029680  1
  N  N62  1  0.89529610  0.85649721  0.84472044  1
  N  N63  1  0.76572685  0.78032058  0.58747353  1
  N  N64  1  0.53224519  0.88353234  0.32116224  1
  N  N65  1  0.44453657  0.75896558  0.07602677  1
  N  N66  1  0.22150806  0.87614702  0.84179921  1
  N  N67  1  0.08645168  0.77301597  0.58092817  1
  N  N68  1  0.87125829  0.89797142  0.32432042  1
  N  N69  1  0.75111427  0.77261462  0.08434659  1
  N  N70  1  0.55026601  0.87640576  0.83164759  1
  N  N71  1  0.46548782  0.75190003  0.57768289  1
