# generated using pymatgen
data_Sc11Al25N36
_symmetry_space_group_name_H-M   'P 1'
_cell_length_a   9.86749115
_cell_length_b   9.83889594
_cell_length_c   10.18583793
_cell_angle_alpha   90.04874742
_cell_angle_beta   89.78480958
_cell_angle_gamma   60.19316474
_symmetry_Int_Tables_number   1
_chemical_formula_structural   Sc11Al25N36
_chemical_formula_sum   'Sc11 Al25 N36'
_cell_volume   858.05941615
_cell_formula_units_Z   1
loop_
 _symmetry_equiv_pos_site_id
 _symmetry_equiv_pos_as_xyz
  1  'x, y, z'
loop_
 _atom_site_type_symbol
 _atom_site_label
 _atom_site_symmetry_multiplicity
 _atom_site_fract_x
 _atom_site_fract_y
 _atom_site_fract_z
 _atom_site_occupancy
  Al  Al0  1  0.11311553  0.09549774  0.29203229  1
  Al  Al1  1  0.22782117  0.19841614  0.05522407  1
  Al  Al2  1  0.44073555  0.09628109  0.30018668  1
  Al  Al3  1  0.55024254  0.21046051  0.05859862  1
  Al  Al4  1  0.11234338  0.09920719  0.81648811  1
  Al  Al5  1  0.76925073  0.10535325  0.29852959  1
  Al  Al6  1  0.88729300  0.21018474  0.05927335  1
  Al  Al7  1  0.44347356  0.09662618  0.80993726  1
  Al  Al8  1  0.55993693  0.20032511  0.55365462  1
  Al  Al9  1  0.11646544  0.41550111  0.29799030  1
  Al  Al10  1  0.77294208  0.43005727  0.80713368  1
  Al  Al11  1  0.45100483  0.42231466  0.30653967  1
  Al  Al12  1  0.55557738  0.53776675  0.05822528  1
  Al  Al13  1  0.11445450  0.42279522  0.80677754  1
  Al  Al14  1  0.77573593  0.42420056  0.30024496  1
  Al  Al15  1  0.44907092  0.42722076  0.80317487  1
  Al  Al16  1  0.55965605  0.53706702  0.55625377  1
  Al  Al17  1  0.22739419  0.87323425  0.04943161  1
  Al  Al18  1  0.77329362  0.76498288  0.79786065  1
  Al  Al19  1  0.87661422  0.88310413  0.55343213  1
  Al  Al20  1  0.44086974  0.76748071  0.30336472  1
  Al  Al21  1  0.54852188  0.87598275  0.05302802  1
  Al  Al22  1  0.10722909  0.76144909  0.80041097  1
  Al  Al23  1  0.45221830  0.75655019  0.80976915  1
  Al  Al24  1  0.55314586  0.87674314  0.56101118  1
  Sc  Sc25  1  0.77220174  0.09957102  0.81496623  1
  Sc  Sc26  1  0.88751613  0.20251659  0.55203651  1
  Sc  Sc27  1  0.23338483  0.19522772  0.55340957  1
  Sc  Sc28  1  0.23338206  0.53316605  0.05424746  1
  Sc  Sc29  1  0.88725700  0.53623890  0.56874681  1
  Sc  Sc30  1  0.23048637  0.53194739  0.56664017  1
  Sc  Sc31  1  0.88451758  0.53652943  0.05431830  1
  Sc  Sc32  1  0.11490787  0.76310128  0.31495907  1
  Sc  Sc33  1  0.23056020  0.87136266  0.56961017  1
  Sc  Sc34  1  0.76591456  0.76353639  0.31991257  1
  Sc  Sc35  1  0.88639908  0.87371672  0.06242936  1
  N  N36  1  0.22266130  0.20190974  0.34389478  1
  N  N37  1  0.11299443  0.09196233  0.10291286  1
  N  N38  1  0.89645760  0.21831973  0.87058696  1
  N  N39  1  0.76714581  0.09018625  0.60940410  1
  N  N40  1  0.55369214  0.20500217  0.36149386  1
  N  N41  1  0.44564701  0.09295995  0.11113939  1
  N  N42  1  0.22602422  0.20415247  0.86553524  1
  N  N43  1  0.10919222  0.09802513  0.63231565  1
  N  N44  1  0.89007059  0.20441468  0.34138932  1
  N  N45  1  0.76586154  0.11312363  0.10671461  1
  N  N46  1  0.53216310  0.21984409  0.87232994  1
  N  N47  1  0.46347590  0.08721751  0.62292307  1
  N  N48  1  0.23296714  0.51630609  0.35303749  1
  N  N49  1  0.12017577  0.40969900  0.11015784  1
  N  N50  1  0.88568571  0.54241038  0.83998210  1
  N  N51  1  0.76083014  0.42901624  0.62270258  1
  N  N52  1  0.55427410  0.54286520  0.36422527  1
  N  N53  1  0.46328207  0.41995390  0.12038832  1
  N  N54  1  0.22528656  0.54013960  0.83941899  1
  N  N55  1  0.11732982  0.41747261  0.62413722  1
  N  N56  1  0.90012842  0.51585647  0.35361931  1
  N  N57  1  0.76573883  0.42287513  0.11457988  1
  N  N58  1  0.55468591  0.53877370  0.86868614  1
  N  N59  1  0.46997542  0.41380559  0.61587663  1
  N  N60  1  0.22943587  0.88699903  0.36003105  1
  N  N61  1  0.12325499  0.76883473  0.10885335  1
  N  N62  1  0.89507197  0.85518374  0.85539976  1
  N  N63  1  0.76669802  0.77972649  0.60499350  1
  N  N64  1  0.52834491  0.88866340  0.37260527  1
  N  N65  1  0.44371610  0.76240636  0.11067207  1
  N  N66  1  0.22510129  0.86978169  0.85588153  1
  N  N67  1  0.08855762  0.77316442  0.60842094  1
  N  N68  1  0.87505025  0.89579448  0.36127556  1
  N  N69  1  0.75436810  0.76981094  0.11472341  1
  N  N70  1  0.55530435  0.87404185  0.86333147  1
  N  N71  1  0.46953312  0.74779087  0.62288912  1
