# generated using pymatgen
data_Sc11Al25N36
_symmetry_space_group_name_H-M   'P 1'
_cell_length_a   9.98325529
_cell_length_b   9.94880693
_cell_length_c   9.86303040
_cell_angle_alpha   90.03231133
_cell_angle_beta   89.83084057
_cell_angle_gamma   60.30658960
_symmetry_Int_Tables_number   1
_chemical_formula_structural   Sc11Al25N36
_chemical_formula_sum   'Sc11 Al25 N36'
_cell_volume   850.97057884
_cell_formula_units_Z   1
loop_
 _symmetry_equiv_pos_site_id
 _symmetry_equiv_pos_as_xyz
  1  'x, y, z'
loop_
 _atom_site_type_symbol
 _atom_site_label
 _atom_site_symmetry_multiplicity
 _atom_site_fract_x
 _atom_site_fract_y
 _atom_site_fract_z
 _atom_site_occupancy
  Al  Al0  1  0.11392387  0.09473872  0.31405370  1
  Al  Al1  1  0.22916128  0.19650929  0.07386780  1
  Al  Al2  1  0.44049515  0.09602218  0.32046896  1
  Al  Al3  1  0.54793847  0.21181493  0.07815105  1
  Al  Al4  1  0.11139328  0.09959378  0.83616071  1
  Al  Al5  1  0.76804738  0.10794892  0.31582948  1
  Al  Al6  1  0.88798018  0.21082668  0.07807660  1
  Al  Al7  1  0.44484725  0.09589665  0.82918472  1
  Al  Al8  1  0.56064320  0.19991800  0.57358494  1
  Al  Al9  1  0.11801675  0.41369124  0.31660593  1
  Al  Al10  1  0.77192143  0.43130191  0.82767580  1
  Al  Al11  1  0.45209421  0.42225472  0.32747364  1
  Al  Al12  1  0.55579602  0.53754422  0.07805964  1
  Al  Al13  1  0.11457675  0.42332540  0.83202263  1
  Al  Al14  1  0.77590488  0.42365300  0.32071449  1
  Al  Al15  1  0.44981052  0.42713258  0.82283877  1
  Al  Al16  1  0.55908666  0.53877625  0.57442265  1
  Al  Al17  1  0.22682265  0.87298915  0.06857516  1
  Al  Al18  1  0.77372499  0.76469030  0.81857886  1
  Al  Al19  1  0.87436299  0.88550001  0.57187641  1
  Al  Al20  1  0.43977406  0.76854111  0.32214392  1
  Al  Al21  1  0.54854239  0.87608934  0.07303178  1
  Al  Al22  1  0.10543546  0.76073166  0.82129625  1
  Al  Al23  1  0.45399555  0.75514812  0.83049300  1
  Al  Al24  1  0.55134709  0.87744751  0.58047454  1
  Sc  Sc25  1  0.77174307  0.09735501  0.84372335  1
  Sc  Sc26  1  0.88471542  0.20341075  0.57773002  1
  Sc  Sc27  1  0.23259413  0.19696871  0.57869426  1
  Sc  Sc28  1  0.23350492  0.53494298  0.08120832  1
  Sc  Sc29  1  0.88867940  0.53552129  0.59051442  1
  Sc  Sc30  1  0.23077973  0.53131384  0.58908080  1
  Sc  Sc31  1  0.88420760  0.53758411  0.08112409  1
  Sc  Sc32  1  0.11481055  0.76458946  0.34248910  1
  Sc  Sc33  1  0.23051154  0.87173173  0.59595505  1
  Sc  Sc34  1  0.76395439  0.76412069  0.34538032  1
  Sc  Sc35  1  0.88681607  0.87222200  0.09159317  1
  N  N36  1  0.22318767  0.20193705  0.36218760  1
  N  N37  1  0.11323781  0.09160298  0.11821133  1
  N  N38  1  0.89627634  0.21847389  0.88308923  1
  N  N39  1  0.76576258  0.08921675  0.62983525  1
  N  N40  1  0.55451606  0.20489309  0.37631352  1
  N  N41  1  0.44529813  0.09280819  0.12658360  1
  N  N42  1  0.22755467  0.20171762  0.87876553  1
  N  N43  1  0.10787291  0.09869324  0.64645935  1
  N  N44  1  0.88963079  0.20446468  0.35908426  1
  N  N45  1  0.76520190  0.11404249  0.11653745  1
  N  N46  1  0.53053368  0.22062852  0.88716144  1
  N  N47  1  0.46452969  0.08667246  0.63743222  1
  N  N48  1  0.23367015  0.51585948  0.36603001  1
  N  N49  1  0.12205806  0.40739851  0.12157043  1
  N  N50  1  0.88464467  0.54304113  0.85834817  1
  N  N51  1  0.75951846  0.43209054  0.63697384  1
  N  N52  1  0.55452291  0.54399768  0.37845920  1
  N  N53  1  0.46470480  0.41954753  0.13610178  1
  N  N54  1  0.22656714  0.54083131  0.85727325  1
  N  N55  1  0.11645951  0.41968006  0.64252840  1
  N  N56  1  0.90158319  0.51536514  0.36549273  1
  N  N57  1  0.76560693  0.42198647  0.12917459  1
  N  N58  1  0.55490651  0.53842794  0.88435586  1
  N  N59  1  0.47036114  0.41415887  0.62956068  1
  N  N60  1  0.23074300  0.88700759  0.37872493  1
  N  N61  1  0.12358770  0.77024650  0.12829997  1
  N  N62  1  0.89600256  0.85241893  0.87545245  1
  N  N63  1  0.76618544  0.77948197  0.61639528  1
  N  N64  1  0.52687922  0.88919575  0.38721837  1
  N  N65  1  0.44282259  0.76284781  0.12460612  1
  N  N66  1  0.22468437  0.86914248  0.86863672  1
  N  N67  1  0.08688218  0.77300417  0.61906342  1
  N  N68  1  0.87314648  0.89792570  0.37064884  1
  N  N69  1  0.75202552  0.77041947  0.13340851  1
  N  N70  1  0.55619075  0.87387654  0.87847966  1
  N  N71  1  0.46987045  0.74783893  0.63872680  1
