# generated using pymatgen
data_Sc11Al25N36
_symmetry_space_group_name_H-M   'P 1'
_cell_length_a   9.98331368
_cell_length_b   9.95452734
_cell_length_c   9.90629239
_cell_angle_alpha   90.04349474
_cell_angle_beta   90.06556708
_cell_angle_gamma   60.32605178
_symmetry_Int_Tables_number   1
_chemical_formula_structural   Sc11Al25N36
_chemical_formula_sum   'Sc11 Al25 N36'
_cell_volume   855.37068926
_cell_formula_units_Z   1
loop_
 _symmetry_equiv_pos_site_id
 _symmetry_equiv_pos_as_xyz
  1  'x, y, z'
loop_
 _atom_site_type_symbol
 _atom_site_label
 _atom_site_symmetry_multiplicity
 _atom_site_fract_x
 _atom_site_fract_y
 _atom_site_fract_z
 _atom_site_occupancy
  Al  Al0  1  0.11608519  0.09445967  0.36778039  1
  Al  Al1  1  0.23225292  0.19069550  0.12442944  1
  Al  Al2  1  0.44626104  0.09315905  0.37476766  1
  Al  Al3  1  0.55829643  0.20705596  0.13191000  1
  Al  Al4  1  0.11094293  0.09677808  0.89190471  1
  Al  Al5  1  0.76859614  0.09916590  0.38481364  1
  Al  Al6  1  0.88279602  0.20724696  0.13583842  1
  Al  Al7  1  0.44135604  0.09599061  0.88620157  1
  Al  Al8  1  0.55236511  0.20381438  0.62561824  1
  Al  Al9  1  0.11891421  0.41474319  0.31400472  1
  Al  Al10  1  0.77356799  0.42577730  0.88479199  1
  Al  Al11  1  0.45362143  0.42123732  0.37891479  1
  Al  Al12  1  0.55619939  0.53704414  0.12913931  1
  Al  Al13  1  0.11330969  0.42346748  0.84748423  1
  Al  Al14  1  0.77302887  0.42906464  0.37406999  1
  Al  Al15  1  0.44995952  0.42626221  0.87980199  1
  Al  Al16  1  0.55805886  0.53869765  0.62758063  1
  Al  Al17  1  0.23037043  0.87514622  0.13056647  1
  Al  Al18  1  0.76612603  0.76516121  0.88358529  1
  Al  Al19  1  0.88221717  0.87192652  0.63660666  1
  Al  Al20  1  0.44802764  0.76106380  0.37777152  1
  Al  Al21  1  0.54253367  0.87793092  0.12823428  1
  Al  Al22  1  0.11518108  0.76433237  0.88776751  1
  Al  Al23  1  0.44430312  0.76146908  0.88149574  1
  Al  Al24  1  0.55728117  0.87490292  0.63121267  1
  Sc  Sc25  1  0.76995256  0.10572812  0.86102729  1
  Sc  Sc26  1  0.88901538  0.20907471  0.61103203  1
  Sc  Sc27  1  0.23474049  0.19510798  0.62731689  1
  Sc  Sc28  1  0.23654532  0.53121555  0.10573095  1
  Sc  Sc29  1  0.87839319  0.54606289  0.62944568  1
  Sc  Sc30  1  0.22913834  0.53937811  0.62307077  1
  Sc  Sc31  1  0.88452134  0.53444458  0.10539005  1
  Sc  Sc32  1  0.10733715  0.76376396  0.36144894  1
  Sc  Sc33  1  0.22562568  0.87020239  0.62226437  1
  Sc  Sc34  1  0.76899185  0.76580367  0.36966875  1
  Sc  Sc35  1  0.87883114  0.88600001  0.11036210  1
  N  N36  1  0.23034663  0.19755538  0.32556475  1
  N  N37  1  0.10799207  0.09405501  0.08698991  1
  N  N38  1  0.90239638  0.21699971  0.82703906  1
  N  N39  1  0.76755542  0.08655765  0.58773990  1
  N  N40  1  0.55603500  0.20584652  0.32566263  1
  N  N41  1  0.44847538  0.09395837  0.07851710  1
  N  N42  1  0.22598888  0.19671909  0.84892919  1
  N  N43  1  0.11604838  0.09240180  0.55630133  1
  N  N44  1  0.88506290  0.20583361  0.33385825  1
  N  N45  1  0.76469861  0.11930679  0.07296116  1
  N  N46  1  0.52782131  0.21805547  0.81779159  1
  N  N47  1  0.46548858  0.08265544  0.56584898  1
  N  N48  1  0.23620546  0.51643921  0.33774356  1
  N  N49  1  0.12383452  0.40428289  0.10343449  1
  N  N50  1  0.88161208  0.54183012  0.85782425  1
  N  N51  1  0.75776615  0.43997248  0.56330177  1
  N  N52  1  0.55340418  0.54158320  0.32124529  1
  N  N53  1  0.47038158  0.41441598  0.07071147  1
  N  N54  1  0.22656887  0.54286607  0.85643466  1
  N  N55  1  0.11096057  0.42712563  0.64350830  1
  N  N56  1  0.90047069  0.52000081  0.33359777  1
  N  N57  1  0.76565111  0.41614556  0.07663588  1
  N  N58  1  0.55600426  0.53963962  0.82364186  1
  N  N59  1  0.46776150  0.41638375  0.57110893  1
  N  N60  1  0.23532669  0.87764639  0.32537907  1
  N  N61  1  0.11999713  0.77362796  0.08457231  1
  N  N62  1  0.89603756  0.85609454  0.83941676  1
  N  N63  1  0.76625856  0.78032861  0.58545491  1
  N  N64  1  0.53399092  0.88292768  0.31819445  1
  N  N65  1  0.44489012  0.75893426  0.07404077  1
  N  N66  1  0.22179532  0.87592507  0.83921326  1
  N  N67  1  0.08741143  0.77282493  0.57710088  1
  N  N68  1  0.87187167  0.89685782  0.32208747  1
  N  N69  1  0.74980329  0.77500165  0.07684756  1
  N  N70  1  0.54946468  0.87662602  0.82670988  1
  N  N71  1  0.46506286  0.75198758  0.57188606  1
