# generated using pymatgen
data_Sc11Al25N36
_symmetry_space_group_name_H-M   'P 1'
_cell_length_a   10.20668086
_cell_length_b   10.14849647
_cell_length_c   9.26153386
_cell_angle_alpha   90.05349635
_cell_angle_beta   90.03663874
_cell_angle_gamma   60.34821496
_symmetry_Int_Tables_number   1
_chemical_formula_structural   Sc11Al25N36
_chemical_formula_sum   'Sc11 Al25 N36'
_cell_volume   833.70574797
_cell_formula_units_Z   1
loop_
 _symmetry_equiv_pos_site_id
 _symmetry_equiv_pos_as_xyz
  1  'x, y, z'
loop_
 _atom_site_type_symbol
 _atom_site_label
 _atom_site_symmetry_multiplicity
 _atom_site_fract_x
 _atom_site_fract_y
 _atom_site_fract_z
 _atom_site_occupancy
  Al  Al0  1  0.11622944  0.09424330  0.35412979  1
  Al  Al1  1  0.23147709  0.19500473  0.11250343  1
  Al  Al2  1  0.44676067  0.09288687  0.36551489  1
  Al  Al3  1  0.55688988  0.20878727  0.12665434  1
  Al  Al4  1  0.11083562  0.09607398  0.88838483  1
  Al  Al5  1  0.76747265  0.10095407  0.37590155  1
  Al  Al6  1  0.88103031  0.20840896  0.12777614  1
  Al  Al7  1  0.44252350  0.09580889  0.88159845  1
  Al  Al8  1  0.55177888  0.20361882  0.61920600  1
  Al  Al9  1  0.11934298  0.41547402  0.32454370  1
  Al  Al10  1  0.77456473  0.42680153  0.87788160  1
  Al  Al11  1  0.45429134  0.42252451  0.37489682  1
  Al  Al12  1  0.55489730  0.53842326  0.12212570  1
  Al  Al13  1  0.11444265  0.42083174  0.85260648  1
  Al  Al14  1  0.77081736  0.42927598  0.36647885  1
  Al  Al15  1  0.44980597  0.42631911  0.87093213  1
  Al  Al16  1  0.55887128  0.53887137  0.62521802  1
  Al  Al17  1  0.23187406  0.87184243  0.12120262  1
  Al  Al18  1  0.76832871  0.76239465  0.87209421  1
  Al  Al19  1  0.88030485  0.87365233  0.62693458  1
  Al  Al20  1  0.44872394  0.76040952  0.37454562  1
  Al  Al21  1  0.54255967  0.87676121  0.11910966  1
  Al  Al22  1  0.11400050  0.76309705  0.87337958  1
  Al  Al23  1  0.44534721  0.76042389  0.87301907  1
  Al  Al24  1  0.55706112  0.87519762  0.62879737  1
  Sc  Sc25  1  0.76862405  0.10632193  0.85292195  1
  Sc  Sc26  1  0.88947917  0.20832145  0.60218580  1
  Sc  Sc27  1  0.23405902  0.19614430  0.61186125  1
  Sc  Sc28  1  0.23625325  0.53121750  0.10125808  1
  Sc  Sc29  1  0.88524403  0.54212025  0.61057481  1
  Sc  Sc30  1  0.22774558  0.53681909  0.61002679  1
  Sc  Sc31  1  0.88670563  0.53347117  0.10259674  1
  Sc  Sc32  1  0.10602747  0.76577943  0.35344889  1
  Sc  Sc33  1  0.22583195  0.87129267  0.61179348  1
  Sc  Sc34  1  0.76544004  0.76899805  0.35747561  1
  Sc  Sc35  1  0.87977182  0.88460874  0.10105459  1
  N  N36  1  0.22945313  0.20192934  0.33397396  1
  N  N37  1  0.10870306  0.09413196  0.10072588  1
  N  N38  1  0.90223787  0.21531294  0.83840273  1
  N  N39  1  0.76635384  0.08877220  0.59438677  1
  N  N40  1  0.55488715  0.20757703  0.33381530  1
  N  N41  1  0.44857907  0.09504821  0.08817538  1
  N  N42  1  0.22727699  0.19443381  0.85746723  1
  N  N43  1  0.11383563  0.09342676  0.56107980  1
  N  N44  1  0.88286409  0.20705325  0.33877404  1
  N  N45  1  0.76366695  0.11807766  0.08241623  1
  N  N46  1  0.52944831  0.21668913  0.82619602  1
  N  N47  1  0.46603739  0.08149204  0.57249068  1
  N  N48  1  0.23485885  0.51729509  0.34830019  1
  N  N49  1  0.12314258  0.40656539  0.09581231  1
  N  N50  1  0.88200135  0.54076826  0.85587868  1
  N  N51  1  0.75816937  0.43882793  0.57226547  1
  N  N52  1  0.55209108  0.54310450  0.32800060  1
  N  N53  1  0.46763097  0.41641474  0.07837548  1
  N  N54  1  0.22796266  0.54233390  0.85492591  1
  N  N55  1  0.11370828  0.42360233  0.63589403  1
  N  N56  1  0.90287760  0.52026727  0.34609660  1
  N  N57  1  0.76587893  0.41913560  0.08718859  1
  N  N58  1  0.55763952  0.53849749  0.83324753  1
  N  N59  1  0.46725701  0.41792583  0.58167314  1
  N  N60  1  0.23684228  0.87483585  0.33499566  1
  N  N61  1  0.11936565  0.77140839  0.09308319  1
  N  N62  1  0.89391950  0.85828752  0.84653164  1
  N  N63  1  0.76537578  0.77916802  0.59526547  1
  N  N64  1  0.53225207  0.88289563  0.32408272  1
  N  N65  1  0.44501908  0.75814842  0.07853513  1
  N  N66  1  0.22158579  0.87678672  0.84771758  1
  N  N67  1  0.08820791  0.77270938  0.59048743  1
  N  N68  1  0.87237642  0.89591723  0.33293740  1
  N  N69  1  0.75279042  0.77159169  0.08862343  1
  N  N70  1  0.54993073  0.87707274  0.83783240  1
  N  N71  1  0.46554424  0.75210176  0.58405707  1
