# generated using pymatgen
data_Sc11Al25N36
_symmetry_space_group_name_H-M   'P 1'
_cell_length_a   10.40346795
_cell_length_b   10.33515641
_cell_length_c   8.71631332
_cell_angle_alpha   90.07363210
_cell_angle_beta   89.95188196
_cell_angle_gamma   60.32321340
_symmetry_Int_Tables_number   1
_chemical_formula_structural   Sc11Al25N36
_chemical_formula_sum   'Sc11 Al25 N36'
_cell_volume   814.25968344
_cell_formula_units_Z   1
loop_
 _symmetry_equiv_pos_site_id
 _symmetry_equiv_pos_as_xyz
  1  'x, y, z'
loop_
 _atom_site_type_symbol
 _atom_site_label
 _atom_site_symmetry_multiplicity
 _atom_site_fract_x
 _atom_site_fract_y
 _atom_site_fract_z
 _atom_site_occupancy
  Al  Al0  1  0.11535241  0.09423134  0.34666185  1
  Al  Al1  1  0.22914852  0.19732825  0.10474194  1
  Al  Al2  1  0.44520486  0.09305466  0.35154491  1
  Al  Al3  1  0.55221811  0.21006607  0.10957865  1
  Al  Al4  1  0.11202643  0.09617455  0.87657384  1
  Al  Al5  1  0.76869979  0.10312340  0.34980506  1
  Al  Al6  1  0.88462424  0.20967252  0.10720682  1
  Al  Al7  1  0.44297261  0.09656249  0.86994594  1
  Al  Al8  1  0.55575473  0.20227633  0.59625398  1
  Al  Al9  1  0.11731300  0.41657633  0.33425628  1
  Al  Al10  1  0.77269335  0.42967215  0.84914656  1
  Al  Al11  1  0.45272919  0.42315669  0.35040603  1
  Al  Al12  1  0.55680043  0.53577402  0.09562928  1
  Al  Al13  1  0.11528421  0.41980054  0.85488930  1
  Al  Al14  1  0.77334847  0.42624771  0.34520792  1
  Al  Al15  1  0.44979319  0.42702013  0.84387907  1
  Al  Al16  1  0.55714321  0.54138649  0.59329613  1
  Al  Al17  1  0.22786392  0.87265104  0.10084729  1
  Al  Al18  1  0.77097589  0.76388202  0.85553185  1
  Al  Al19  1  0.87864073  0.87834933  0.60717826  1
  Al  Al20  1  0.44556929  0.76194665  0.33739074  1
  Al  Al21  1  0.54624635  0.87689358  0.10179025  1
  Al  Al22  1  0.10981156  0.76356928  0.85402013  1
  Al  Al23  1  0.44933335  0.75708651  0.85692912  1
  Al  Al24  1  0.55476822  0.87547447  0.62213384  1
  Sc  Sc25  1  0.76749232  0.10370245  0.85234388  1
  Sc  Sc26  1  0.88866767  0.20533527  0.59674077  1
  Sc  Sc27  1  0.23360928  0.19734444  0.60407450  1
  Sc  Sc28  1  0.23429565  0.53216772  0.09834655  1
  Sc  Sc29  1  0.88748340  0.54015593  0.60499822  1
  Sc  Sc30  1  0.22773533  0.53488241  0.60401238  1
  Sc  Sc31  1  0.88667334  0.53348630  0.09888994  1
  Sc  Sc32  1  0.10819973  0.76636164  0.35212271  1
  Sc  Sc33  1  0.23084383  0.87040419  0.60716632  1
  Sc  Sc34  1  0.76282506  0.76868616  0.35438544  1
  Sc  Sc35  1  0.88303508  0.87903913  0.09981268  1
  N  N36  1  0.22704659  0.20368185  0.34055206  1
  N  N37  1  0.11097790  0.09403191  0.10647046  1
  N  N38  1  0.89929990  0.21350353  0.86103823  1
  N  N39  1  0.76594716  0.09195775  0.59768546  1
  N  N40  1  0.55316260  0.20638032  0.34994475  1
  N  N41  1  0.44596093  0.09582143  0.10132817  1
  N  N42  1  0.22793964  0.19525320  0.86360385  1
  N  N43  1  0.11285665  0.09358464  0.58116056  1
  N  N44  1  0.88671367  0.20664857  0.34101494  1
  N  N45  1  0.76451855  0.11391175  0.10610760  1
  N  N46  1  0.53360682  0.21662191  0.85230135  1
  N  N47  1  0.46416720  0.08324234  0.59138788  1
  N  N48  1  0.23098239  0.52041233  0.35199748  1
  N  N49  1  0.12157467  0.40838460  0.09522593  1
  N  N50  1  0.88361298  0.54019968  0.85413894  1
  N  N51  1  0.76106785  0.43507036  0.60487926  1
  N  N52  1  0.55401345  0.54440149  0.35420327  1
  N  N53  1  0.46339767  0.41960673  0.11078371  1
  N  N54  1  0.22998455  0.53982002  0.85298302  1
  N  N55  1  0.11399860  0.42271185  0.62544628  1
  N  N56  1  0.90068889  0.52097872  0.35160262  1
  N  N57  1  0.76604243  0.42196935  0.10712617  1
  N  N58  1  0.55662488  0.53630839  0.86007304  1
  N  N59  1  0.46529958  0.41848684  0.60067546  1
  N  N60  1  0.23503969  0.87576793  0.34183167  1
  N  N61  1  0.11733708  0.76990187  0.09569163  1
  N  N62  1  0.89146092  0.86198711  0.84757073  1
  N  N63  1  0.76441910  0.77832669  0.61057821  1
  N  N64  1  0.53337561  0.88242760  0.33761350  1
  N  N65  1  0.44574825  0.75757764  0.09574087  1
  N  N66  1  0.22319224  0.87616821  0.86205119  1
  N  N67  1  0.09244668  0.77230845  0.60865786  1
  N  N68  1  0.87504208  0.89134987  0.35459124  1
  N  N69  1  0.75690110  0.76976369  0.09519363  1
  N  N70  1  0.55054941  0.87825301  0.85588847  1
  N  N71  1  0.46501085  0.75242386  0.61546724  1
