# generated using pymatgen
data_Sc11Al25N36
_symmetry_space_group_name_H-M   'P 1'
_cell_length_a   10.30441744
_cell_length_b   10.24069036
_cell_length_c   8.98500232
_cell_angle_alpha   90.08407373
_cell_angle_beta   89.88997560
_cell_angle_gamma   60.32419249
_symmetry_Int_Tables_number   1
_chemical_formula_structural   Sc11Al25N36
_chemical_formula_sum   'Sc11 Al25 N36'
_cell_volume   823.77482564
_cell_formula_units_Z   1
loop_
 _symmetry_equiv_pos_site_id
 _symmetry_equiv_pos_as_xyz
  1  'x, y, z'
loop_
 _atom_site_type_symbol
 _atom_site_label
 _atom_site_symmetry_multiplicity
 _atom_site_fract_x
 _atom_site_fract_y
 _atom_site_fract_z
 _atom_site_occupancy
  Al  Al0  1  0.11515291  0.09470919  0.34887863  1
  Al  Al1  1  0.23071021  0.19532704  0.09555444  1
  Al  Al2  1  0.44318424  0.09342617  0.32849774  1
  Al  Al3  1  0.54905082  0.21291576  0.09224115  1
  Al  Al4  1  0.11191422  0.09616062  0.87925266  1
  Al  Al5  1  0.76800509  0.10433630  0.33440576  1
  Al  Al6  1  0.88540856  0.20984150  0.10385692  1
  Al  Al7  1  0.44585207  0.09599020  0.84314041  1
  Al  Al8  1  0.55881162  0.19921967  0.57861414  1
  Al  Al9  1  0.11767365  0.41584513  0.32283079  1
  Al  Al10  1  0.77125889  0.43091436  0.83961340  1
  Al  Al11  1  0.45237253  0.42275010  0.34458094  1
  Al  Al12  1  0.55684834  0.53460342  0.08746198  1
  Al  Al13  1  0.11561997  0.42028220  0.85390387  1
  Al  Al14  1  0.77389939  0.42606434  0.33278874  1
  Al  Al15  1  0.45103933  0.42684216  0.82787871  1
  Al  Al16  1  0.55764470  0.54246603  0.58149148  1
  Al  Al17  1  0.22754645  0.87347169  0.10003499  1
  Al  Al18  1  0.77141762  0.76342045  0.83887793  1
  Al  Al19  1  0.87819579  0.87962355  0.60389147  1
  Al  Al20  1  0.44541805  0.76444392  0.32586756  1
  Al  Al21  1  0.54855882  0.87648584  0.07783122  1
  Al  Al22  1  0.11067615  0.76256831  0.85480903  1
  Al  Al23  1  0.45129934  0.75528105  0.84746639  1
  Al  Al24  1  0.55117090  0.87633998  0.59688840  1
  Sc  Sc25  1  0.76763012  0.10297675  0.85268953  1
  Sc  Sc26  1  0.88589595  0.20519037  0.59402816  1
  Sc  Sc27  1  0.23322189  0.19923883  0.59942071  1
  Sc  Sc28  1  0.23755084  0.53177626  0.09587320  1
  Sc  Sc29  1  0.88881919  0.53746125  0.60209892  1
  Sc  Sc30  1  0.22617756  0.53513190  0.60223585  1
  Sc  Sc31  1  0.88451048  0.53617746  0.09495787  1
  Sc  Sc32  1  0.10851121  0.76619628  0.35128724  1
  Sc  Sc33  1  0.23047206  0.87024360  0.60702744  1
  Sc  Sc34  1  0.76271527  0.76831614  0.35414900  1
  Sc  Sc35  1  0.88265379  0.87645638  0.09909109  1
  N  N36  1  0.22727633  0.20412168  0.34424060  1
  N  N37  1  0.11083805  0.09423500  0.10619381  1
  N  N38  1  0.89894217  0.21428964  0.86433774  1
  N  N39  1  0.76528004  0.09085708  0.60973163  1
  N  N40  1  0.55289988  0.20303625  0.36130694  1
  N  N41  1  0.44728929  0.09107878  0.11239258  1
  N  N42  1  0.22853959  0.19498084  0.86661759  1
  N  N43  1  0.11187855  0.09447866  0.57815589  1
  N  N44  1  0.88546139  0.20697847  0.34306823  1
  N  N45  1  0.76407432  0.11391768  0.10814027  1
  N  N46  1  0.53133051  0.22171487  0.87686861  1
  N  N47  1  0.46483724  0.08707281  0.62626059  1
  N  N48  1  0.23022027  0.51931240  0.35398045  1
  N  N49  1  0.12245500  0.40813275  0.09714749  1
  N  N50  1  0.88208450  0.54259981  0.85541915  1
  N  N51  1  0.75935810  0.43536049  0.62036428  1
  N  N52  1  0.55541172  0.54649720  0.36497504  1
  N  N53  1  0.46530849  0.42007031  0.13066028  1
  N  N54  1  0.23190529  0.54039832  0.85382774  1
  N  N55  1  0.11376893  0.42307667  0.63733356  1
  N  N56  1  0.90199272  0.51826686  0.35250625  1
  N  N57  1  0.76564802  0.42242009  0.11498923  1
  N  N58  1  0.55515471  0.53536022  0.87278249  1
  N  N59  1  0.46742734  0.41604564  0.60819668  1
  N  N60  1  0.23480503  0.87668058  0.34417593  1
  N  N61  1  0.11848368  0.76934705  0.09934051  1
  N  N62  1  0.89283057  0.85891159  0.85289194  1
  N  N63  1  0.76525232  0.77766419  0.61114661  1
  N  N64  1  0.52920114  0.88636472  0.37515453  1
  N  N65  1  0.44716669  0.76012570  0.10549512  1
  N  N66  1  0.22321060  0.87536069  0.86287183  1
  N  N67  1  0.09091569  0.77280145  0.60658119  1
  N  N68  1  0.87396510  0.89368152  0.35419780  1
  N  N69  1  0.75369325  0.77055917  0.11117909  1
  N  N70  1  0.55417868  0.87491992  0.86375861  1
  N  N71  1  0.46521202  0.74957443  0.63053700  1
