# generated using pymatgen
data_Sc11Al25N36
_symmetry_space_group_name_H-M   'P 1'
_cell_length_a   9.86749634
_cell_length_b   9.83890316
_cell_length_c   10.18582902
_cell_angle_alpha   90.04880215
_cell_angle_beta   89.78484160
_cell_angle_gamma   60.19312657
_symmetry_Int_Tables_number   1
_chemical_formula_structural   Sc11Al25N36
_chemical_formula_sum   'Sc11 Al25 N36'
_cell_volume   858.05941855
_cell_formula_units_Z   1
loop_
 _symmetry_equiv_pos_site_id
 _symmetry_equiv_pos_as_xyz
  1  'x, y, z'
loop_
 _atom_site_type_symbol
 _atom_site_label
 _atom_site_symmetry_multiplicity
 _atom_site_fract_x
 _atom_site_fract_y
 _atom_site_fract_z
 _atom_site_occupancy
  Al  Al0  1  0.11315089  0.09546820  0.28753901  1
  Al  Al1  1  0.22785442  0.19838789  0.05073243  1
  Al  Al2  1  0.44076916  0.09625313  0.29569606  1
  Al  Al3  1  0.55027717  0.21043126  0.05410716  1
  Al  Al4  1  0.11237609  0.09917942  0.81200024  1
  Al  Al5  1  0.76928366  0.10532472  0.29403879  1
  Al  Al6  1  0.88732576  0.21015653  0.05478360  1
  Al  Al7  1  0.44350846  0.09659597  0.80545242  1
  Al  Al8  1  0.55996970  0.20029717  0.54916835  1
  Al  Al9  1  0.11649805  0.41547165  0.29349709  1
  Al  Al10  1  0.77297667  0.43002687  0.80263918  1
  Al  Al11  1  0.45103950  0.42228562  0.30204335  1
  Al  Al12  1  0.55561147  0.53773858  0.05373269  1
  Al  Al13  1  0.11449008  0.42276638  0.80228401  1
  Al  Al14  1  0.77576970  0.42417238  0.29575350  1
  Al  Al15  1  0.44910285  0.42719257  0.79868846  1
  Al  Al16  1  0.55968941  0.53703737  0.55176238  1
  Al  Al17  1  0.22742841  0.87320510  0.04493686  1
  Al  Al18  1  0.77332779  0.76495305  0.79337186  1
  Al  Al19  1  0.87664877  0.88307427  0.54894452  1
  Al  Al20  1  0.44090247  0.76745289  0.29887958  1
  Al  Al21  1  0.54855582  0.87595304  0.04854399  1
  Al  Al22  1  0.10726287  0.76141672  0.79591895  1
  Al  Al23  1  0.45225404  0.75652013  0.80528223  1
  Al  Al24  1  0.55317962  0.87671440  0.55652624  1
  Sc  Sc25  1  0.77223682  0.09954105  0.81047372  1
  Sc  Sc26  1  0.88755168  0.20248580  0.54754246  1
  Sc  Sc27  1  0.23342081  0.19519573  0.54892112  1
  Sc  Sc28  1  0.23341263  0.53313892  0.04976184  1
  Sc  Sc29  1  0.88729230  0.53620856  0.56425745  1
  Sc  Sc30  1  0.23052230  0.53191702  0.56214107  1
  Sc  Sc31  1  0.88454960  0.53650204  0.04982788  1
  Sc  Sc32  1  0.11494099  0.76307642  0.31046632  1
  Sc  Sc33  1  0.23059393  0.87133316  0.56512703  1
  Sc  Sc34  1  0.76594848  0.76350786  0.31542823  1
  Sc  Sc35  1  0.88643092  0.87368874  0.05794096  1
  N  N36  1  0.22269499  0.20188129  0.33940471  1
  N  N37  1  0.11302930  0.09193261  0.09841961  1
  N  N38  1  0.89649032  0.21829099  0.86609691  1
  N  N39  1  0.76718039  0.09015734  0.60491224  1
  N  N40  1  0.55372471  0.20497507  0.35700486  1
  N  N41  1  0.44568041  0.09293201  0.10664888  1
  N  N42  1  0.22605809  0.20412402  0.86104482  1
  N  N43  1  0.10922457  0.09799753  0.62782754  1
  N  N44  1  0.89010508  0.20438569  0.33689522  1
  N  N45  1  0.76589476  0.11309512  0.10222502  1
  N  N46  1  0.53219898  0.21981381  0.86783959  1
  N  N47  1  0.46351084  0.08718790  0.61843782  1
  N  N48  1  0.23300016  0.51627936  0.34853838  1
  N  N49  1  0.12020701  0.40966984  0.10566604  1
  N  N50  1  0.88572045  0.54238006  0.83548917  1
  N  N51  1  0.76086486  0.42898511  0.61820836  1
  N  N52  1  0.55430691  0.54283631  0.35973440  1
  N  N53  1  0.46331616  0.41992527  0.11589331  1
  N  N54  1  0.22531960  0.54010999  0.83493270  1
  N  N55  1  0.11736709  0.41744313  0.61964350  1
  N  N56  1  0.90016236  0.51582719  0.34912955  1
  N  N57  1  0.76577205  0.42284735  0.11008878  1
  N  N58  1  0.55472113  0.53874414  0.86419482  1
  N  N59  1  0.47000749  0.41377798  0.61138907  1
  N  N60  1  0.22946879  0.88697210  0.35554572  1
  N  N61  1  0.12328689  0.76880971  0.10436104  1
  N  N62  1  0.89510583  0.85515409  0.85091026  1
  N  N63  1  0.76673267  0.77969666  0.60050444  1
  N  N64  1  0.52837793  0.88863621  0.36811867  1
  N  N65  1  0.44374856  0.76237779  0.10618402  1
  N  N66  1  0.22513557  0.86975150  0.85138848  1
  N  N67  1  0.08859233  0.77313204  0.60393046  1
  N  N68  1  0.87508435  0.89576641  0.35678690  1
  N  N69  1  0.75440201  0.76978210  0.11023821  1
  N  N70  1  0.55533954  0.87401134  0.85884597  1
  N  N71  1  0.46956861  0.74776078  0.61840151  1
