# generated using pymatgen
data_Sc11Al25N36
_symmetry_space_group_name_H-M   'P 1'
_cell_length_a   9.86565528
_cell_length_b   9.83624858
_cell_length_c   10.19858286
_cell_angle_alpha   89.94542700
_cell_angle_beta   90.08667819
_cell_angle_gamma   60.17079753
_symmetry_Int_Tables_number   1
_chemical_formula_structural   Sc11Al25N36
_chemical_formula_sum   'Sc11 Al25 N36'
_cell_volume   858.55760176
_cell_formula_units_Z   1
loop_
 _symmetry_equiv_pos_site_id
 _symmetry_equiv_pos_as_xyz
  1  'x, y, z'
loop_
 _atom_site_type_symbol
 _atom_site_label
 _atom_site_symmetry_multiplicity
 _atom_site_fract_x
 _atom_site_fract_y
 _atom_site_fract_z
 _atom_site_occupancy
  Al  Al0  1  0.11554553  0.09524272  0.37794926  1
  Al  Al1  1  0.22738664  0.19862837  0.14141795  1
  Al  Al2  1  0.44485685  0.09444822  0.38375683  1
  Al  Al3  1  0.55617793  0.20780189  0.14157044  1
  Al  Al4  1  0.11105148  0.09845565  0.90144343  1
  Al  Al5  1  0.76930670  0.09948819  0.39218274  1
  Al  Al6  1  0.88387120  0.20795016  0.14477955  1
  Al  Al7  1  0.43894559  0.09750100  0.89444747  1
  Al  Al8  1  0.55409482  0.20268646  0.63419417  1
  Al  Al9  1  0.11619963  0.41824343  0.38606635  1
  Al  Al10  1  0.77453271  0.42744462  0.89504294  1
  Al  Al11  1  0.45285846  0.42242427  0.38928188  1
  Al  Al12  1  0.55571691  0.53731978  0.13831804  1
  Al  Al13  1  0.11485221  0.42013856  0.89791193  1
  Al  Al14  1  0.77353765  0.42868383  0.38502502  1
  Al  Al15  1  0.44629170  0.42759618  0.89008493  1
  Al  Al16  1  0.55872352  0.53874346  0.63629139  1
  Al  Al17  1  0.22865106  0.87590272  0.13784491  1
  Al  Al18  1  0.76864381  0.76397461  0.89096686  1
  Al  Al19  1  0.88284658  0.87278054  0.64763041  1
  Al  Al20  1  0.44677823  0.76239737  0.38484211  1
  Al  Al21  1  0.54363724  0.87839514  0.13688249  1
  Al  Al22  1  0.11408003  0.76225736  0.89670901  1
  Al  Al23  1  0.44467609  0.76144180  0.89347914  1
  Al  Al24  1  0.55721411  0.87383946  0.64171337  1
  Sc  Sc25  1  0.76944953  0.10540223  0.87858895  1
  Sc  Sc26  1  0.88898788  0.20687676  0.62450843  1
  Sc  Sc27  1  0.23327979  0.19723219  0.63638174  1
  Sc  Sc28  1  0.23367812  0.53023202  0.13010073  1
  Sc  Sc29  1  0.88601059  0.53977797  0.64476489  1
  Sc  Sc30  1  0.22905221  0.53490868  0.63964659  1
  Sc  Sc31  1  0.88605617  0.53448468  0.12624958  1
  Sc  Sc32  1  0.10957805  0.76459451  0.38122968  1
  Sc  Sc33  1  0.22854351  0.86928028  0.63929473  1
  Sc  Sc34  1  0.76834610  0.76489015  0.38931255  1
  Sc  Sc35  1  0.88043970  0.88252211  0.12714634  1
  N  N36  1  0.22654982  0.20346661  0.33075276  1
  N  N37  1  0.10809482  0.09697483  0.09137776  1
  N  N38  1  0.90106256  0.21680991  0.83430964  1
  N  N39  1  0.76813895  0.08550994  0.58790174  1
  N  N40  1  0.55493656  0.20667990  0.33104980  1
  N  N41  1  0.44463609  0.09660486  0.08349323  1
  N  N42  1  0.22231479  0.20226475  0.84624638  1
  N  N43  1  0.11751112  0.08988491  0.56190016  1
  N  N44  1  0.88585060  0.20593334  0.33793331  1
  N  N45  1  0.76535197  0.11748667  0.08390743  1
  N  N46  1  0.52812813  0.21794961  0.82236694  1
  N  N47  1  0.46497001  0.08206230  0.57085212  1
  N  N48  1  0.23545458  0.51902276  0.34215795  1
  N  N49  1  0.12311065  0.40479078  0.08070168  1
  N  N50  1  0.88769012  0.53872388  0.85928918  1
  N  N51  1  0.76040979  0.43975439  0.56991685  1
  N  N52  1  0.55375507  0.54096626  0.32702711  1
  N  N53  1  0.46690201  0.41636623  0.07576793  1
  N  N54  1  0.22211832  0.53956174  0.85554091  1
  N  N55  1  0.11259035  0.42473384  0.57285875  1
  N  N56  1  0.89811965  0.52180464  0.33761043  1
  N  N57  1  0.76586976  0.41766763  0.08117014  1
  N  N58  1  0.55489439  0.54043336  0.82925865  1
  N  N59  1  0.46663122  0.41741381  0.57671041  1
  N  N60  1  0.23387238  0.87929796  0.32690627  1
  N  N61  1  0.12058719  0.77127175  0.08544614  1
  N  N62  1  0.89548959  0.85764763  0.84201676  1
  N  N63  1  0.76919678  0.77578447  0.59785581  1
  N  N64  1  0.53561922  0.88323876  0.32264981  1
  N  N65  1  0.44539059  0.75916169  0.08109339  1
  N  N66  1  0.22184060  0.87619909  0.84893350  1
  N  N67  1  0.09156171  0.77062730  0.58915310  1
  N  N68  1  0.87385686  0.89298033  0.33234777  1
  N  N69  1  0.75089157  0.77426815  0.07725985  1
  N  N70  1  0.54823101  0.87706283  0.83250901  1
  N  N71  1  0.46506926  0.75237863  0.57496542  1
