# generated using pymatgen
data_Sc11Al25N36
_symmetry_space_group_name_H-M   'P 1'
_cell_length_a   9.92045249
_cell_length_b   9.90049023
_cell_length_c   10.07265704
_cell_angle_alpha   89.94353801
_cell_angle_beta   90.05894671
_cell_angle_gamma   60.26232665
_symmetry_Int_Tables_number   1
_chemical_formula_structural   Sc11Al25N36
_chemical_formula_sum   'Sc11 Al25 N36'
_cell_volume   859.02129666
_cell_formula_units_Z   1
loop_
 _symmetry_equiv_pos_site_id
 _symmetry_equiv_pos_as_xyz
  1  'x, y, z'
loop_
 _atom_site_type_symbol
 _atom_site_label
 _atom_site_symmetry_multiplicity
 _atom_site_fract_x
 _atom_site_fract_y
 _atom_site_fract_z
 _atom_site_occupancy
  Al  Al0  1  0.11582736  0.09456619  0.36882010  1
  Al  Al1  1  0.23085684  0.19259538  0.12456280  1
  Al  Al2  1  0.44588867  0.09333161  0.37530783  1
  Al  Al3  1  0.55787669  0.20687711  0.13298164  1
  Al  Al4  1  0.11103941  0.09644493  0.89292005  1
  Al  Al5  1  0.76935876  0.09888203  0.38508285  1
  Al  Al6  1  0.88357786  0.20702490  0.13624217  1
  Al  Al7  1  0.44159146  0.09561739  0.88682159  1
  Al  Al8  1  0.55271809  0.20384283  0.62514647  1
  Al  Al9  1  0.11793612  0.41563094  0.32726437  1
  Al  Al10  1  0.77271822  0.42585083  0.88681625  1
  Al  Al11  1  0.45252907  0.42119508  0.37935904  1
  Al  Al12  1  0.55605743  0.53687841  0.13034190  1
  Al  Al13  1  0.11414700  0.42112645  0.87137316  1
  Al  Al14  1  0.77401510  0.42802097  0.37460494  1
  Al  Al15  1  0.45036570  0.42602109  0.88175659  1
  Al  Al16  1  0.55814225  0.53835760  0.62623460  1
  Al  Al17  1  0.22957409  0.87561946  0.13080051  1
  Al  Al18  1  0.76620349  0.76686800  0.88393224  1
  Al  Al19  1  0.88283904  0.87234647  0.63682336  1
  Al  Al20  1  0.44763234  0.76137060  0.37741596  1
  Al  Al21  1  0.54325218  0.87809009  0.12915859  1
  Al  Al22  1  0.11390091  0.76560295  0.88890225  1
  Al  Al23  1  0.44448630  0.76154194  0.88299066  1
  Al  Al24  1  0.55682263  0.87531011  0.63148498  1
  Sc  Sc25  1  0.77018865  0.10490163  0.86531131  1
  Sc  Sc26  1  0.88932805  0.20897862  0.61346725  1
  Sc  Sc27  1  0.23409110  0.19624988  0.63249889  1
  Sc  Sc28  1  0.23561986  0.53224274  0.10789382  1
  Sc  Sc29  1  0.87764976  0.54528475  0.64010494  1
  Sc  Sc30  1  0.22959072  0.53932132  0.63533277  1
  Sc  Sc31  1  0.88315954  0.53593935  0.10661793  1
  Sc  Sc32  1  0.10951982  0.76203228  0.36741414  1
  Sc  Sc33  1  0.22664563  0.87084841  0.62564920  1
  Sc  Sc34  1  0.76999716  0.76327062  0.37603512  1
  Sc  Sc35  1  0.87938339  0.88491403  0.11641337  1
  N  N36  1  0.22928565  0.19867006  0.31996097  1
  N  N37  1  0.10785361  0.09450458  0.08443306  1
  N  N38  1  0.90176345  0.21716857  0.82620157  1
  N  N39  1  0.76794542  0.08668196  0.58346264  1
  N  N40  1  0.55590720  0.20560556  0.32395935  1
  N  N41  1  0.44808488  0.09430784  0.07661226  1
  N  N42  1  0.22579761  0.19661222  0.84724528  1
  N  N43  1  0.11704958  0.09256933  0.55415546  1
  N  N44  1  0.88589262  0.20526715  0.33110677  1
  N  N45  1  0.76538260  0.11800745  0.07363397  1
  N  N46  1  0.52793411  0.21815582  0.81534879  1
  N  N47  1  0.46442657  0.08330570  0.56354647  1
  N  N48  1  0.23609422  0.51611381  0.32951560  1
  N  N49  1  0.12332553  0.40427000  0.08232984  1
  N  N50  1  0.88174635  0.54179976  0.85945871  1
  N  N51  1  0.75900429  0.44020475  0.56068125  1
  N  N52  1  0.55338409  0.54109154  0.31986844  1
  N  N53  1  0.47062271  0.41417646  0.06903231  1
  N  N54  1  0.22579634  0.54261001  0.85739893  1
  N  N55  1  0.10977235  0.42821187  0.62745657  1
  N  N56  1  0.90002762  0.51943101  0.32630439  1
  N  N57  1  0.76513527  0.41594968  0.07481902  1
  N  N58  1  0.55560316  0.53982572  0.82105969  1
  N  N59  1  0.46595630  0.41728607  0.56843329  1
  N  N60  1  0.23471971  0.87803006  0.32208646  1
  N  N61  1  0.11916047  0.77489140  0.08039917  1
  N  N62  1  0.89610486  0.85659456  0.83511564  1
  N  N63  1  0.76727597  0.77890739  0.58659161  1
  N  N64  1  0.53555073  0.88235234  0.31652009  1
  N  N65  1  0.44534165  0.75882606  0.07306768  1
  N  N66  1  0.22198743  0.87611630  0.83873158  1
  N  N67  1  0.08994417  0.77195512  0.57788124  1
  N  N68  1  0.87335986  0.89411187  0.32420238  1
  N  N69  1  0.74944272  0.77699239  0.07242387  1
  N  N70  1  0.54889261  0.87694104  0.82455112  1
  N  N71  1  0.46508292  0.75224531  0.56886733  1
