# generated using pymatgen
data_Sc11Al25N36
_symmetry_space_group_name_H-M   'P 1'
_cell_length_a   10.25489814
_cell_length_b   10.19401241
_cell_length_c   9.12135695
_cell_angle_alpha   90.07444212
_cell_angle_beta   89.86925536
_cell_angle_gamma   60.33359365
_symmetry_Int_Tables_number   1
_chemical_formula_structural   Sc11Al25N36
_chemical_formula_sum   'Sc11 Al25 N36'
_cell_volume   828.54072031
_cell_formula_units_Z   1
loop_
 _symmetry_equiv_pos_site_id
 _symmetry_equiv_pos_as_xyz
  1  'x, y, z'
loop_
 _atom_site_type_symbol
 _atom_site_label
 _atom_site_symmetry_multiplicity
 _atom_site_fract_x
 _atom_site_fract_y
 _atom_site_fract_z
 _atom_site_occupancy
  Al  Al0  1  0.11475021  0.09514973  0.35064157  1
  Al  Al1  1  0.23135306  0.19489110  0.09269028  1
  Al  Al2  1  0.44295551  0.09369224  0.32664891  1
  Al  Al3  1  0.54830448  0.21307722  0.08850870  1
  Al  Al4  1  0.11216860  0.09588795  0.88027725  1
  Al  Al5  1  0.76717793  0.10580058  0.32818817  1
  Al  Al6  1  0.88582036  0.21003049  0.10066572  1
  Al  Al7  1  0.44629107  0.09562602  0.83965825  1
  Al  Al8  1  0.55948729  0.19912355  0.57731028  1
  Al  Al9  1  0.11796781  0.41528077  0.31998686  1
  Al  Al10  1  0.77118094  0.43138120  0.83722467  1
  Al  Al11  1  0.45253610  0.42254457  0.34155686  1
  Al  Al12  1  0.55659774  0.53506875  0.08463366  1
  Al  Al13  1  0.11538652  0.42105918  0.85206848  1
  Al  Al14  1  0.77393325  0.42585034  0.32909329  1
  Al  Al15  1  0.45106971  0.42678627  0.82607688  1
  Al  Al16  1  0.55781295  0.54220083  0.57975476  1
  Al  Al17  1  0.22784753  0.87330255  0.09933182  1
  Al  Al18  1  0.77235159  0.76378818  0.83196370  1
  Al  Al19  1  0.87716602  0.88155115  0.59409860  1
  Al  Al20  1  0.44524793  0.76471517  0.32447695  1
  Al  Al21  1  0.54924264  0.87609686  0.07599908  1
  Al  Al22  1  0.10979918  0.76233802  0.85226527  1
  Al  Al23  1  0.45182552  0.75527057  0.84414367  1
  Al  Al24  1  0.55048071  0.87683949  0.59274985  1
  Sc  Sc25  1  0.76871815  0.10096072  0.85239327  1
  Sc  Sc26  1  0.88423392  0.20551638  0.59245019  1
  Sc  Sc27  1  0.23332525  0.19967885  0.59730696  1
  Sc  Sc28  1  0.23771041  0.53198374  0.09435579  1
  Sc  Sc29  1  0.88937021  0.53642622  0.60026489  1
  Sc  Sc30  1  0.22650260  0.53488610  0.60119785  1
  Sc  Sc31  1  0.88390211  0.53725452  0.09317957  1
  Sc  Sc32  1  0.10956453  0.76560512  0.35041133  1
  Sc  Sc33  1  0.23003760  0.87042040  0.60645248  1
  Sc  Sc34  1  0.76237065  0.76746582  0.35378606  1
  Sc  Sc35  1  0.88284131  0.87499686  0.09915520  1
  N  N36  1  0.22715355  0.20414937  0.34683663  1
  N  N37  1  0.11132610  0.09388375  0.10521153  1
  N  N38  1  0.89873943  0.21473859  0.86653953  1
  N  N39  1  0.76478329  0.09067635  0.61564454  1
  N  N40  1  0.55333073  0.20323490  0.36461326  1
  N  N41  1  0.44759532  0.09085984  0.11547242  1
  N  N42  1  0.22897230  0.19522814  0.86776874  1
  N  N43  1  0.11100434  0.09513622  0.57774550  1
  N  N44  1  0.88513903  0.20701962  0.34441262  1
  N  N45  1  0.76391615  0.11379513  0.10854781  1
  N  N46  1  0.53071754  0.22187302  0.87914042  1
  N  N47  1  0.46542190  0.08683671  0.62885509  1
  N  N48  1  0.23103930  0.51841129  0.35487542  1
  N  N49  1  0.12254221  0.40790293  0.09938304  1
  N  N50  1  0.88196783  0.54347138  0.85591426  1
  N  N51  1  0.75888593  0.43563588  0.62461208  1
  N  N52  1  0.55562389  0.54610300  0.36796502  1
  N  N53  1  0.46604527  0.41969513  0.13240646  1
  N  N54  1  0.23130203  0.54071717  0.85443602  1
  N  N55  1  0.11390123  0.42310112  0.64039869  1
  N  N56  1  0.90233597  0.51723468  0.35350577  1
  N  N57  1  0.76530794  0.42270228  0.11702802  1
  N  N58  1  0.55479473  0.53596076  0.87505380  1
  N  N59  1  0.46789335  0.41578555  0.61208187  1
  N  N60  1  0.23460824  0.87728510  0.34669765  1
  N  N61  1  0.11904911  0.76919521  0.10336125  1
  N  N62  1  0.89358213  0.85706198  0.85866715  1
  N  N63  1  0.76544006  0.77795991  0.61084077  1
  N  N64  1  0.52807657  0.88714766  0.37868801  1
  N  N65  1  0.44718459  0.76029663  0.10894501  1
  N  N66  1  0.22332034  0.87449401  0.86259892  1
  N  N67  1  0.08972802  0.77302727  0.60635372  1
  N  N68  1  0.87314276  0.89523272  0.35709684  1
  N  N69  1  0.75266562  0.77058962  0.11851993  1
  N  N70  1  0.55545701  0.87438272  0.86661378  1
  N  N71  1  0.46586007  0.74941454  0.63254642  1
