# generated using pymatgen
data_Sc11Al25N36
_symmetry_space_group_name_H-M   'P 1'
_cell_length_a   9.91080109
_cell_length_b   9.89048793
_cell_length_c   10.08456823
_cell_angle_alpha   89.93047545
_cell_angle_beta   90.06061570
_cell_angle_gamma   60.25354807
_symmetry_Int_Tables_number   1
_chemical_formula_structural   Sc11Al25N36
_chemical_formula_sum   'Sc11 Al25 N36'
_cell_volume   858.25675621
_cell_formula_units_Z   1
loop_
 _symmetry_equiv_pos_site_id
 _symmetry_equiv_pos_as_xyz
  1  'x, y, z'
loop_
 _atom_site_type_symbol
 _atom_site_label
 _atom_site_symmetry_multiplicity
 _atom_site_fract_x
 _atom_site_fract_y
 _atom_site_fract_z
 _atom_site_occupancy
  Al  Al0  1  0.11589034  0.09459579  0.36882150  1
  Al  Al1  1  0.22947640  0.19523390  0.12689108  1
  Al  Al2  1  0.44572440  0.09347551  0.37527950  1
  Al  Al3  1  0.55765681  0.20702217  0.13294212  1
  Al  Al4  1  0.11105244  0.09678417  0.89281835  1
  Al  Al5  1  0.76935068  0.09888991  0.38498953  1
  Al  Al6  1  0.88360771  0.20716133  0.13622087  1
  Al  Al7  1  0.44117391  0.09595364  0.88664754  1
  Al  Al8  1  0.55271626  0.20385099  0.62514080  1
  Al  Al9  1  0.11745623  0.41630258  0.35152549  1
  Al  Al10  1  0.77313859  0.42604736  0.88680862  1
  Al  Al11  1  0.45246890  0.42144227  0.37954185  1
  Al  Al12  1  0.55594494  0.53704098  0.13024401  1
  Al  Al13  1  0.11482575  0.41983959  0.88219843  1
  Al  Al14  1  0.77387385  0.42822211  0.37483367  1
  Al  Al15  1  0.44971126  0.42621447  0.88182327  1
  Al  Al16  1  0.55815511  0.53851759  0.62647081  1
  Al  Al17  1  0.22954640  0.87566661  0.13060118  1
  Al  Al18  1  0.76671984  0.76629626  0.88379638  1
  Al  Al19  1  0.88287153  0.87238673  0.63698455  1
  Al  Al20  1  0.44756569  0.76145703  0.37737930  1
  Al  Al21  1  0.54319966  0.87818062  0.12904680  1
  Al  Al22  1  0.11394068  0.76499112  0.88887493  1
  Al  Al23  1  0.44454551  0.76150755  0.88324784  1
  Al  Al24  1  0.55689486  0.87509898  0.63168795  1
  Sc  Sc25  1  0.77014416  0.10497855  0.86552448  1
  Sc  Sc26  1  0.88938074  0.20884097  0.61343826  1
  Sc  Sc27  1  0.23378372  0.19678381  0.63162846  1
  Sc  Sc28  1  0.23479983  0.53119599  0.11112725  1
  Sc  Sc29  1  0.87975263  0.54407837  0.63953841  1
  Sc  Sc30  1  0.22906686  0.53844062  0.63500146  1
  Sc  Sc31  1  0.88474770  0.53503261  0.10938307  1
  Sc  Sc32  1  0.10963493  0.76223268  0.36797225  1
  Sc  Sc33  1  0.22695515  0.87056820  0.62623041  1
  Sc  Sc34  1  0.76981435  0.76331925  0.37655940  1
  Sc  Sc35  1  0.87951009  0.88462711  0.11654984  1
  N  N36  1  0.22844388  0.20025811  0.32037921  1
  N  N37  1  0.10801977  0.09505375  0.08430519  1
  N  N38  1  0.90176397  0.21721323  0.82597662  1
  N  N39  1  0.76792305  0.08664954  0.58318794  1
  N  N40  1  0.55585222  0.20571797  0.32384548  1
  N  N41  1  0.44722080  0.09486876  0.07647106  1
  N  N42  1  0.22491468  0.19819318  0.84450758  1
  N  N43  1  0.11734721  0.09202076  0.55407519  1
  N  N44  1  0.88583405  0.20532338  0.33104940  1
  N  N45  1  0.76535281  0.11801923  0.07362276  1
  N  N46  1  0.52784745  0.21821874  0.81515671  1
  N  N47  1  0.46446615  0.08309962  0.56344775  1
  N  N48  1  0.23603513  0.51637028  0.32971244  1
  N  N49  1  0.12341740  0.40398795  0.07502306  1
  N  N50  1  0.88371929  0.54086586  0.85752692  1
  N  N51  1  0.75913422  0.44054151  0.56093741  1
  N  N52  1  0.55340884  0.54109687  0.31974015  1
  N  N53  1  0.46978913  0.41467711  0.06889319  1
  N  N54  1  0.22461756  0.54163212  0.85515820  1
  N  N55  1  0.11020193  0.42754326  0.59900665  1
  N  N56  1  0.89993975  0.51954098  0.32644364  1
  N  N57  1  0.76534769  0.41632614  0.07461094  1
  N  N58  1  0.55551451  0.53990062  0.82115150  1
  N  N59  1  0.46573131  0.41762449  0.56853192  1
  N  N60  1  0.23465487  0.87818821  0.32168048  1
  N  N61  1  0.11959861  0.77399476  0.08009823  1
  N  N62  1  0.89606829  0.85668172  0.83497656  1
  N  N63  1  0.76761987  0.77826479  0.58698430  1
  N  N64  1  0.53550650  0.88251461  0.31627800  1
  N  N65  1  0.44534740  0.75889933  0.07303193  1
  N  N66  1  0.22197305  0.87610988  0.83901600  1
  N  N67  1  0.09027312  0.77167286  0.57824924  1
  N  N68  1  0.87339548  0.89398947  0.32415791  1
  N  N69  1  0.74982605  0.77619306  0.07211755  1
  N  N70  1  0.54885954  0.87696603  0.82458970  1
  N  N71  1  0.46512176  0.75229212  0.56863605  1
