# generated using pymatgen
data_Sc11Al25N36
_symmetry_space_group_name_H-M   'P 1'
_cell_length_a   10.35511945
_cell_length_b   10.28661685
_cell_length_c   8.84308344
_cell_angle_alpha   90.04412060
_cell_angle_beta   90.00389961
_cell_angle_gamma   60.33591152
_symmetry_Int_Tables_number   1
_chemical_formula_structural   Sc11Al25N36
_chemical_formula_sum   'Sc11 Al25 N36'
_cell_volume   818.50620156
_cell_formula_units_Z   1
loop_
 _symmetry_equiv_pos_site_id
 _symmetry_equiv_pos_as_xyz
  1  'x, y, z'
loop_
 _atom_site_type_symbol
 _atom_site_label
 _atom_site_symmetry_multiplicity
 _atom_site_fract_x
 _atom_site_fract_y
 _atom_site_fract_z
 _atom_site_occupancy
  Al  Al0  1  0.11550097  0.09421169  0.34743928  1
  Al  Al1  1  0.22993354  0.19708306  0.10644725  1
  Al  Al2  1  0.44599202  0.09290534  0.35593337  1
  Al  Al3  1  0.55354590  0.20990235  0.11925562  1
  Al  Al4  1  0.11194778  0.09599459  0.88144154  1
  Al  Al5  1  0.76823004  0.10335332  0.35599298  1
  Al  Al6  1  0.88356173  0.20934600  0.11295238  1
  Al  Al7  1  0.44293084  0.09606860  0.87516944  1
  Al  Al8  1  0.55395929  0.20283366  0.60855689  1
  Al  Al9  1  0.11828489  0.41628354  0.33226862  1
  Al  Al10  1  0.77371128  0.42868261  0.86815411  1
  Al  Al11  1  0.45354073  0.42332514  0.36637474  1
  Al  Al12  1  0.55485923  0.53870543  0.11409364  1
  Al  Al13  1  0.11514806  0.41993193  0.85456485  1
  Al  Al14  1  0.77179899  0.42756869  0.35741952  1
  Al  Al15  1  0.44983195  0.42624424  0.86201736  1
  Al  Al16  1  0.55849209  0.53896529  0.61692088  1
  Al  Al17  1  0.23063068  0.87106302  0.10692378  1
  Al  Al18  1  0.77039115  0.76338512  0.85781250  1
  Al  Al19  1  0.87859206  0.87781585  0.60962898  1
  Al  Al20  1  0.44751023  0.76097855  0.36369043  1
  Al  Al21  1  0.54467105  0.87564343  0.10829146  1
  Al  Al22  1  0.11015286  0.76337126  0.85671529  1
  Al  Al23  1  0.44762731  0.75861192  0.86536354  1
  Al  Al24  1  0.55530296  0.87607834  0.62474932  1
  Sc  Sc25  1  0.76787567  0.10375634  0.85237617  1
  Sc  Sc26  1  0.88853339  0.20658687  0.59836773  1
  Sc  Sc27  1  0.23385047  0.19687540  0.60478692  1
  Sc  Sc28  1  0.23449796  0.53238287  0.09961363  1
  Sc  Sc29  1  0.88702516  0.53995352  0.60635169  1
  Sc  Sc30  1  0.22834759  0.53494061  0.60673652  1
  Sc  Sc31  1  0.88702558  0.53414375  0.10080013  1
  Sc  Sc32  1  0.10827856  0.76604191  0.35238335  1
  Sc  Sc33  1  0.22802985  0.87187623  0.60869385  1
  Sc  Sc34  1  0.76335603  0.76874997  0.35477889  1
  Sc  Sc35  1  0.88235966  0.88009233  0.10003071  1
  N  N36  1  0.22787121  0.20350282  0.33860948  1
  N  N37  1  0.11077876  0.09384047  0.10562159  1
  N  N38  1  0.90011324  0.21361246  0.85505041  1
  N  N39  1  0.76570010  0.09172613  0.59591862  1
  N  N40  1  0.55304262  0.20818272  0.34219524  1
  N  N41  1  0.44710522  0.09584739  0.09675819  1
  N  N42  1  0.22795269  0.19464083  0.86205568  1
  N  N43  1  0.11251824  0.09410431  0.57334981  1
  N  N44  1  0.88551290  0.20715893  0.33899231  1
  N  N45  1  0.76416145  0.11459253  0.10046081  1
  N  N46  1  0.53260101  0.21530478  0.83684926  1
  N  N47  1  0.46478738  0.08220457  0.58154011  1
  N  N48  1  0.23323216  0.51915512  0.35109753  1
  N  N49  1  0.12208750  0.40807814  0.09451966  1
  N  N50  1  0.88293399  0.53982565  0.85437271  1
  N  N51  1  0.76026216  0.43625103  0.58409252  1
  N  N52  1  0.55250692  0.54320616  0.33700661  1
  N  N53  1  0.46494906  0.41827056  0.08858466  1
  N  N54  1  0.22863976  0.54072822  0.85358994  1
  N  N55  1  0.11417042  0.42266201  0.62751331  1
  N  N56  1  0.90194401  0.52136445  0.34990969  1
  N  N57  1  0.76554892  0.42191678  0.09599368  1
  N  N58  1  0.55756540  0.53785401  0.84192876  1
  N  N59  1  0.46571493  0.41868530  0.59046358  1
  N  N60  1  0.23611469  0.87500398  0.34014478  1
  N  N61  1  0.11778928  0.77046528  0.09575385  1
  N  N62  1  0.89172244  0.86129707  0.84764082  1
  N  N63  1  0.76472319  0.77816245  0.60790243  1
  N  N64  1  0.53324198  0.88230139  0.33089991  1
  N  N65  1  0.44573230  0.75727784  0.08589301  1
  N  N66  1  0.22276930  0.87641359  0.85818947  1
  N  N67  1  0.09138704  0.77229316  0.60601639  1
  N  N68  1  0.87461948  0.89216445  0.35093511  1
  N  N69  1  0.75550251  0.77048655  0.09328394  1
  N  N70  1  0.54956359  0.87777793  0.84867762  1
  N  N71  1  0.46499192  0.75267586  0.59543627  1
