# generated using pymatgen
data_Sc11Al25N36
_symmetry_space_group_name_H-M   'P 1'
_cell_length_a   10.35426653
_cell_length_b   10.28756528
_cell_length_c   8.85114842
_cell_angle_alpha   90.08126483
_cell_angle_beta   89.90562634
_cell_angle_gamma   60.31900905
_symmetry_Int_Tables_number   1
_chemical_formula_structural   Sc11Al25N36
_chemical_formula_sum   'Sc11 Al25 N36'
_cell_volume   819.11952458
_cell_formula_units_Z   1
loop_
 _symmetry_equiv_pos_site_id
 _symmetry_equiv_pos_as_xyz
  1  'x, y, z'
loop_
 _atom_site_type_symbol
 _atom_site_label
 _atom_site_symmetry_multiplicity
 _atom_site_fract_x
 _atom_site_fract_y
 _atom_site_fract_z
 _atom_site_occupancy
  Al  Al0  1  0.11535222  0.09438334  0.34752780  1
  Al  Al1  1  0.22996789  0.19600097  0.09799414  1
  Al  Al2  1  0.44331986  0.09366075  0.33183114  1
  Al  Al3  1  0.55002504  0.21231778  0.09593659  1
  Al  Al4  1  0.11174465  0.09634224  0.87741814  1
  Al  Al5  1  0.76860264  0.10328806  0.34113383  1
  Al  Al6  1  0.88502414  0.20969439  0.10576386  1
  Al  Al7  1  0.44533612  0.09602871  0.84762193  1
  Al  Al8  1  0.55781234  0.20000680  0.58142955  1
  Al  Al9  1  0.11744014  0.41631310  0.32696540  1
  Al  Al10  1  0.77150914  0.43043838  0.84264103  1
  Al  Al11  1  0.45233439  0.42287141  0.34652763  1
  Al  Al12  1  0.55704846  0.53448229  0.09062669  1
  Al  Al13  1  0.11558528  0.41978666  0.85471959  1
  Al  Al14  1  0.77389685  0.42609565  0.33750714  1
  Al  Al15  1  0.45091618  0.42691500  0.83137995  1
  Al  Al16  1  0.55737810  0.54239363  0.58426027  1
  Al  Al17  1  0.22728008  0.87350110  0.09987889  1
  Al  Al18  1  0.77079264  0.76356910  0.84658290  1
  Al  Al19  1  0.87851674  0.87866356  0.60691048  1
  Al  Al20  1  0.44534218  0.76386717  0.32829043  1
  Al  Al21  1  0.54773010  0.87688254  0.08254323  1
  Al  Al22  1  0.11056511  0.76299852  0.85450338  1
  Al  Al23  1  0.45091582  0.75557184  0.85073961  1
  Al  Al24  1  0.55238676  0.87566240  0.60232005  1
  Sc  Sc25  1  0.76722577  0.10377645  0.85254930  1
  Sc  Sc26  1  0.88726396  0.20516282  0.59534576  1
  Sc  Sc27  1  0.23316009  0.19873823  0.60116021  1
  Sc  Sc28  1  0.23669110  0.53184613  0.09696740  1
  Sc  Sc29  1  0.88814634  0.53879791  0.60371349  1
  Sc  Sc30  1  0.22638202  0.53513203  0.60292830  1
  Sc  Sc31  1  0.88542653  0.53480910  0.09667594  1
  Sc  Sc32  1  0.10829595  0.76638155  0.35176814  1
  Sc  Sc33  1  0.23092582  0.87011993  0.60725697  1
  Sc  Sc34  1  0.76298265  0.76852801  0.35411346  1
  Sc  Sc35  1  0.88293293  0.87771804  0.09927574  1
  N  N36  1  0.22730925  0.20398408  0.34257949  1
  N  N37  1  0.11060869  0.09437782  0.10668246  1
  N  N38  1  0.89890876  0.21392397  0.86279567  1
  N  N39  1  0.76560242  0.09123374  0.60374770  1
  N  N40  1  0.55251364  0.20342937  0.35806699  1
  N  N41  1  0.44672545  0.09201438  0.10906680  1
  N  N42  1  0.22799308  0.19516431  0.86554612  1
  N  N43  1  0.11244527  0.09398856  0.58004043  1
  N  N44  1  0.88604876  0.20680102  0.34232626  1
  N  N45  1  0.76433363  0.11387897  0.10809682  1
  N  N46  1  0.53248531  0.22073657  0.87286337  1
  N  N47  1  0.46420891  0.08682143  0.62166837  1
  N  N48  1  0.22992356  0.52004651  0.35332357  1
  N  N49  1  0.12223629  0.40831372  0.09603493  1
  N  N50  1  0.88255038  0.54154133  0.85494998  1
  N  N51  1  0.75992636  0.43522348  0.61500480  1
  N  N52  1  0.55496127  0.54632904  0.36153935  1
  N  N53  1  0.46438649  0.42030347  0.12671105  1
  N  N54  1  0.23193642  0.54003541  0.85328002  1
  N  N55  1  0.11367995  0.42308322  0.63283877  1
  N  N56  1  0.90152074  0.51932699  0.35198200  1
  N  N57  1  0.76595586  0.42211333  0.11266438  1
  N  N58  1  0.55566839  0.53519924  0.86958945  1
  N  N59  1  0.46686731  0.41652823  0.60526337  1
  N  N60  1  0.23496456  0.87630659  0.34305627  1
  N  N61  1  0.11806077  0.76949087  0.09740941  1
  N  N62  1  0.89206734  0.86049917  0.84998271  1
  N  N63  1  0.76514239  0.77771559  0.61114964  1
  N  N64  1  0.53072933  0.88528990  0.36795283  1
  N  N65  1  0.44688779  0.75966421  0.10230892  1
  N  N66  1  0.22313783  0.87586331  0.86306224  1
  N  N67  1  0.09171337  0.77265047  0.60786164  1
  N  N68  1  0.87472930  0.89225555  0.35392021  1
  N  N69  1  0.75498919  0.77032925  0.10372287  1
  N  N70  1  0.55291417  0.87550945  0.86129470  1
  N  N71  1  0.46479699  0.75006956  0.62715314  1
