# generated using pymatgen
data_Sc11Al25N36
_symmetry_space_group_name_H-M   'P 1'
_cell_length_a   10.04028450
_cell_length_b   10.00124089
_cell_length_c   9.70595055
_cell_angle_alpha   90.02530615
_cell_angle_beta   89.83598672
_cell_angle_gamma   60.32628329
_symmetry_Int_Tables_number   1
_chemical_formula_structural   Sc11Al25N36
_chemical_formula_sum   'Sc11 Al25 N36'
_cell_volume   846.80685460
_cell_formula_units_Z   1
loop_
 _symmetry_equiv_pos_site_id
 _symmetry_equiv_pos_as_xyz
  1  'x, y, z'
loop_
 _atom_site_type_symbol
 _atom_site_label
 _atom_site_symmetry_multiplicity
 _atom_site_fract_x
 _atom_site_fract_y
 _atom_site_fract_z
 _atom_site_occupancy
  Al  Al0  1  0.11428904  0.09454236  0.31626092  1
  Al  Al1  1  0.22975105  0.19550050  0.07457717  1
  Al  Al2  1  0.44050611  0.09564767  0.32167314  1
  Al  Al3  1  0.54750354  0.21219764  0.07959052  1
  Al  Al4  1  0.11126934  0.09927690  0.83705200  1
  Al  Al5  1  0.76786912  0.10825353  0.31666276  1
  Al  Al6  1  0.88816071  0.21073233  0.07933083  1
  Al  Al7  1  0.44561697  0.09559622  0.83035535  1
  Al  Al8  1  0.56075970  0.19973060  0.57419269  1
  Al  Al9  1  0.11847668  0.41314636  0.31667625  1
  Al  Al10  1  0.77148376  0.43173928  0.82929712  1
  Al  Al11  1  0.45242839  0.42217982  0.32946334  1
  Al  Al12  1  0.55590684  0.53720410  0.07915736  1
  Al  Al13  1  0.11466177  0.42343249  0.83622558  1
  Al  Al14  1  0.77584545  0.42352865  0.32195551  1
  Al  Al15  1  0.45017498  0.42706196  0.82354781  1
  Al  Al16  1  0.55881169  0.53953297  0.57492473  1
  Al  Al17  1  0.22663997  0.87304934  0.07011023  1
  Al  Al18  1  0.77374564  0.76463979  0.82031583  1
  Al  Al19  1  0.87417392  0.88573826  0.57324225  1
  Al  Al20  1  0.43997030  0.76842953  0.32241734  1
  Al  Al21  1  0.54867881  0.87607559  0.07378684  1
  Al  Al22  1  0.10531910  0.76085627  0.82392095  1
  Al  Al23  1  0.45425337  0.75477527  0.83237996  1
  Al  Al24  1  0.55087974  0.87752181  0.58192815  1
  Sc  Sc25  1  0.77126535  0.09722698  0.84691773  1
  Sc  Sc26  1  0.88407024  0.20394722  0.58115460  1
  Sc  Sc27  1  0.23257563  0.19787397  0.58269013  1
  Sc  Sc28  1  0.23408270  0.53499563  0.08487794  1
  Sc  Sc29  1  0.88910900  0.53542569  0.59264430  1
  Sc  Sc30  1  0.23032136  0.53156823  0.59156568  1
  Sc  Sc31  1  0.88408206  0.53773478  0.08480396  1
  Sc  Sc32  1  0.11437199  0.76502321  0.34519471  1
  Sc  Sc33  1  0.23073893  0.87150830  0.59831638  1
  Sc  Sc34  1  0.76332280  0.76453798  0.34796277  1
  Sc  Sc35  1  0.88653176  0.87213775  0.09492419  1
  N  N36  1  0.22347607  0.20206522  0.36174382  1
  N  N37  1  0.11323445  0.09165078  0.11688370  1
  N  N38  1  0.89625442  0.21815644  0.88030697  1
  N  N39  1  0.76535400  0.08922780  0.62883126  1
  N  N40  1  0.55461515  0.20457649  0.37428061  1
  N  N41  1  0.44530714  0.09256898  0.12496722  1
  N  N42  1  0.22830919  0.20040299  0.87618892  1
  N  N43  1  0.10803302  0.09832083  0.64355796  1
  N  N44  1  0.88948666  0.20447454  0.35817968  1
  N  N45  1  0.76507830  0.11410452  0.11389404  1
  N  N46  1  0.53027896  0.22089808  0.88566944  1
  N  N47  1  0.46513501  0.08651647  0.63569184  1
  N  N48  1  0.23351259  0.51598385  0.36324283  1
  N  N49  1  0.12267889  0.40667290  0.11725143  1
  N  N50  1  0.88400686  0.54337074  0.85812328  1
  N  N51  1  0.75910065  0.43326595  0.63498111  1
  N  N52  1  0.55471595  0.54437969  0.37644748  1
  N  N53  1  0.46526030  0.41942214  0.13511097  1
  N  N54  1  0.22732697  0.54111496  0.85673335  1
  N  N55  1  0.11585344  0.42079870  0.64276220  1
  N  N56  1  0.90199062  0.51543054  0.36221787  1
  N  N57  1  0.76557731  0.42169618  0.12709363  1
  N  N58  1  0.55487448  0.53813579  0.88291309  1
  N  N59  1  0.47015810  0.41440406  0.62676757  1
  N  N60  1  0.23134640  0.88616366  0.37676397  1
  N  N61  1  0.12313510  0.77045850  0.12648147  1
  N  N62  1  0.89582391  0.85247073  0.87436124  1
  N  N63  1  0.76609577  0.77928352  0.61407689  1
  N  N64  1  0.52670233  0.88895266  0.38556233  1
  N  N65  1  0.44290681  0.76278835  0.12214287  1
  N  N66  1  0.22458134  0.86922698  0.86698032  1
  N  N67  1  0.08683234  0.77309027  0.61631592  1
  N  N68  1  0.87287643  0.89792253  0.36730480  1
  N  N69  1  0.75160509  0.77058462  0.13213588  1
  N  N70  1  0.55642256  0.87384322  0.87664051  1
  N  N71  1  0.46959083  0.74799501  0.63764162  1
