# generated using pymatgen
data_Sc11Al25N36
_symmetry_space_group_name_H-M   'P 1'
_cell_length_a   10.20817706
_cell_length_b   10.15065325
_cell_length_c   9.25388289
_cell_angle_alpha   90.05156821
_cell_angle_beta   89.85125731
_cell_angle_gamma   60.33926738
_symmetry_Int_Tables_number   1
_chemical_formula_structural   Sc11Al25N36
_chemical_formula_sum   'Sc11 Al25 N36'
_cell_volume   833.23704175
_cell_formula_units_Z   1
loop_
 _symmetry_equiv_pos_site_id
 _symmetry_equiv_pos_as_xyz
  1  'x, y, z'
loop_
 _atom_site_type_symbol
 _atom_site_label
 _atom_site_symmetry_multiplicity
 _atom_site_fract_x
 _atom_site_fract_y
 _atom_site_fract_z
 _atom_site_occupancy
  Al  Al0  1  0.11435660  0.09540333  0.35234762  1
  Al  Al1  1  0.23169357  0.19467172  0.08906053  1
  Al  Al2  1  0.44258050  0.09408841  0.32529825  1
  Al  Al3  1  0.54779352  0.21303087  0.08551679  1
  Al  Al4  1  0.11223148  0.09593499  0.87916187  1
  Al  Al5  1  0.76675184  0.10690171  0.32363090  1
  Al  Al6  1  0.88630239  0.21015190  0.09634084  1
  Al  Al7  1  0.44664328  0.09522019  0.83681350  1
  Al  Al8  1  0.56000100  0.19918124  0.57649686  1
  Al  Al9  1  0.11834325  0.41464440  0.31818409  1
  Al  Al10  1  0.77108416  0.43189294  0.83518994  1
  Al  Al11  1  0.45266780  0.42234628  0.33815504  1
  Al  Al12  1  0.55636133  0.53561382  0.08262205  1
  Al  Al13  1  0.11500052  0.42200364  0.84919794  1
  Al  Al14  1  0.77418185  0.42540872  0.32641882  1
  Al  Al15  1  0.45099509  0.42681436  0.82519525  1
  Al  Al16  1  0.55792508  0.54181685  0.57832073  1
  Al  Al17  1  0.22787143  0.87281341  0.09441894  1
  Al  Al18  1  0.77303947  0.76418112  0.82734854  1
  Al  Al19  1  0.87585148  0.88348111  0.58480095  1
  Al  Al20  1  0.44450944  0.76519910  0.32362178  1
  Al  Al21  1  0.54958185  0.87584940  0.07522573  1
  Al  Al22  1  0.10799967  0.76209565  0.84311060  1
  Al  Al23  1  0.45259526  0.75515927  0.84077861  1
  Al  Al24  1  0.55033177  0.87713615  0.58927005  1
  Sc  Sc25  1  0.76955685  0.09913607  0.85190574  1
  Sc  Sc26  1  0.88233881  0.20607966  0.59064385  1
  Sc  Sc27  1  0.23357366  0.20019909  0.59487492  1
  Sc  Sc28  1  0.23708083  0.53291143  0.09225976  1
  Sc  Sc29  1  0.88962437  0.53585118  0.59838628  1
  Sc  Sc30  1  0.22743704  0.53405469  0.59932234  1
  Sc  Sc31  1  0.88369974  0.53783607  0.09149037  1
  Sc  Sc32  1  0.11108116  0.76506016  0.34928412  1
  Sc  Sc33  1  0.23016505  0.87070621  0.60479128  1
  Sc  Sc34  1  0.76230925  0.76649663  0.35295192  1
  Sc  Sc35  1  0.88389583  0.87359345  0.09895756  1
  N  N36  1  0.22693684  0.20399522  0.35032925  1
  N  N37  1  0.11199480  0.09320442  0.10383121  1
  N  N38  1  0.89808807  0.21543568  0.86907859  1
  N  N39  1  0.76444775  0.09011739  0.62049194  1
  N  N40  1  0.55377135  0.20356905  0.36742023  1
  N  N41  1  0.44753626  0.09099498  0.11814469  1
  N  N42  1  0.22919414  0.19601464  0.86895612  1
  N  N43  1  0.10981804  0.09629464  0.58061684  1
  N  N44  1  0.88525449  0.20679765  0.34680591  1
  N  N45  1  0.76397122  0.11367174  0.10920529  1
  N  N46  1  0.53034299  0.22174381  0.88082361  1
  N  N47  1  0.46599943  0.08640458  0.63078638  1
  N  N48  1  0.23197778  0.51750494  0.35641816  1
  N  N49  1  0.12268948  0.40762621  0.10268166  1
  N  N50  1  0.88220664  0.54389240  0.85649011  1
  N  N51  1  0.75841841  0.43604745  0.62795440  1
  N  N52  1  0.55566889  0.54551930  0.37030761  1
  N  N53  1  0.46626686  0.41946946  0.13309554  1
  N  N54  1  0.23038088  0.54107668  0.85482287  1
  N  N55  1  0.11400744  0.42328439  0.64220504  1
  N  N56  1  0.90253370  0.51642131  0.35485493  1
  N  N57  1  0.76513521  0.42274541  0.11909301  1
  N  N58  1  0.55457889  0.53668379  0.87706504  1
  N  N59  1  0.46853666  0.41543524  0.61607342  1
  N  N60  1  0.23460185  0.87800598  0.35295365  1
  N  N61  1  0.11985327  0.76912873  0.11059643  1
  N  N62  1  0.89407563  0.85539093  0.86469675  1
  N  N63  1  0.76572469  0.77833589  0.61076738  1
  N  N64  1  0.52748503  0.88765838  0.38073622  1
  N  N65  1  0.44665003  0.76063138  0.11243488  1
  N  N66  1  0.22333197  0.87323688  0.86280867  1
  N  N67  1  0.08843499  0.77326517  0.60911750  1
  N  N68  1  0.87268669  0.89641332  0.36014407  1
  N  N69  1  0.75205993  0.77056594  0.12377492  1
  N  N70  1  0.55625172  0.87398966  0.86940163  1
  N  N71  1  0.46681705  0.74924984  0.63396680  1
