# generated using pymatgen
data_Sc11Al25N36
_symmetry_space_group_name_H-M   'P 1'
_cell_length_a   9.86752669
_cell_length_b   9.83893184
_cell_length_c   10.18573185
_cell_angle_alpha   90.04879701
_cell_angle_beta   89.78490579
_cell_angle_gamma   60.19328815
_symmetry_Int_Tables_number   1
_chemical_formula_structural   Sc11Al25N36
_chemical_formula_sum   'Sc11 Al25 N36'
_cell_volume   858.05776559
_cell_formula_units_Z   1
loop_
 _symmetry_equiv_pos_site_id
 _symmetry_equiv_pos_as_xyz
  1  'x, y, z'
loop_
 _atom_site_type_symbol
 _atom_site_label
 _atom_site_symmetry_multiplicity
 _atom_site_fract_x
 _atom_site_fract_y
 _atom_site_fract_z
 _atom_site_occupancy
  Al  Al0  1  0.11301485  0.09558539  0.30553418  1
  Al  Al1  1  0.22771989  0.19850330  0.06872211  1
  Al  Al2  1  0.44063307  0.09636964  0.31368938  1
  Al  Al3  1  0.55013964  0.21054857  0.07210055  1
  Al  Al4  1  0.11223949  0.09929590  0.82999317  1
  Al  Al5  1  0.76914814  0.10544161  0.31202771  1
  Al  Al6  1  0.88719072  0.21027370  0.07277767  1
  Al  Al7  1  0.44337270  0.09671286  0.82344085  1
  Al  Al8  1  0.55983444  0.20041300  0.56715779  1
  Al  Al9  1  0.11636353  0.41558789  0.31148694  1
  Al  Al10  1  0.77283954  0.43014488  0.82063449  1
  Al  Al11  1  0.45090395  0.42240236  0.32003823  1
  Al  Al12  1  0.55547604  0.53785488  0.07172764  1
  Al  Al13  1  0.11435403  0.42288356  0.82028111  1
  Al  Al14  1  0.77563474  0.42428888  0.31374876  1
  Al  Al15  1  0.44896826  0.42730891  0.81667761  1
  Al  Al16  1  0.55955326  0.53715560  0.56975256  1
  Al  Al17  1  0.22729216  0.87332212  0.06293000  1
  Al  Al18  1  0.77319121  0.76507030  0.81136019  1
  Al  Al19  1  0.87651117  0.88319243  0.56693474  1
  Al  Al20  1  0.44076627  0.76757027  0.31686807  1
  Al  Al21  1  0.54841969  0.87607063  0.06653200  1
  Al  Al22  1  0.10712695  0.76153409  0.81391125  1
  Al  Al23  1  0.45211782  0.75663669  0.82327275  1
  Al  Al24  1  0.55304255  0.87683122  0.57451376  1
  Sc  Sc25  1  0.77209982  0.09965794  0.82847107  1
  Sc  Sc26  1  0.88741265  0.20260366  0.56553965  1
  Sc  Sc27  1  0.23328170  0.19531562  0.56691451  1
  Sc  Sc28  1  0.23327912  0.53325613  0.06775390  1
  Sc  Sc29  1  0.88715704  0.53632542  0.58225038  1
  Sc  Sc30  1  0.23038552  0.53203397  0.58013566  1
  Sc  Sc31  1  0.88441390  0.53661856  0.06782022  1
  Sc  Sc32  1  0.11480438  0.76319274  0.32846123  1
  Sc  Sc33  1  0.23045698  0.87145131  0.58311726  1
  Sc  Sc34  1  0.76581236  0.76362438  0.33341617  1
  Sc  Sc35  1  0.88629703  0.87380335  0.07593115  1
  N  N36  1  0.22255928  0.20199877  0.35739673  1
  N  N37  1  0.11289353  0.09204963  0.11641182  1
  N  N38  1  0.89635456  0.21840872  0.88408886  1
  N  N39  1  0.76704263  0.09027326  0.62290704  1
  N  N40  1  0.55359037  0.20509098  0.37499406  1
  N  N41  1  0.44554435  0.09304818  0.12463979  1
  N  N42  1  0.22592322  0.20423917  0.87903374  1
  N  N43  1  0.10908730  0.09811447  0.64581862  1
  N  N44  1  0.88996885  0.20450228  0.35488916  1
  N  N45  1  0.76575937  0.11321090  0.12021168  1
  N  N46  1  0.53206090  0.21993176  0.88583019  1
  N  N47  1  0.46337397  0.08730461  0.63642458  1
  N  N48  1  0.23286498  0.51639515  0.36653006  1
  N  N49  1  0.12007306  0.40978575  0.12365316  1
  N  N50  1  0.88558352  0.54249817  0.85348133  1
  N  N51  1  0.76072725  0.42910455  0.63620091  1
  N  N52  1  0.55417162  0.54295413  0.37772388  1
  N  N53  1  0.46318139  0.42004126  0.13388656  1
  N  N54  1  0.22518520  0.54022750  0.85292339  1
  N  N55  1  0.11722999  0.41756137  0.63763856  1
  N  N56  1  0.90002830  0.51594414  0.36711920  1
  N  N57  1  0.76563668  0.42296357  0.12808176  1
  N  N58  1  0.55458469  0.53886122  0.88218682  1
  N  N59  1  0.46987248  0.41389424  0.62937675  1
  N  N60  1  0.22933381  0.88708833  0.37353526  1
  N  N61  1  0.12315162  0.76892596  0.12235388  1
  N  N62  1  0.89497053  0.85526956  0.86889950  1
  N  N63  1  0.76659535  0.77981369  0.61849168  1
  N  N64  1  0.52824256  0.88875206  0.38610575  1
  N  N65  1  0.44361283  0.76249484  0.12417266  1
  N  N66  1  0.22499924  0.86986846  0.86937916  1
  N  N67  1  0.08845544  0.77324958  0.62191880  1
  N  N68  1  0.87494690  0.89588422  0.37477492  1
  N  N69  1  0.75426553  0.76989903  0.12822512  1
  N  N70  1  0.55520326  0.87412895  0.87683328  1
  N  N71  1  0.46943133  0.74787819  0.63639036  1
