# generated using pymatgen
data_Sc11Al25N36
_symmetry_space_group_name_H-M   'P 1'
_cell_length_a   10.39424299
_cell_length_b   10.32528661
_cell_length_c   8.73663475
_cell_angle_alpha   90.05399001
_cell_angle_beta   89.98108564
_cell_angle_gamma   60.32962181
_symmetry_Int_Tables_number   1
_chemical_formula_structural   Sc11Al25N36
_chemical_formula_sum   'Sc11 Al25 N36'
_cell_volume   814.70870980
_cell_formula_units_Z   1
loop_
 _symmetry_equiv_pos_site_id
 _symmetry_equiv_pos_as_xyz
  1  'x, y, z'
loop_
 _atom_site_type_symbol
 _atom_site_label
 _atom_site_symmetry_multiplicity
 _atom_site_fract_x
 _atom_site_fract_y
 _atom_site_fract_z
 _atom_site_occupancy
  Al  Al0  1  0.11530414  0.09429096  0.34659177  1
  Al  Al1  1  0.22941895  0.19732249  0.10510274  1
  Al  Al2  1  0.44555666  0.09314579  0.35316700  1
  Al  Al3  1  0.55280983  0.20965615  0.11430273  1
  Al  Al4  1  0.11215444  0.09602241  0.87795184  1
  Al  Al5  1  0.76843126  0.10335843  0.35184334  1
  Al  Al6  1  0.88432055  0.20957504  0.10903791  1
  Al  Al7  1  0.44302042  0.09613992  0.87148524  1
  Al  Al8  1  0.55482419  0.20277474  0.60297464  1
  Al  Al9  1  0.11772086  0.41643919  0.33446318  1
  Al  Al10  1  0.77344787  0.42912268  0.85945185  1
  Al  Al11  1  0.45317672  0.42321397  0.35898258  1
  Al  Al12  1  0.55584549  0.53780543  0.10722641  1
  Al  Al13  1  0.11526244  0.41986009  0.85480303  1
  Al  Al14  1  0.77258691  0.42685721  0.35267718  1
  Al  Al15  1  0.44961289  0.42662843  0.85621335  1
  Al  Al16  1  0.55764486  0.53976513  0.60857542  1
  Al  Al17  1  0.22939925  0.87181397  0.10339726  1
  Al  Al18  1  0.77065547  0.76376473  0.85589422  1
  Al  Al19  1  0.87857012  0.87826799  0.60739582  1
  Al  Al20  1  0.44659258  0.76151422  0.35281681  1
  Al  Al21  1  0.54545260  0.87615672  0.10457749  1
  Al  Al22  1  0.10975587  0.76347838  0.85472088  1
  Al  Al23  1  0.44837790  0.75807026  0.86147174  1
  Al  Al24  1  0.55496399  0.87584125  0.62243549  1
  Sc  Sc25  1  0.76774916  0.10345366  0.85229250  1
  Sc  Sc26  1  0.88860250  0.20571467  0.59745117  1
  Sc  Sc27  1  0.23370074  0.19715847  0.60406121  1
  Sc  Sc28  1  0.23381224  0.53246757  0.09930727  1
  Sc  Sc29  1  0.88740053  0.54001826  0.60556811  1
  Sc  Sc30  1  0.22846911  0.53469311  0.60545350  1
  Sc  Sc31  1  0.88692665  0.53376869  0.09996053  1
  Sc  Sc32  1  0.10832456  0.76628052  0.35229187  1
  Sc  Sc33  1  0.22933513  0.87123351  0.60778359  1
  Sc  Sc34  1  0.76308700  0.76871260  0.35438625  1
  Sc  Sc35  1  0.88283076  0.87931688  0.09985300  1
  N  N36  1  0.22739570  0.20358293  0.33976848  1
  N  N37  1  0.11106591  0.09388809  0.10606333  1
  N  N38  1  0.89965095  0.21322804  0.85890375  1
  N  N39  1  0.76574234  0.09202793  0.59658479  1
  N  N40  1  0.55291667  0.20733217  0.34584761  1
  N  N41  1  0.44645758  0.09578734  0.09924166  1
  N  N42  1  0.22797663  0.19505692  0.86295228  1
  N  N43  1  0.11259920  0.09392928  0.57874057  1
  N  N44  1  0.88631818  0.20698316  0.33981559  1
  N  N45  1  0.76441319  0.11402428  0.10436649  1
  N  N46  1  0.53356351  0.21560076  0.84413289  1
  N  N47  1  0.46426319  0.08292786  0.58732751  1
  N  N48  1  0.23211593  0.51994557  0.35150640  1
  N  N49  1  0.12169218  0.40827315  0.09484424  1
  N  N50  1  0.88349752  0.53991445  0.85403331  1
  N  N51  1  0.76114176  0.43532478  0.59375471  1
  N  N52  1  0.55352589  0.54328213  0.34364181  1
  N  N53  1  0.46381072  0.41901973  0.09751942  1
  N  N54  1  0.22909790  0.54015114  0.85332414  1
  N  N55  1  0.11421094  0.42266789  0.62508574  1
  N  N56  1  0.90115459  0.52131934  0.35088967  1
  N  N57  1  0.76590727  0.42203982  0.10020179  1
  N  N58  1  0.55684430  0.53759144  0.84873819  1
  N  N59  1  0.46530070  0.41853314  0.59452218  1
  N  N60  1  0.23530171  0.87559017  0.34123270  1
  N  N61  1  0.11741926  0.77025656  0.09558431  1
  N  N62  1  0.89140944  0.86185304  0.84744006  1
  N  N63  1  0.76452599  0.77822488  0.60986804  1
  N  N64  1  0.53358564  0.88256488  0.33491881  1
  N  N65  1  0.44576190  0.75755515  0.09120992  1
  N  N66  1  0.22335808  0.87610174  0.86061652  1
  N  N67  1  0.09214307  0.77219861  0.60814974  1
  N  N68  1  0.87498892  0.89155069  0.35382898  1
  N  N69  1  0.75630686  0.77009929  0.09424051  1
  N  N70  1  0.54989217  0.87777682  0.85249535  1
  N  N71  1  0.46468485  0.75288100  0.60298472  1
