# generated using pymatgen
data_Sc5Al13N18
_symmetry_space_group_name_H-M   'P 1'
_cell_length_a   9.92065865
_cell_length_b   9.91005063
_cell_length_c   10.07400918
_cell_angle_alpha   89.67393600
_cell_angle_beta   89.86692763
_cell_angle_gamma   60.13803221
_symmetry_Int_Tables_number   1
_chemical_formula_structural   Sc5Al13N18
_chemical_formula_sum   'Sc10 Al26 N36'
_cell_volume   858.90400668
_cell_formula_units_Z   2
loop_
 _symmetry_equiv_pos_site_id
 _symmetry_equiv_pos_as_xyz
  1  'x, y, z'
loop_
 _atom_site_type_symbol
 _atom_site_label
 _atom_site_symmetry_multiplicity
 _atom_site_fract_x
 _atom_site_fract_y
 _atom_site_fract_z
 _atom_site_occupancy
  Sc  Sc0  1  0.09533409  0.10582156  0.37020494  1
  Sc  Sc1  1  0.45158431  0.09665728  0.36113327  1
  Sc  Sc2  1  0.10269935  0.09946826  0.88106980  1
  Sc  Sc3  1  0.22354831  0.21254953  0.62341240  1
  Sc  Sc4  1  0.44745485  0.10134333  0.87888768  1
  Sc  Sc5  1  0.88485856  0.54111773  0.61177436  1
  Sc  Sc6  1  0.10444120  0.75169489  0.35841017  1
  Sc  Sc7  1  0.45489895  0.74649738  0.36599278  1
  Sc  Sc8  1  0.21540128  0.86798378  0.62283328  1
  Sc  Sc9  1  0.45256203  0.75156581  0.86481207  1
  Al  Al10  1  0.21800646  0.21269189  0.13551165  1
  Al  Al11  1  0.78043281  0.08990303  0.82264375  1
  Al  Al12  1  0.87643828  0.21292622  0.63522499  1
  Al  Al13  1  0.55297452  0.21420822  0.12942288  1
  Al  Al14  1  0.77368691  0.09602983  0.31212146  1
  Al  Al15  1  0.88260805  0.21220707  0.12718791  1
  Al  Al16  1  0.55759587  0.20997737  0.63257536  1
  Al  Al17  1  0.11457702  0.43187681  0.37704254  1
  Al  Al18  1  0.22939741  0.52986359  0.12795960  1
  Al  Al19  1  0.77791015  0.42940989  0.88392351  1
  Al  Al20  1  0.44821039  0.42291820  0.38231980  1
  Al  Al21  1  0.55886137  0.53058464  0.13028511  1
  Al  Al22  1  0.10390863  0.43772660  0.88534811  1
  Al  Al23  1  0.22109515  0.54229884  0.63366320  1
  Al  Al24  1  0.77114219  0.42185064  0.37927042  1
  Al  Al25  1  0.89201042  0.53352014  0.13428323  1
  Al  Al26  1  0.44753335  0.42668309  0.88005444  1
  Al  Al27  1  0.55958070  0.52715302  0.63354301  1
  Al  Al28  1  0.22421260  0.87044265  0.13369565  1
  Al  Al29  1  0.78556634  0.76391837  0.82157435  1
  Al  Al30  1  0.87561692  0.88363289  0.56547403  1
  Al  Al31  1  0.56747090  0.86373600  0.07830531  1
  Al  Al32  1  0.11359648  0.75302155  0.88864177  1
  Al  Al33  1  0.78015322  0.76287947  0.31805506  1
  Al  Al34  1  0.88245610  0.87529466  0.06886433  1
  Al  Al35  1  0.56984153  0.86905003  0.57187395  1
  N  N36  1  0.21126696  0.22527791  0.32487819  1
  N  N37  1  0.10920508  0.09650288  0.09661255  1
  N  N38  1  0.87052615  0.21957175  0.82974240  1
  N  N39  1  0.77996249  0.09076939  0.62511639  1
  N  N40  1  0.56047742  0.22087997  0.31960591  1
  N  N41  1  0.44450562  0.09542127  0.10217792  1
  N  N42  1  0.21127588  0.22795405  0.83248884  1
  N  N43  1  0.08684524  0.10902676  0.58478383  1
  N  N44  1  0.86647744  0.21957215  0.31559632  1
  N  N45  1  0.77797245  0.09090794  0.11275589  1
  N  N46  1  0.56074143  0.21838401  0.82550295  1
  N  N47  1  0.46367824  0.08952943  0.58658970  1
  N  N48  1  0.24020408  0.51356743  0.31462915  1
  N  N49  1  0.10862706  0.43080741  0.07727364  1
  N  N50  1  0.88976723  0.53768602  0.83172146  1
  N  N51  1  0.76435247  0.41709545  0.56741390  1
  N  N52  1  0.56506974  0.51421805  0.31759498  1
  N  N53  1  0.44502557  0.42806980  0.06928072  1
  N  N54  1  0.22250215  0.53915746  0.82896881  1
  N  N55  1  0.11987404  0.44216575  0.56367922  1
  N  N56  1  0.89110366  0.53404204  0.33461087  1
  N  N57  1  0.77779985  0.43097682  0.07522385  1
  N  N58  1  0.56828313  0.51625142  0.82323122  1
  N  N59  1  0.44097204  0.43047436  0.57558127  1
  N  N60  1  0.22034076  0.87179448  0.32530739  1
  N  N61  1  0.11424895  0.75587191  0.08929112  1
  N  N62  1  0.88998349  0.87236550  0.87894938  1
  N  N63  1  0.77188231  0.78371648  0.63306948  1
  N  N64  1  0.58132207  0.85574659  0.37974169  1
  N  N65  1  0.44768238  0.75654364  0.09791970  1
  N  N66  1  0.21171272  0.86218019  0.83355444  1
  N  N67  1  0.09855731  0.75077593  0.57380601  1
  N  N68  1  0.86020782  0.89103565  0.37357678  1
  N  N69  1  0.78281407  0.76045634  0.12851680  1
  N  N70  1  0.58376639  0.86044702  0.88837030  1
  N  N71  1  0.46562240  0.74909293  0.59924411  1
