# generated using pymatgen
data_Sc5Al13N18
_symmetry_space_group_name_H-M   'P 1'
_cell_length_a   9.90956036
_cell_length_b   9.90734063
_cell_length_c   10.04607414
_cell_angle_alpha   89.73646040
_cell_angle_beta   89.77924869
_cell_angle_gamma   60.11497396
_symmetry_Int_Tables_number   1
_chemical_formula_structural   Sc5Al13N18
_chemical_formula_sum   'Sc10 Al26 N36'
_cell_volume   855.13598728
_cell_formula_units_Z   2
loop_
 _symmetry_equiv_pos_site_id
 _symmetry_equiv_pos_as_xyz
  1  'x, y, z'
loop_
 _atom_site_type_symbol
 _atom_site_label
 _atom_site_symmetry_multiplicity
 _atom_site_fract_x
 _atom_site_fract_y
 _atom_site_fract_z
 _atom_site_occupancy
  Sc  Sc0  1  0.09568647  0.10398282  0.36741864  1
  Sc  Sc1  1  0.45170489  0.09610923  0.35784930  1
  Sc  Sc2  1  0.10109061  0.09932831  0.88120531  1
  Sc  Sc3  1  0.22166296  0.21247104  0.62122044  1
  Sc  Sc4  1  0.44729611  0.10340386  0.87702393  1
  Sc  Sc5  1  0.88297241  0.54249394  0.61260261  1
  Sc  Sc6  1  0.10564058  0.75135482  0.35717550  1
  Sc  Sc7  1  0.45784356  0.74546223  0.36843761  1
  Sc  Sc8  1  0.21716206  0.86776124  0.62305999  1
  Sc  Sc9  1  0.45165925  0.75126948  0.86683778  1
  Al  Al10  1  0.21793529  0.21245420  0.13510242  1
  Al  Al11  1  0.77474785  0.10039817  0.88292571  1
  Al  Al12  1  0.87351829  0.21018174  0.63301783  1
  Al  Al13  1  0.55956866  0.21253303  0.13355016  1
  Al  Al14  1  0.76880315  0.10568620  0.37843163  1
  Al  Al15  1  0.87838036  0.21049692  0.13150639  1
  Al  Al16  1  0.56026221  0.20894781  0.63018653  1
  Al  Al17  1  0.11339844  0.43215356  0.37621356  1
  Al  Al18  1  0.23081826  0.52781550  0.12713812  1
  Al  Al19  1  0.77808434  0.42729660  0.88177788  1
  Al  Al20  1  0.44742806  0.42368665  0.38139436  1
  Al  Al21  1  0.55921730  0.52983144  0.12913669  1
  Al  Al22  1  0.10390792  0.43715500  0.88443968  1
  Al  Al23  1  0.22107923  0.54170004  0.63364735  1
  Al  Al24  1  0.77208163  0.42217010  0.37805687  1
  Al  Al25  1  0.89181701  0.53124006  0.13090723  1
  Al  Al26  1  0.44838477  0.42542775  0.87823952  1
  Al  Al27  1  0.55967708  0.52740448  0.63284310  1
  Al  Al28  1  0.22609030  0.86901717  0.13426331  1
  Al  Al29  1  0.78512336  0.76522836  0.82615716  1
  Al  Al30  1  0.88075051  0.87992292  0.57795558  1
  Al  Al31  1  0.56614893  0.86468028  0.07660416  1
  Al  Al32  1  0.11195025  0.75372728  0.89055303  1
  Al  Al33  1  0.78083421  0.76206915  0.31329544  1
  Al  Al34  1  0.88496270  0.87419907  0.08352796  1
  Al  Al35  1  0.56968234  0.87126728  0.57234142  1
  N  N36  1  0.21066260  0.22498860  0.32511302  1
  N  N37  1  0.10775137  0.09598755  0.09830052  1
  N  N38  1  0.86844404  0.21637027  0.82355184  1
  N  N39  1  0.77356562  0.10056971  0.57246571  1
  N  N40  1  0.56415882  0.21931320  0.32075068  1
  N  N41  1  0.44607012  0.09583182  0.10326949  1
  N  N42  1  0.21041630  0.22697786  0.83156025  1
  N  N43  1  0.08600228  0.10716423  0.58309662  1
  N  N44  1  0.86375588  0.21736213  0.31675932  1
  N  N45  1  0.77284270  0.10175948  0.07493082  1
  N  N46  1  0.56674227  0.21570702  0.81966085  1
  N  N47  1  0.46214732  0.09122715  0.58613756  1
  N  N48  1  0.24043149  0.51209853  0.31399783  1
  N  N49  1  0.10929255  0.42963670  0.07626854  1
  N  N50  1  0.88887246  0.53749594  0.83230411  1
  N  N51  1  0.76488541  0.41718647  0.56698361  1
  N  N52  1  0.56541582  0.51409426  0.31667132  1
  N  N53  1  0.44642433  0.42571997  0.06846438  1
  N  N54  1  0.22278488  0.53857749  0.82890033  1
  N  N55  1  0.11795549  0.44340582  0.56354401  1
  N  N56  1  0.89093715  0.53325966  0.33198518  1
  N  N57  1  0.77867308  0.42757867  0.07384406  1
  N  N58  1  0.56815703  0.51615854  0.82261594  1
  N  N59  1  0.44002186  0.43181335  0.57491808  1
  N  N60  1  0.22433021  0.86949598  0.32555055  1
  N  N61  1  0.11658578  0.75437504  0.09039156  1
  N  N62  1  0.89098106  0.87184275  0.87960574  1
  N  N63  1  0.77104403  0.78589359  0.63573385  1
  N  N64  1  0.58393974  0.85597101  0.38033796  1
  N  N65  1  0.44841406  0.75559952  0.09596187  1
  N  N66  1  0.21133495  0.86213206  0.83403793  1
  N  N67  1  0.09801440  0.75172558  0.57456377  1
  N  N68  1  0.86570513  0.88966557  0.34794588  1
  N  N69  1  0.78109847  0.75716762  0.12338378  1
  N  N70  1  0.58008037  0.86336496  0.88641842  1
  N  N71  1  0.46701400  0.74899402  0.59788287  1
