# generated using pymatgen
data_Sc5Al13N18
_symmetry_space_group_name_H-M   'P 1'
_cell_length_a   9.92693050
_cell_length_b   9.91578354
_cell_length_c   10.06013212
_cell_angle_alpha   89.48774031
_cell_angle_beta   89.53240713
_cell_angle_gamma   60.14805160
_symmetry_Int_Tables_number   1
_chemical_formula_structural   Sc5Al13N18
_chemical_formula_sum   'Sc10 Al26 N36'
_cell_volume   858.81768682
_cell_formula_units_Z   2
loop_
 _symmetry_equiv_pos_site_id
 _symmetry_equiv_pos_as_xyz
  1  'x, y, z'
loop_
 _atom_site_type_symbol
 _atom_site_label
 _atom_site_symmetry_multiplicity
 _atom_site_fract_x
 _atom_site_fract_y
 _atom_site_fract_z
 _atom_site_occupancy
  Sc  Sc0  1  0.09313088  0.10630410  0.37029955  1
  Sc  Sc1  1  0.45470400  0.09618400  0.33534393  1
  Sc  Sc2  1  0.10308222  0.10228639  0.87548627  1
  Sc  Sc3  1  0.22009353  0.21569191  0.61431338  1
  Sc  Sc4  1  0.45593415  0.09287186  0.83351047  1
  Sc  Sc5  1  0.88226401  0.54182263  0.61253698  1
  Sc  Sc6  1  0.10474790  0.75185449  0.36084470  1
  Sc  Sc7  1  0.45688793  0.75097611  0.34530103  1
  Sc  Sc8  1  0.21831913  0.86721710  0.61406832  1
  Sc  Sc9  1  0.45675518  0.75091621  0.85058129  1
  Al  Al10  1  0.21845133  0.21231851  0.13349914  1
  Al  Al11  1  0.77795454  0.09075434  0.82265261  1
  Al  Al12  1  0.87400243  0.21388360  0.63680648  1
  Al  Al13  1  0.56080433  0.20360177  0.06672177  1
  Al  Al14  1  0.76808640  0.09936036  0.31428984  1
  Al  Al15  1  0.88169014  0.21186959  0.12836992  1
  Al  Al16  1  0.56614425  0.20467824  0.57127622  1
  Al  Al17  1  0.11243860  0.43345458  0.37646222  1
  Al  Al18  1  0.22996734  0.52847197  0.12941826  1
  Al  Al19  1  0.77796836  0.42813196  0.88487776  1
  Al  Al20  1  0.44422298  0.42985901  0.38481561  1
  Al  Al21  1  0.55872985  0.52792801  0.12929973  1
  Al  Al22  1  0.10526860  0.43560562  0.88531622  1
  Al  Al23  1  0.21913023  0.54357472  0.63617706  1
  Al  Al24  1  0.76947817  0.42181083  0.37964707  1
  Al  Al25  1  0.89026126  0.53431580  0.13462965  1
  Al  Al26  1  0.44503799  0.42941316  0.88113764  1
  Al  Al27  1  0.55862165  0.52718759  0.63478744  1
  Al  Al28  1  0.22363330  0.87002538  0.11346136  1
  Al  Al29  1  0.78793040  0.76207956  0.82298264  1
  Al  Al30  1  0.87589068  0.88314622  0.56819934  1
  Al  Al31  1  0.56544677  0.86860968  0.07360970  1
  Al  Al32  1  0.11227999  0.75330288  0.88711030  1
  Al  Al33  1  0.77965907  0.76433062  0.32011998  1
  Al  Al34  1  0.88194219  0.87470983  0.07192086  1
  Al  Al35  1  0.56901333  0.86956463  0.57290198  1
  N  N36  1  0.21145701  0.22510603  0.32746840  1
  N  N37  1  0.10932530  0.09555900  0.09570858  1
  N  N38  1  0.87004327  0.21901592  0.83040767  1
  N  N39  1  0.77537769  0.09225699  0.63050677  1
  N  N40  1  0.56901944  0.21437216  0.38143415  1
  N  N41  1  0.44640505  0.09469908  0.11076348  1
  N  N42  1  0.21323716  0.22903905  0.82709057  1
  N  N43  1  0.08382234  0.11055105  0.58710242  1
  N  N44  1  0.86493326  0.22008932  0.31553127  1
  N  N45  1  0.77413356  0.09096913  0.12074031  1
  N  N46  1  0.57042616  0.20988021  0.87761350  1
  N  N47  1  0.46489048  0.08716114  0.60955968  1
  N  N48  1  0.24014947  0.51283278  0.31540725  1
  N  N49  1  0.10819787  0.43000326  0.07797361  1
  N  N50  1  0.89028622  0.53644729  0.83291938  1
  N  N51  1  0.76246425  0.41664395  0.56743362  1
  N  N52  1  0.56430789  0.51404252  0.31721058  1
  N  N53  1  0.44262785  0.43104472  0.07305155  1
  N  N54  1  0.22181427  0.53886524  0.83098664  1
  N  N55  1  0.11632091  0.44662380  0.56277606  1
  N  N56  1  0.88901056  0.53488433  0.33472670  1
  N  N57  1  0.77754452  0.43007854  0.07574986  1
  N  N58  1  0.56944881  0.51283959  0.82496526  1
  N  N59  1  0.43594678  0.43725987  0.58056587  1
  N  N60  1  0.22218870  0.87053926  0.35097675  1
  N  N61  1  0.11301141  0.75609420  0.09184248  1
  N  N62  1  0.88979292  0.87269370  0.88135120  1
  N  N63  1  0.77197992  0.78333709  0.63424944  1
  N  N64  1  0.58004533  0.86072147  0.38426617  1
  N  N65  1  0.44765808  0.75855832  0.10487332  1
  N  N66  1  0.21386785  0.86216840  0.84151355  1
  N  N67  1  0.09607377  0.75244407  0.57980002  1
  N  N68  1  0.86109365  0.89129867  0.37511362  1
  N  N69  1  0.78046985  0.76149129  0.12982484  1
  N  N70  1  0.58544207  0.85931416  0.88842597  1
  N  N71  1  0.46949909  0.74971884  0.61343666  1
