# generated using pymatgen
data_Sc5Al13N18
_symmetry_space_group_name_H-M   'P 1'
_cell_length_a   9.83615198
_cell_length_b   9.81775084
_cell_length_c   10.40249175
_cell_angle_alpha   89.13231817
_cell_angle_beta   89.78323915
_cell_angle_gamma   59.90190057
_symmetry_Int_Tables_number   1
_chemical_formula_structural   Sc5Al13N18
_chemical_formula_sum   'Sc10 Al26 N36'
_cell_volume   869.00260098
_cell_formula_units_Z   2
loop_
 _symmetry_equiv_pos_site_id
 _symmetry_equiv_pos_as_xyz
  1  'x, y, z'
loop_
 _atom_site_type_symbol
 _atom_site_label
 _atom_site_symmetry_multiplicity
 _atom_site_fract_x
 _atom_site_fract_y
 _atom_site_fract_z
 _atom_site_occupancy
  Sc  Sc0  1  0.10204138  0.09925772  0.30415398  1
  Sc  Sc1  1  0.44961868  0.10030328  0.31748054  1
  Sc  Sc2  1  0.09916517  0.10370440  0.82962249  1
  Sc  Sc3  1  0.21753873  0.21432194  0.56558489  1
  Sc  Sc4  1  0.45225508  0.09781092  0.81819171  1
  Sc  Sc5  1  0.88330356  0.54901724  0.57436322  1
  Sc  Sc6  1  0.10421894  0.75761786  0.32561304  1
  Sc  Sc7  1  0.45146791  0.75870131  0.31658411  1
  Sc  Sc8  1  0.22356604  0.87001118  0.57960494  1
  Sc  Sc9  1  0.45616095  0.75320904  0.83518028  1
  Al  Al10  1  0.22130402  0.21121217  0.05855959  1
  Al  Al11  1  0.77586684  0.09758233  0.81376031  1
  Al  Al12  1  0.87925839  0.20100482  0.56112777  1
  Al  Al13  1  0.56374324  0.19924314  0.06105015  1
  Al  Al14  1  0.77279872  0.09704973  0.31483659  1
  Al  Al15  1  0.88284879  0.20082701  0.06190489  1
  Al  Al16  1  0.56400593  0.20344172  0.56250641  1
  Al  Al17  1  0.10333285  0.42750009  0.30239868  1
  Al  Al18  1  0.23172503  0.53160659  0.12521241  1
  Al  Al19  1  0.77168707  0.42917913  0.88436111  1
  Al  Al20  1  0.44451146  0.43055536  0.38172258  1
  Al  Al21  1  0.56254121  0.52493526  0.12742688  1
  Al  Al22  1  0.10767274  0.43612179  0.82138596  1
  Al  Al23  1  0.23046873  0.53805798  0.64049771  1
  Al  Al24  1  0.76999432  0.42640004  0.37810120  1
  Al  Al25  1  0.88932170  0.54416973  0.06302507  1
  Al  Al26  1  0.44540255  0.43104128  0.88477132  1
  Al  Al27  1  0.56109204  0.52641487  0.63322058  1
  Al  Al28  1  0.22053671  0.86460314  0.05580326  1
  Al  Al29  1  0.78357797  0.76592600  0.81822556  1
  Al  Al30  1  0.87719229  0.88146700  0.56864734  1
  Al  Al31  1  0.56356081  0.87054899  0.06400996  1
  Al  Al32  1  0.10106493  0.76315554  0.81824250  1
  Al  Al33  1  0.78103507  0.75969404  0.31298900  1
  Al  Al34  1  0.88977678  0.87171458  0.06297057  1
  Al  Al35  1  0.56577723  0.87153457  0.56585681  1
  N  N36  1  0.20999783  0.22171571  0.36367229  1
  N  N37  1  0.11036433  0.09216196  0.09417319  1
  N  N38  1  0.86739565  0.20948365  0.87959605  1
  N  N39  1  0.77466871  0.09690707  0.62818528  1
  N  N40  1  0.56892718  0.21066548  0.37918599  1
  N  N41  1  0.44572910  0.09487056  0.10756679  1
  N  N42  1  0.21612244  0.22678561  0.87721078  1
  N  N43  1  0.08608579  0.10934910  0.62399561  1
  N  N44  1  0.87522273  0.20325358  0.37285475  1
  N  N45  1  0.77818523  0.09061712  0.12702937  1
  N  N46  1  0.56997514  0.20821121  0.87781006  1
  N  N47  1  0.46020868  0.09018630  0.60948183  1
  N  N48  1  0.24066165  0.51164446  0.31330038  1
  N  N49  1  0.10617073  0.42775806  0.11484148  1
  N  N50  1  0.88885512  0.54484604  0.87064967  1
  N  N51  1  0.76177674  0.42262301  0.56522217  1
  N  N52  1  0.56587751  0.51424353  0.31082883  1
  N  N53  1  0.44512048  0.42968692  0.07003776  1
  N  N54  1  0.23122677  0.53839085  0.83057692  1
  N  N55  1  0.11382509  0.43760361  0.63689248  1
  N  N56  1  0.89029297  0.53929349  0.36174675  1
  N  N57  1  0.77519348  0.43018112  0.07291986  1
  N  N58  1  0.56992086  0.51021140  0.81719239  1
  N  N59  1  0.43687743  0.43867902  0.57091791  1
  N  N60  1  0.22265139  0.87127338  0.37776834  1
  N  N61  1  0.10861607  0.76167650  0.11473880  1
  N  N62  1  0.88815227  0.87568910  0.87688868  1
  N  N63  1  0.76939602  0.78358981  0.63601070  1
  N  N64  1  0.57725997  0.86161799  0.38129076  1
  N  N65  1  0.44579330  0.75965426  0.10086525  1
  N  N66  1  0.21407041  0.85963684  0.87088734  1
  N  N67  1  0.09219677  0.76041244  0.62620640  1
  N  N68  1  0.86647483  0.88333502  0.38147456  1
  N  N69  1  0.78136371  0.76131039  0.12551207  1
  N  N70  1  0.58069665  0.86463850  0.88520826  1
  N  N71  1  0.46819240  0.75396360  0.62221416  1
