# generated using pymatgen
data_Sc5Al13N18
_symmetry_space_group_name_H-M   'P 1'
_cell_length_a   9.89500640
_cell_length_b   9.89018276
_cell_length_c   10.14428161
_cell_angle_alpha   89.64737437
_cell_angle_beta   89.86963603
_cell_angle_gamma   60.14933127
_symmetry_Int_Tables_number   1
_chemical_formula_structural   Sc5Al13N18
_chemical_formula_sum   'Sc10 Al26 N36'
_cell_volume   861.02441247
_cell_formula_units_Z   2
loop_
 _symmetry_equiv_pos_site_id
 _symmetry_equiv_pos_as_xyz
  1  'x, y, z'
loop_
 _atom_site_type_symbol
 _atom_site_label
 _atom_site_symmetry_multiplicity
 _atom_site_fract_x
 _atom_site_fract_y
 _atom_site_fract_z
 _atom_site_occupancy
  Sc  Sc0  1  0.09665858  0.10410170  0.36979859  1
  Sc  Sc1  1  0.45125401  0.09638081  0.36119492  1
  Sc  Sc2  1  0.10220401  0.09989001  0.88390890  1
  Sc  Sc3  1  0.22361366  0.21179066  0.62435663  1
  Sc  Sc4  1  0.44694752  0.10257045  0.88126457  1
  Sc  Sc5  1  0.88518744  0.54109952  0.61393670  1
  Sc  Sc6  1  0.10478752  0.75130733  0.35948596  1
  Sc  Sc7  1  0.45398436  0.74529184  0.37151120  1
  Sc  Sc8  1  0.21460968  0.86836042  0.62621937  1
  Sc  Sc9  1  0.45192599  0.75127930  0.86907396  1
  Al  Al10  1  0.21783040  0.21297383  0.13612211  1
  Al  Al11  1  0.78057351  0.09045639  0.82174680  1
  Al  Al12  1  0.87721230  0.21287527  0.63437472  1
  Al  Al13  1  0.55343619  0.21432044  0.13049652  1
  Al  Al14  1  0.77378116  0.09601653  0.31351367  1
  Al  Al15  1  0.88246977  0.21248548  0.12901127  1
  Al  Al16  1  0.55739101  0.20991775  0.63230174  1
  Al  Al17  1  0.11430233  0.43152349  0.37725838  1
  Al  Al18  1  0.22946992  0.52985363  0.12834600  1
  Al  Al19  1  0.77801263  0.42931579  0.88402282  1
  Al  Al20  1  0.44841163  0.42278569  0.38228908  1
  Al  Al21  1  0.55891052  0.53106438  0.13111849  1
  Al  Al22  1  0.10418048  0.43771334  0.88554326  1
  Al  Al23  1  0.22154235  0.54177477  0.63333485  1
  Al  Al24  1  0.77184911  0.42237614  0.37955040  1
  Al  Al25  1  0.89231241  0.53343185  0.13405037  1
  Al  Al26  1  0.44789859  0.42663443  0.88017791  1
  Al  Al27  1  0.55959628  0.52737926  0.63408569  1
  Al  Al28  1  0.22483220  0.86945194  0.13370660  1
  Al  Al29  1  0.78459849  0.76509484  0.82140188  1
  Al  Al30  1  0.87545927  0.88354150  0.56503208  1
  Al  Al31  1  0.56739618  0.86394660  0.07815441  1
  Al  Al32  1  0.11356397  0.75259524  0.88952467  1
  Al  Al33  1  0.77975525  0.76260559  0.31710748  1
  Al  Al34  1  0.88230010  0.87585306  0.06829840  1
  Al  Al35  1  0.56961387  0.86941761  0.57112449  1
  N  N36  1  0.21093254  0.22534239  0.32358234  1
  N  N37  1  0.10901117  0.09661482  0.09721521  1
  N  N38  1  0.87120239  0.22002732  0.82750793  1
  N  N39  1  0.78016473  0.09084536  0.62441787  1
  N  N40  1  0.56023904  0.22096412  0.31906595  1
  N  N41  1  0.44460320  0.09561068  0.10228005  1
  N  N42  1  0.21096887  0.22766206  0.83213815  1
  N  N43  1  0.08750377  0.10810268  0.58234352  1
  N  N44  1  0.86682405  0.21970126  0.31599312  1
  N  N45  1  0.77821851  0.09123749  0.11318207  1
  N  N46  1  0.56043526  0.21868768  0.82383035  1
  N  N47  1  0.46325883  0.09009825  0.58418818  1
  N  N48  1  0.24013679  0.51335205  0.31400416  1
  N  N49  1  0.10899931  0.43070005  0.07628331  1
  N  N50  1  0.88967502  0.53825781  0.83181049  1
  N  N51  1  0.76456385  0.41778753  0.56671734  1
  N  N52  1  0.56538571  0.51439856  0.31700627  1
  N  N53  1  0.44539365  0.42792352  0.06867844  1
  N  N54  1  0.22275518  0.53909451  0.82791093  1
  N  N55  1  0.12002077  0.44152204  0.56287760  1
  N  N56  1  0.89144563  0.53376790  0.33282120  1
  N  N57  1  0.77798939  0.43067962  0.07448904  1
  N  N58  1  0.56830389  0.51667347  0.82231436  1
  N  N59  1  0.44130116  0.43047625  0.57459876  1
  N  N60  1  0.22117062  0.87038808  0.32221558  1
  N  N61  1  0.11441777  0.75531137  0.08800544  1
  N  N62  1  0.88942949  0.87314021  0.87932606  1
  N  N63  1  0.77125487  0.78429251  0.63400133  1
  N  N64  1  0.58109621  0.85482112  0.38001072  1
  N  N65  1  0.44777257  0.75600846  0.09519199  1
  N  N66  1  0.21097322  0.86294635  0.83464586  1
  N  N67  1  0.09914524  0.75053789  0.57314966  1
  N  N68  1  0.85988187  0.89065037  0.37431251  1
  N  N69  1  0.78259620  0.76098661  0.12873510  1
  N  N70  1  0.58298145  0.86139138  0.88900273  1
  N  N71  1  0.46439781  0.74936183  0.59749965  1
