# generated using pymatgen
data_Sc5Al13N18
_symmetry_space_group_name_H-M   'P 1'
_cell_length_a   9.88223166
_cell_length_b   9.83427091
_cell_length_c   10.18723584
_cell_angle_alpha   89.74838157
_cell_angle_beta   89.98382741
_cell_angle_gamma   60.11067596
_symmetry_Int_Tables_number   1
_chemical_formula_structural   Sc5Al13N18
_chemical_formula_sum   'Sc10 Al26 N36'
_cell_volume   858.34566472
_cell_formula_units_Z   2
loop_
 _symmetry_equiv_pos_site_id
 _symmetry_equiv_pos_as_xyz
  1  'x, y, z'
loop_
 _atom_site_type_symbol
 _atom_site_label
 _atom_site_symmetry_multiplicity
 _atom_site_fract_x
 _atom_site_fract_y
 _atom_site_fract_z
 _atom_site_occupancy
  Sc  Sc0  1  0.09926284  0.10082229  0.30514984  1
  Sc  Sc1  1  0.44823209  0.09790661  0.31692178  1
  Sc  Sc2  1  0.09849605  0.10232056  0.82939205  1
  Sc  Sc3  1  0.21812680  0.21398220  0.56711647  1
  Sc  Sc4  1  0.45382795  0.09572898  0.81694000  1
  Sc  Sc5  1  0.88334607  0.54505994  0.56744606  1
  Sc  Sc6  1  0.10457007  0.75144045  0.35115034  1
  Sc  Sc7  1  0.45282745  0.75277145  0.31441607  1
  Sc  Sc8  1  0.22063878  0.86876636  0.57950627  1
  Sc  Sc9  1  0.45931297  0.75113752  0.82122083  1
  Al  Al10  1  0.22208018  0.21160455  0.05496474  1
  Al  Al11  1  0.77836003  0.09513960  0.81117206  1
  Al  Al12  1  0.87533702  0.20876419  0.56184548  1
  Al  Al13  1  0.56139371  0.20649910  0.05906231  1
  Al  Al14  1  0.77059804  0.10132445  0.31294584  1
  Al  Al15  1  0.87756302  0.21054202  0.05951989  1
  Al  Al16  1  0.56052331  0.20964051  0.56262763  1
  Al  Al17  1  0.10351673  0.42749568  0.29853253  1
  Al  Al18  1  0.22921857  0.53227218  0.11866114  1
  Al  Al19  1  0.77458616  0.42341620  0.81176045  1
  Al  Al20  1  0.45416330  0.42046858  0.31598077  1
  Al  Al21  1  0.56242107  0.53119473  0.05990220  1
  Al  Al22  1  0.10448192  0.43622017  0.82074729  1
  Al  Al23  1  0.22140105  0.54610946  0.63684099  1
  Al  Al24  1  0.77654103  0.42618533  0.30991741  1
  Al  Al25  1  0.88599316  0.53984116  0.05889209  1
  Al  Al26  1  0.45215430  0.42487605  0.82602564  1
  Al  Al27  1  0.55956296  0.52883928  0.56251893  1
  Al  Al28  1  0.22707094  0.86958366  0.05625426  1
  Al  Al29  1  0.78558000  0.76322143  0.81455408  1
  Al  Al30  1  0.87532951  0.88106902  0.56023207  1
  Al  Al31  1  0.56359300  0.87069791  0.05979117  1
  Al  Al32  1  0.10885387  0.75263173  0.88449941  1
  Al  Al33  1  0.77915338  0.76075106  0.30656579  1
  Al  Al34  1  0.88072855  0.87794342  0.06589194  1
  Al  Al35  1  0.56766665  0.86945385  0.55989974  1
  N  N36  1  0.20885079  0.22340526  0.36027902  1
  N  N37  1  0.10913119  0.09489437  0.08948533  1
  N  N38  1  0.86432809  0.21619122  0.87602813  1
  N  N39  1  0.77597528  0.09482519  0.62223572  1
  N  N40  1  0.56480198  0.21501257  0.37521068  1
  N  N41  1  0.44604142  0.09576395  0.10124645  1
  N  N42  1  0.21705621  0.22525601  0.86916280  1
  N  N43  1  0.08518368  0.10882825  0.61884863  1
  N  N44  1  0.86819757  0.21549639  0.37220773  1
  N  N45  1  0.77698232  0.09512695  0.12279372  1
  N  N46  1  0.56973733  0.21160313  0.87344906  1
  N  N47  1  0.46184568  0.08770773  0.60346035  1
  N  N48  1  0.23611742  0.51356668  0.31019528  1
  N  N49  1  0.10481218  0.42824450  0.10707739  1
  N  N50  1  0.88472411  0.54051296  0.86662924  1
  N  N51  1  0.76802217  0.41809476  0.62502096  1
  N  N52  1  0.56700619  0.51818782  0.37294173  1
  N  N53  1  0.45362489  0.42330231  0.11001030  1
  N  N54  1  0.22471554  0.54205228  0.83597184  1
  N  N55  1  0.11084178  0.43993071  0.63395179  1
  N  N56  1  0.88910928  0.53970910  0.35466115  1
  N  N57  1  0.77865640  0.42762072  0.11987736  1
  N  N58  1  0.56908248  0.51893252  0.87561382  1
  N  N59  1  0.44508634  0.42806794  0.62212732  1
  N  N60  1  0.22313575  0.87387426  0.36918287  1
  N  N61  1  0.11122566  0.75813240  0.08619320  1
  N  N62  1  0.88670365  0.87627212  0.87505259  1
  N  N63  1  0.77150714  0.78032153  0.62899096  1
  N  N64  1  0.57685347  0.86027557  0.37295280  1
  N  N65  1  0.44838181  0.75916579  0.09819038  1
  N  N66  1  0.21923464  0.85897921  0.86342441  1
  N  N67  1  0.09686813  0.74837808  0.57054681  1
  N  N68  1  0.85929237  0.88951549  0.36854349  1
  N  N69  1  0.78006763  0.76023041  0.11830766  1
  N  N70  1  0.58134932  0.86306156  0.87747915  1
  N  N71  1  0.47026409  0.74787310  0.60872397  1
