# generated using pymatgen
data_Sc5Al13N18
_symmetry_space_group_name_H-M   'P 1'
_cell_length_a   9.83149474
_cell_length_b   9.77407139
_cell_length_c   10.45791167
_cell_angle_alpha   89.22946960
_cell_angle_beta   89.97593365
_cell_angle_gamma   59.87338067
_symmetry_Int_Tables_number   1
_chemical_formula_structural   Sc5Al13N18
_chemical_formula_sum   'Sc10 Al26 N36'
_cell_volume   869.08893706
_cell_formula_units_Z   2
loop_
 _symmetry_equiv_pos_site_id
 _symmetry_equiv_pos_as_xyz
  1  'x, y, z'
loop_
 _atom_site_type_symbol
 _atom_site_label
 _atom_site_symmetry_multiplicity
 _atom_site_fract_x
 _atom_site_fract_y
 _atom_site_fract_z
 _atom_site_occupancy
  Sc  Sc0  1  0.10199775  0.10320355  0.30511824  1
  Sc  Sc1  1  0.44925136  0.10150311  0.31657548  1
  Sc  Sc2  1  0.09680018  0.10296288  0.82982200  1
  Sc  Sc3  1  0.22273790  0.20859578  0.57251903  1
  Sc  Sc4  1  0.45570740  0.09408667  0.81955851  1
  Sc  Sc5  1  0.88381372  0.53791673  0.62321522  1
  Sc  Sc6  1  0.10377087  0.76015151  0.32272193  1
  Sc  Sc7  1  0.45035421  0.75993139  0.31625386  1
  Sc  Sc8  1  0.22181254  0.87135476  0.57913000  1
  Sc  Sc9  1  0.45478588  0.75329283  0.83580875  1
  Al  Al10  1  0.22575985  0.20384118  0.05633638  1
  Al  Al11  1  0.77599750  0.09837893  0.81464347  1
  Al  Al12  1  0.87719221  0.20287272  0.56006076  1
  Al  Al13  1  0.56386927  0.19977291  0.06082253  1
  Al  Al14  1  0.77279575  0.09782115  0.31569894  1
  Al  Al15  1  0.88280756  0.20109514  0.06314128  1
  Al  Al16  1  0.56419209  0.20423829  0.56365649  1
  Al  Al17  1  0.10942440  0.43737055  0.37784888  1
  Al  Al18  1  0.22943414  0.52767366  0.12865603  1
  Al  Al19  1  0.77395943  0.43292429  0.88808750  1
  Al  Al20  1  0.44541889  0.43119425  0.38276252  1
  Al  Al21  1  0.56055058  0.52573407  0.12701982  1
  Al  Al22  1  0.10357888  0.44321857  0.88726010  1
  Al  Al23  1  0.22440081  0.53729059  0.63504741  1
  Al  Al24  1  0.77000146  0.42837129  0.37830741  1
  Al  Al25  1  0.89192330  0.53352290  0.13498918  1
  Al  Al26  1  0.44375541  0.43045547  0.88260813  1
  Al  Al27  1  0.55935241  0.52769315  0.63372226  1
  Al  Al28  1  0.22030600  0.86336019  0.05662238  1
  Al  Al29  1  0.78332886  0.76597612  0.81891278  1
  Al  Al30  1  0.87820946  0.88053272  0.56970197  1
  Al  Al31  1  0.56614383  0.86755772  0.06516625  1
  Al  Al32  1  0.10081958  0.76127019  0.81651974  1
  Al  Al33  1  0.77855866  0.76512891  0.31695463  1
  Al  Al34  1  0.88947728  0.87027959  0.06388654  1
  Al  Al35  1  0.56694399  0.87060736  0.56664441  1
  N  N36  1  0.21517826  0.21690392  0.36949196  1
  N  N37  1  0.11082926  0.09262510  0.09559902  1
  N  N38  1  0.86603990  0.21091702  0.88316357  1
  N  N39  1  0.77469599  0.09826974  0.62970020  1
  N  N40  1  0.56943251  0.21037239  0.38099566  1
  N  N41  1  0.44633567  0.09416216  0.10714230  1
  N  N42  1  0.21882260  0.22144937  0.87135100  1
  N  N43  1  0.08233537  0.11256932  0.62600725  1
  N  N44  1  0.87543020  0.20361963  0.37364256  1
  N  N45  1  0.77791075  0.09136983  0.12863073  1
  N  N46  1  0.57089755  0.20710496  0.87909381  1
  N  N47  1  0.46389966  0.08947086  0.61352211  1
  N  N48  1  0.24076778  0.51051220  0.31157609  1
  N  N49  1  0.10675145  0.43470243  0.07382849  1
  N  N50  1  0.89005091  0.53510430  0.83137584  1
  N  N51  1  0.75874492  0.42695665  0.56114418  1
  N  N52  1  0.56555403  0.51435926  0.30963079  1
  N  N53  1  0.44202179  0.43161104  0.06800755  1
  N  N54  1  0.22661853  0.53096330  0.82245795  1
  N  N55  1  0.11250842  0.45357725  0.55960222  1
  N  N56  1  0.89121201  0.53146346  0.32447108  1
  N  N57  1  0.77668226  0.43320246  0.07517232  1
  N  N58  1  0.57046311  0.50934835  0.81793946  1
  N  N59  1  0.43580499  0.44083210  0.57105849  1
  N  N60  1  0.22181782  0.87287842  0.37813787  1
  N  N61  1  0.10838175  0.76103633  0.11577288  1
  N  N62  1  0.88889746  0.87338448  0.87849840  1
  N  N63  1  0.76925540  0.78477081  0.63582845  1
  N  N64  1  0.57658936  0.86184408  0.38386509  1
  N  N65  1  0.44512419  0.76029078  0.10220751  1
  N  N66  1  0.21333352  0.85700978  0.87342878  1
  N  N67  1  0.09162676  0.76307787  0.62958368  1
  N  N68  1  0.86825179  0.88300337  0.38407896  1
  N  N69  1  0.77921753  0.76598506  0.13070572  1
  N  N70  1  0.58366695  0.85993427  0.88792584  1
  N  N71  1  0.46600710  0.75668615  0.62478683  1
