# generated using pymatgen
data_Sc5Al13N18
_symmetry_space_group_name_H-M   'P 1'
_cell_length_a   9.87726885
_cell_length_b   9.87638399
_cell_length_c   10.20751558
_cell_angle_alpha   89.67665033
_cell_angle_beta   89.90985933
_cell_angle_gamma   60.11196357
_symmetry_Int_Tables_number   1
_chemical_formula_structural   Sc5Al13N18
_chemical_formula_sum   'Sc10 Al26 N36'
_cell_volume   863.31053397
_cell_formula_units_Z   2
loop_
 _symmetry_equiv_pos_site_id
 _symmetry_equiv_pos_as_xyz
  1  'x, y, z'
loop_
 _atom_site_type_symbol
 _atom_site_label
 _atom_site_symmetry_multiplicity
 _atom_site_fract_x
 _atom_site_fract_y
 _atom_site_fract_z
 _atom_site_occupancy
  Sc  Sc0  1  0.09669495  0.10491544  0.37178361  1
  Sc  Sc1  1  0.45134779  0.09726688  0.36319983  1
  Sc  Sc2  1  0.10236299  0.09973230  0.88412645  1
  Sc  Sc3  1  0.22392255  0.21229819  0.62627696  1
  Sc  Sc4  1  0.44753038  0.10205092  0.88235432  1
  Sc  Sc5  1  0.88512442  0.54081215  0.61454125  1
  Sc  Sc6  1  0.10489532  0.75170745  0.36123238  1
  Sc  Sc7  1  0.45341164  0.74613116  0.37094969  1
  Sc  Sc8  1  0.21520940  0.86829248  0.62717898  1
  Sc  Sc9  1  0.45149837  0.75045679  0.87178367  1
  Al  Al10  1  0.21815110  0.21264216  0.13628440  1
  Al  Al11  1  0.78117691  0.08920798  0.81908223  1
  Al  Al12  1  0.87749295  0.21311116  0.63502250  1
  Al  Al13  1  0.55268386  0.21432528  0.13085337  1
  Al  Al14  1  0.77465033  0.09524374  0.31028094  1
  Al  Al15  1  0.88356034  0.21241582  0.12919778  1
  Al  Al16  1  0.55698891  0.21033512  0.63287893  1
  Al  Al17  1  0.11429853  0.43148005  0.37729442  1
  Al  Al18  1  0.22895529  0.53053730  0.12876887  1
  Al  Al19  1  0.77785871  0.42899781  0.88411758  1
  Al  Al20  1  0.44853624  0.42279147  0.38227461  1
  Al  Al21  1  0.55891678  0.53074060  0.13181336  1
  Al  Al22  1  0.10409507  0.43772157  0.88624643  1
  Al  Al23  1  0.22127053  0.54193605  0.63342588  1
  Al  Al24  1  0.77179471  0.42224255  0.37978273  1
  Al  Al25  1  0.89229917  0.53329407  0.13495605  1
  Al  Al26  1  0.44792646  0.42625245  0.88028809  1
  Al  Al27  1  0.55921650  0.52777472  0.63391580  1
  Al  Al28  1  0.22386768  0.87021788  0.13425260  1
  Al  Al29  1  0.78439301  0.76469799  0.82101847  1
  Al  Al30  1  0.87485224  0.88392915  0.56445813  1
  Al  Al31  1  0.56754653  0.86386285  0.07821696  1
  Al  Al32  1  0.11357641  0.75247978  0.88955601  1
  Al  Al33  1  0.77972109  0.76297439  0.31700440  1
  Al  Al34  1  0.88237773  0.87553859  0.06759894  1
  Al  Al35  1  0.56962018  0.86904664  0.57061964  1
  N  N36  1  0.21116914  0.22536033  0.32239017  1
  N  N37  1  0.10937882  0.09665509  0.09578930  1
  N  N38  1  0.87123029  0.21969461  0.82698147  1
  N  N39  1  0.78061948  0.09035583  0.62559014  1
  N  N40  1  0.56035268  0.22118878  0.31803760  1
  N  N41  1  0.44470532  0.09547904  0.10133737  1
  N  N42  1  0.21144273  0.22750780  0.83249717  1
  N  N43  1  0.08807899  0.10851300  0.58287906  1
  N  N44  1  0.86751894  0.21980985  0.31503103  1
  N  N45  1  0.77896678  0.09022752  0.11499149  1
  N  N46  1  0.56042364  0.21833090  0.82317888  1
  N  N47  1  0.46331342  0.09026033  0.58383340  1
  N  N48  1  0.23977191  0.51395732  0.31357778  1
  N  N49  1  0.10883769  0.43090411  0.07606213  1
  N  N50  1  0.88980692  0.53756330  0.83104758  1
  N  N51  1  0.76447824  0.41749891  0.56606054  1
  N  N52  1  0.56518339  0.51471110  0.31668260  1
  N  N53  1  0.44523064  0.42793078  0.06812997  1
  N  N54  1  0.22250551  0.53900642  0.82726428  1
  N  N55  1  0.12001321  0.44147213  0.56200964  1
  N  N56  1  0.89128985  0.53372915  0.33240572  1
  N  N57  1  0.77784399  0.43075079  0.07387543  1
  N  N58  1  0.56800471  0.51661345  0.82134405  1
  N  N59  1  0.44118966  0.43040294  0.57397208  1
  N  N60  1  0.21997520  0.87171811  0.32129292  1
  N  N61  1  0.11461833  0.75543510  0.08668824  1
  N  N62  1  0.88881966  0.87312027  0.87972464  1
  N  N63  1  0.77111615  0.78446515  0.63461955  1
  N  N64  1  0.58119661  0.85524596  0.38073080  1
  N  N65  1  0.44747864  0.75608346  0.09582856  1
  N  N66  1  0.21097265  0.86274283  0.83394054  1
  N  N67  1  0.09921874  0.75091458  0.57306098  1
  N  N68  1  0.85957085  0.89119893  0.37507775  1
  N  N69  1  0.78261164  0.76120310  0.12966270  1
  N  N70  1  0.58321973  0.86018827  0.88998907  1
  N  N71  1  0.46434381  0.74914020  0.59560312  1
