# generated using pymatgen
data_Sc5Al13N18
_symmetry_space_group_name_H-M   'P 1'
_cell_length_a   9.86862292
_cell_length_b   9.83511461
_cell_length_c   10.13834477
_cell_angle_alpha   89.82441313
_cell_angle_beta   90.02362532
_cell_angle_gamma   60.05382702
_symmetry_Int_Tables_number   1
_chemical_formula_structural   Sc5Al13N18
_chemical_formula_sum   'Sc10 Al26 N36'
_cell_volume   852.64027284
_cell_formula_units_Z   2
loop_
 _symmetry_equiv_pos_site_id
 _symmetry_equiv_pos_as_xyz
  1  'x, y, z'
loop_
 _atom_site_type_symbol
 _atom_site_label
 _atom_site_symmetry_multiplicity
 _atom_site_fract_x
 _atom_site_fract_y
 _atom_site_fract_z
 _atom_site_occupancy
  Sc  Sc0  1  0.10038652  0.09916014  0.30184019  1
  Sc  Sc1  1  0.44854509  0.09804240  0.31484437  1
  Sc  Sc2  1  0.09806247  0.10375587  0.82838827  1
  Sc  Sc3  1  0.21784895  0.21386863  0.56411903  1
  Sc  Sc4  1  0.45400222  0.09596435  0.81509941  1
  Sc  Sc5  1  0.88189549  0.54413535  0.56592922  1
  Sc  Sc6  1  0.10618469  0.75491530  0.31889579  1
  Sc  Sc7  1  0.45253318  0.75217983  0.31051300  1
  Sc  Sc8  1  0.22222903  0.87070625  0.57746656  1
  Sc  Sc9  1  0.45859095  0.75078864  0.82161791  1
  Al  Al10  1  0.22271116  0.21070635  0.05356438  1
  Al  Al11  1  0.77602002  0.09748604  0.80953317  1
  Al  Al12  1  0.87518994  0.20872060  0.55934117  1
  Al  Al13  1  0.56168577  0.20663435  0.05773948  1
  Al  Al14  1  0.77288833  0.09834430  0.31157370  1
  Al  Al15  1  0.87772287  0.20963107  0.05778158  1
  Al  Al16  1  0.56129315  0.20888652  0.55813789  1
  Al  Al17  1  0.10726699  0.43008248  0.29746132  1
  Al  Al18  1  0.22593897  0.53687613  0.07224069  1
  Al  Al19  1  0.77354847  0.42363804  0.81040940  1
  Al  Al20  1  0.45120375  0.42138705  0.30686682  1
  Al  Al21  1  0.56147872  0.52988769  0.05777522  1
  Al  Al22  1  0.10685772  0.43767093  0.82015363  1
  Al  Al23  1  0.22445325  0.53859803  0.60053546  1
  Al  Al24  1  0.77672002  0.42562410  0.30782588  1
  Al  Al25  1  0.88629432  0.53980387  0.05777804  1
  Al  Al26  1  0.45023324  0.42548369  0.81569507  1
  Al  Al27  1  0.55937715  0.52948906  0.55864759  1
  Al  Al28  1  0.22153129  0.86540711  0.04824077  1
  Al  Al29  1  0.78433887  0.76268197  0.81265680  1
  Al  Al30  1  0.87666725  0.88091869  0.56288595  1
  Al  Al31  1  0.56415359  0.87046062  0.05839973  1
  Al  Al32  1  0.10227178  0.75896534  0.81507311  1
  Al  Al33  1  0.78187461  0.75960762  0.30558453  1
  Al  Al34  1  0.88843522  0.87390849  0.05801074  1
  Al  Al35  1  0.56767879  0.86917697  0.55700222  1
  N  N36  1  0.20847086  0.22274088  0.35637185  1
  N  N37  1  0.10950128  0.09345578  0.08510090  1
  N  N38  1  0.86347015  0.21664946  0.87373820  1
  N  N39  1  0.77473092  0.09634955  0.62015995  1
  N  N40  1  0.56589334  0.21525261  0.37100779  1
  N  N41  1  0.44658282  0.09562996  0.09876498  1
  N  N42  1  0.21729525  0.22560289  0.86663990  1
  N  N43  1  0.08508445  0.11013756  0.61654480  1
  N  N44  1  0.86933766  0.21435083  0.36935179  1
  N  N45  1  0.77865666  0.09240739  0.12007463  1
  N  N46  1  0.56769598  0.21423513  0.87146239  1
  N  N47  1  0.46178654  0.08818503  0.59970429  1
  N  N48  1  0.23538259  0.51495039  0.34050708  1
  N  N49  1  0.10736312  0.42935651  0.10618334  1
  N  N50  1  0.88480534  0.53993539  0.86419586  1
  N  N51  1  0.76685809  0.41776449  0.62268304  1
  N  N52  1  0.56614908  0.51768267  0.36947724  1
  N  N53  1  0.45070511  0.42406211  0.11479518  1
  N  N54  1  0.22583158  0.53936842  0.86210907  1
  N  N55  1  0.11185300  0.44106651  0.63289690  1
  N  N56  1  0.88964869  0.53846804  0.35278299  1
  N  N57  1  0.77849843  0.42728536  0.11723420  1
  N  N58  1  0.56721806  0.51741586  0.87294853  1
  N  N59  1  0.44494353  0.42816002  0.62280247  1
  N  N60  1  0.22278367  0.87199873  0.37063729  1
  N  N61  1  0.10960593  0.76186974  0.10461438  1
  N  N62  1  0.88724050  0.87636651  0.86875462  1
  N  N63  1  0.77127696  0.77933986  0.62624022  1
  N  N64  1  0.57750814  0.85969386  0.36907402  1
  N  N65  1  0.44628403  0.75879131  0.09294361  1
  N  N66  1  0.21622552  0.85897822  0.85720775  1
  N  N67  1  0.09389207  0.75612254  0.61981315  1
  N  N68  1  0.86654029  0.88478149  0.37301754  1
  N  N69  1  0.78234443  0.76035201  0.11571315  1
  N  N70  1  0.58070574  0.86341014  0.87537607  1
  N  N71  1  0.47109250  0.74752529  0.60721791  1
