# generated using pymatgen
data_Sc5Al13N18
_symmetry_space_group_name_H-M   'P 1'
_cell_length_a   9.83964682
_cell_length_b   9.82336337
_cell_length_c   10.14304647
_cell_angle_alpha   90.06269304
_cell_angle_beta   90.05726900
_cell_angle_gamma   60.05054596
_symmetry_Int_Tables_number   1
_chemical_formula_structural   Sc5Al13N18
_chemical_formula_sum   'Sc10 Al26 N36'
_cell_volume   849.49225327
_cell_formula_units_Z   2
loop_
 _symmetry_equiv_pos_site_id
 _symmetry_equiv_pos_as_xyz
  1  'x, y, z'
loop_
 _atom_site_type_symbol
 _atom_site_label
 _atom_site_symmetry_multiplicity
 _atom_site_fract_x
 _atom_site_fract_y
 _atom_site_fract_z
 _atom_site_occupancy
  Sc  Sc0  1  0.10059606  0.09989585  0.30282207  1
  Sc  Sc1  1  0.45027904  0.09591551  0.31579455  1
  Sc  Sc2  1  0.09854306  0.10351324  0.83036402  1
  Sc  Sc3  1  0.21885703  0.21245370  0.56603717  1
  Sc  Sc4  1  0.45390139  0.09568625  0.81743940  1
  Sc  Sc5  1  0.88289361  0.54279600  0.56909736  1
  Sc  Sc6  1  0.10594889  0.75589679  0.31750522  1
  Sc  Sc7  1  0.45257042  0.75222398  0.31195201  1
  Sc  Sc8  1  0.22184614  0.86966302  0.57882335  1
  Sc  Sc9  1  0.45885525  0.74971551  0.82258625  1
  Al  Al10  1  0.22236765  0.21322175  0.05629275  1
  Al  Al11  1  0.77559809  0.09737426  0.81105120  1
  Al  Al12  1  0.87531408  0.20844175  0.56144277  1
  Al  Al13  1  0.55898589  0.20935685  0.05985310  1
  Al  Al14  1  0.77272508  0.09912328  0.31262604  1
  Al  Al15  1  0.87718876  0.21030119  0.05920126  1
  Al  Al16  1  0.56154254  0.20850765  0.56009095  1
  Al  Al17  1  0.10895920  0.43151836  0.30372498  1
  Al  Al18  1  0.22419599  0.53888639  0.05787644  1
  Al  Al19  1  0.77282041  0.42338864  0.81309033  1
  Al  Al20  1  0.44874638  0.42282683  0.31252730  1
  Al  Al21  1  0.55881288  0.53035575  0.06018766  1
  Al  Al22  1  0.10919922  0.43835897  0.81642577  1
  Al  Al23  1  0.22548614  0.53438437  0.56375640  1
  Al  Al24  1  0.77681252  0.42616343  0.30959961  1
  Al  Al25  1  0.88800046  0.53989465  0.06003681  1
  Al  Al26  1  0.44596245  0.42707257  0.81187994  1
  Al  Al27  1  0.55935406  0.52894414  0.56060274  1
  Al  Al28  1  0.22106649  0.86542233  0.04837003  1
  Al  Al29  1  0.78506453  0.76206472  0.81394635  1
  Al  Al30  1  0.87871487  0.87936204  0.56391734  1
  Al  Al31  1  0.56419807  0.87013106  0.05963680  1
  Al  Al32  1  0.10443492  0.75430556  0.80966909  1
  Al  Al33  1  0.78271193  0.75917666  0.30727452  1
  Al  Al34  1  0.88843701  0.87411849  0.05807827  1
  Al  Al35  1  0.56825261  0.86844788  0.55899835  1
  N  N36  1  0.21016542  0.22280168  0.35767909  1
  N  N37  1  0.10934904  0.09425376  0.08628899  1
  N  N38  1  0.86337410  0.21646709  0.87553846  1
  N  N39  1  0.77538514  0.09544305  0.62162466  1
  N  N40  1  0.56521532  0.21540840  0.37249682  1
  N  N41  1  0.44656688  0.09567446  0.10015392  1
  N  N42  1  0.21633419  0.22789649  0.86920377  1
  N  N43  1  0.08537163  0.10967583  0.61870460  1
  N  N44  1  0.86936202  0.21507082  0.37122634  1
  N  N45  1  0.77754696  0.09357600  0.12113199  1
  N  N46  1  0.56571979  0.21652242  0.87315979  1
  N  N47  1  0.46270599  0.08724800  0.60223014  1
  N  N48  1  0.23445366  0.51643620  0.37316679  1
  N  N49  1  0.10993693  0.43274839  0.11320860  1
  N  N50  1  0.88674261  0.53907069  0.86567849  1
  N  N51  1  0.76663916  0.41742616  0.62546730  1
  N  N52  1  0.56581095  0.51822232  0.37136839  1
  N  N53  1  0.44335332  0.42810724  0.12095610  1
  N  N54  1  0.22507760  0.53919161  0.86963044  1
  N  N55  1  0.11534088  0.44141722  0.63126062  1
  N  N56  1  0.89028746  0.53881095  0.35570423  1
  N  N57  1  0.77779479  0.42823621  0.11896801  1
  N  N58  1  0.56489112  0.51660192  0.87516383  1
  N  N59  1  0.44300015  0.42878223  0.62127851  1
  N  N60  1  0.22159355  0.87251746  0.37124551  1
  N  N61  1  0.11027990  0.76064150  0.10616733  1
  N  N62  1  0.88884919  0.87526200  0.86886414  1
  N  N63  1  0.77218178  0.77864749  0.62759625  1
  N  N64  1  0.57830279  0.85877778  0.37112412  1
  N  N65  1  0.44548680  0.75944792  0.09456214  1
  N  N66  1  0.21567615  0.85764200  0.85702165  1
  N  N67  1  0.09668182  0.75114041  0.61693907  1
  N  N68  1  0.86766078  0.88518838  0.37351281  1
  N  N69  1  0.78256046  0.76060270  0.11739872  1
  N  N70  1  0.58097434  0.86274681  0.87696730  1
  N  N71  1  0.47116459  0.74732484  0.60853104  1
