# generated using pymatgen
data_Sc5Al13N18
_symmetry_space_group_name_H-M   'P 1'
_cell_length_a   9.87017846
_cell_length_b   9.87455665
_cell_length_c   10.19251448
_cell_angle_alpha   89.47024916
_cell_angle_beta   89.56637995
_cell_angle_gamma   60.23812614
_symmetry_Int_Tables_number   1
_chemical_formula_structural   Sc5Al13N18
_chemical_formula_sum   'Sc10 Al26 N36'
_cell_volume   862.32417919
_cell_formula_units_Z   2
loop_
 _symmetry_equiv_pos_site_id
 _symmetry_equiv_pos_as_xyz
  1  'x, y, z'
loop_
 _atom_site_type_symbol
 _atom_site_label
 _atom_site_symmetry_multiplicity
 _atom_site_fract_x
 _atom_site_fract_y
 _atom_site_fract_z
 _atom_site_occupancy
  Sc  Sc0  1  0.09535589  0.10310887  0.36886352  1
  Sc  Sc1  1  0.45385009  0.09597815  0.33020841  1
  Sc  Sc2  1  0.10299733  0.10013225  0.88456191  1
  Sc  Sc3  1  0.21853877  0.21446229  0.61762652  1
  Sc  Sc4  1  0.45502445  0.09309324  0.83480105  1
  Sc  Sc5  1  0.88307699  0.54175098  0.61521762  1
  Sc  Sc6  1  0.10579954  0.75107617  0.36196038  1
  Sc  Sc7  1  0.45555045  0.74684922  0.37280944  1
  Sc  Sc8  1  0.21603973  0.86819574  0.62779341  1
  Sc  Sc9  1  0.45242144  0.74905511  0.87247345  1
  Al  Al10  1  0.21668683  0.21400386  0.13328303  1
  Al  Al11  1  0.77854693  0.09093614  0.82061827  1
  Al  Al12  1  0.87627397  0.21298767  0.63588498  1
  Al  Al13  1  0.56163034  0.20431549  0.06550923  1
  Al  Al14  1  0.76812781  0.09902816  0.31365991  1
  Al  Al15  1  0.88136228  0.21357882  0.13109803  1
  Al  Al16  1  0.56577656  0.20379086  0.57032484  1
  Al  Al17  1  0.11240042  0.43271734  0.37709897  1
  Al  Al18  1  0.22988448  0.52968748  0.12974672  1
  Al  Al19  1  0.77837070  0.42810216  0.88462917  1
  Al  Al20  1  0.44503040  0.42832682  0.38484216  1
  Al  Al21  1  0.55762948  0.53171117  0.13275285  1
  Al  Al22  1  0.10528921  0.43584729  0.88574040  1
  Al  Al23  1  0.22041201  0.54287325  0.63549765  1
  Al  Al24  1  0.77099484  0.42196366  0.38063812  1
  Al  Al25  1  0.89041094  0.53474057  0.13473334  1
  Al  Al26  1  0.44576305  0.42980105  0.88178854  1
  Al  Al27  1  0.55814776  0.52801886  0.63528537  1
  Al  Al28  1  0.22547401  0.86917966  0.13448900  1
  Al  Al29  1  0.78703036  0.76326735  0.82228630  1
  Al  Al30  1  0.87631552  0.88327345  0.56631349  1
  Al  Al31  1  0.56561789  0.86845349  0.07351030  1
  Al  Al32  1  0.11339949  0.75315771  0.89146163  1
  Al  Al33  1  0.77887138  0.76457906  0.31833427  1
  Al  Al34  1  0.88259396  0.87527098  0.07091435  1
  Al  Al35  1  0.56881285  0.87193267  0.57219994  1
  N  N36  1  0.21029405  0.22565463  0.32427516  1
  N  N37  1  0.10816287  0.09699182  0.09733822  1
  N  N38  1  0.87230735  0.21911524  0.82707722  1
  N  N39  1  0.77576877  0.09174632  0.63066911  1
  N  N40  1  0.56919249  0.21250965  0.38265366  1
  N  N41  1  0.44607490  0.09533358  0.10949078  1
  N  N42  1  0.21058548  0.22808088  0.82770322  1
  N  N43  1  0.08530722  0.10681069  0.57987984  1
  N  N44  1  0.86544417  0.22056474  0.31577475  1
  N  N45  1  0.77428008  0.09135037  0.12238928  1
  N  N46  1  0.57150734  0.20995644  0.87881392  1
  N  N47  1  0.46377339  0.08744794  0.61328724  1
  N  N48  1  0.24038003  0.51250159  0.31416071  1
  N  N49  1  0.10818107  0.43110332  0.07625167  1
  N  N50  1  0.89041577  0.53727920  0.83208126  1
  N  N51  1  0.76344198  0.41691452  0.56679108  1
  N  N52  1  0.56445607  0.51513421  0.31738063  1
  N  N53  1  0.44315436  0.43246824  0.07213826  1
  N  N54  1  0.22237122  0.53927957  0.82911076  1
  N  N55  1  0.11723409  0.44517916  0.56159122  1
  N  N56  1  0.88928185  0.53517764  0.33269368  1
  N  N57  1  0.77708594  0.43070159  0.07444845  1
  N  N58  1  0.56891625  0.51520065  0.82189967  1
  N  N59  1  0.43683781  0.43635496  0.57880015  1
  N  N60  1  0.22328865  0.86934171  0.32185692  1
  N  N61  1  0.11397797  0.75592045  0.08911148  1
  N  N62  1  0.88943068  0.87375146  0.88208371  1
  N  N63  1  0.77182567  0.78402048  0.63514675  1
  N  N64  1  0.57923491  0.86205675  0.38407479  1
  N  N65  1  0.44815341  0.75713201  0.09533400  1
  N  N66  1  0.21197114  0.86288570  0.83525880  1
  N  N67  1  0.09903382  0.75200947  0.57483716  1
  N  N68  1  0.86149222  0.89091879  0.37558956  1
  N  N69  1  0.78021111  0.76262780  0.13026042  1
  N  N70  1  0.58425817  0.85889299  0.88834099  1
  N  N71  1  0.46548304  0.74917889  0.59634088  1
