# generated using pymatgen
data_Sc5Al13N18
_symmetry_space_group_name_H-M   'P 1'
_cell_length_a   9.87516645
_cell_length_b   9.86958524
_cell_length_c   10.16257501
_cell_angle_alpha   89.71868331
_cell_angle_beta   89.83835245
_cell_angle_gamma   60.18939353
_symmetry_Int_Tables_number   1
_chemical_formula_structural   Sc5Al13N18
_chemical_formula_sum   'Sc10 Al26 N36'
_cell_volume   859.40547861
_cell_formula_units_Z   2
loop_
 _symmetry_equiv_pos_site_id
 _symmetry_equiv_pos_as_xyz
  1  'x, y, z'
loop_
 _atom_site_type_symbol
 _atom_site_label
 _atom_site_symmetry_multiplicity
 _atom_site_fract_x
 _atom_site_fract_y
 _atom_site_fract_z
 _atom_site_occupancy
  Sc  Sc0  1  0.09586057  0.10360537  0.36950648  1
  Sc  Sc1  1  0.45082929  0.09572889  0.35870916  1
  Sc  Sc2  1  0.10076079  0.10020606  0.88347756  1
  Sc  Sc3  1  0.22292891  0.21163323  0.62398964  1
  Sc  Sc4  1  0.44726037  0.10412508  0.88174065  1
  Sc  Sc5  1  0.88438844  0.54154770  0.61451155  1
  Sc  Sc6  1  0.10581104  0.75108895  0.35765259  1
  Sc  Sc7  1  0.45472615  0.74444800  0.37313013  1
  Sc  Sc8  1  0.21493901  0.86864938  0.62707267  1
  Sc  Sc9  1  0.45270449  0.75149278  0.86867115  1
  Al  Al10  1  0.21737603  0.21245636  0.13574922  1
  Al  Al11  1  0.77448759  0.10176894  0.88162071  1
  Al  Al12  1  0.87324681  0.21130652  0.63375573  1
  Al  Al13  1  0.56041049  0.21152974  0.13404864  1
  Al  Al14  1  0.76691573  0.10842421  0.38220747  1
  Al  Al15  1  0.87885317  0.20984933  0.13229112  1
  Al  Al16  1  0.56026414  0.20863507  0.63108265  1
  Al  Al17  1  0.11371174  0.43120771  0.37682443  1
  Al  Al18  1  0.23099815  0.52771144  0.12774699  1
  Al  Al19  1  0.77832760  0.42831367  0.88274265  1
  Al  Al20  1  0.44797319  0.42276280  0.38133392  1
  Al  Al21  1  0.55915451  0.53063227  0.12995486  1
  Al  Al22  1  0.10417210  0.43746223  0.88514716  1
  Al  Al23  1  0.22197644  0.54129747  0.63252343  1
  Al  Al24  1  0.77233316  0.42265694  0.37833628  1
  Al  Al25  1  0.89245909  0.53187964  0.13305371  1
  Al  Al26  1  0.44885236  0.42546423  0.87876411  1
  Al  Al27  1  0.55954384  0.52757529  0.63348293  1
  Al  Al28  1  0.22592208  0.86925738  0.13334974  1
  Al  Al29  1  0.78495041  0.76685438  0.82156709  1
  Al  Al30  1  0.87818469  0.87904690  0.56401280  1
  Al  Al31  1  0.56720398  0.86427985  0.07752574  1
  Al  Al32  1  0.11428696  0.75191076  0.88931563  1
  Al  Al33  1  0.78010590  0.76235969  0.31565868  1
  Al  Al34  1  0.88519002  0.87179176  0.07081434  1
  Al  Al35  1  0.56914911  0.87088128  0.57086003  1
  N  N36  1  0.21001778  0.22489897  0.32274640  1
  N  N37  1  0.10725728  0.09646272  0.09701531  1
  N  N38  1  0.86873997  0.21752274  0.82264416  1
  N  N39  1  0.77240324  0.10333049  0.57358368  1
  N  N40  1  0.56444884  0.21847820  0.31900536  1
  N  N41  1  0.44584446  0.09565041  0.10348174  1
  N  N42  1  0.21118208  0.22679624  0.83183937  1
  N  N43  1  0.08595136  0.10789857  0.58231693  1
  N  N44  1  0.86384401  0.21693759  0.31593845  1
  N  N45  1  0.77369370  0.10026978  0.07322634  1
  N  N46  1  0.56615880  0.21565771  0.81891330  1
  N  N47  1  0.46219971  0.09135044  0.58279681  1
  N  N48  1  0.24062447  0.51186919  0.31301202  1
  N  N49  1  0.10923888  0.43001217  0.07527378  1
  N  N50  1  0.88939095  0.53816230  0.83128801  1
  N  N51  1  0.76454770  0.41859984  0.56568907  1
  N  N52  1  0.56546823  0.51416760  0.31559256  1
  N  N53  1  0.44685876  0.42532891  0.06765145  1
  N  N54  1  0.22388975  0.53782890  0.82709488  1
  N  N55  1  0.11914740  0.44180739  0.56208352  1
  N  N56  1  0.89147357  0.53273041  0.33089760  1
  N  N57  1  0.77890838  0.42825240  0.07341822  1
  N  N58  1  0.56856614  0.51643354  0.82145377  1
  N  N59  1  0.44072982  0.43117825  0.57353930  1
  N  N60  1  0.22305097  0.87019072  0.32131897  1
  N  N61  1  0.11580315  0.75416719  0.08864623  1
  N  N62  1  0.89194223  0.87080231  0.87939836  1
  N  N63  1  0.77058588  0.78616953  0.63494942  1
  N  N64  1  0.58183967  0.85437853  0.38042073  1
  N  N65  1  0.44839442  0.75545234  0.09344011  1
  N  N66  1  0.21170949  0.86290127  0.83512007  1
  N  N67  1  0.09985229  0.75058891  0.57280260  1
  N  N68  1  0.86270491  0.88736247  0.37003862  1
  N  N69  1  0.78218772  0.76018404  0.12800122  1
  N  N70  1  0.58272039  0.86328536  0.88891728  1
  N  N71  1  0.46468681  0.74989209  0.59791593  1
