# generated using pymatgen
data_Sc5Al13N18
_symmetry_space_group_name_H-M   'P 1'
_cell_length_a   9.92501157
_cell_length_b   9.90745250
_cell_length_c   10.09780652
_cell_angle_alpha   89.52895602
_cell_angle_beta   89.55916691
_cell_angle_gamma   60.11338263
_symmetry_Int_Tables_number   1
_chemical_formula_structural   Sc5Al13N18
_chemical_formula_sum   'Sc10 Al26 N36'
_cell_volume   860.84971211
_cell_formula_units_Z   2
loop_
 _symmetry_equiv_pos_site_id
 _symmetry_equiv_pos_as_xyz
  1  'x, y, z'
loop_
 _atom_site_type_symbol
 _atom_site_label
 _atom_site_symmetry_multiplicity
 _atom_site_fract_x
 _atom_site_fract_y
 _atom_site_fract_z
 _atom_site_occupancy
  Sc  Sc0  1  0.09404244  0.10528968  0.37136218  1
  Sc  Sc1  1  0.45537874  0.09557035  0.33582869  1
  Sc  Sc2  1  0.10091672  0.10723052  0.87052981  1
  Sc  Sc3  1  0.22080018  0.21616112  0.61369205  1
  Sc  Sc4  1  0.45706724  0.09231523  0.83143788  1
  Sc  Sc5  1  0.88233043  0.54135110  0.61297216  1
  Sc  Sc6  1  0.10586176  0.75411736  0.35971174  1
  Sc  Sc7  1  0.45211046  0.75608298  0.33129128  1
  Sc  Sc8  1  0.22120322  0.86600124  0.60315729  1
  Sc  Sc9  1  0.46057906  0.75006743  0.84559569  1
  Al  Al10  1  0.21850592  0.21113531  0.13365466  1
  Al  Al11  1  0.77724766  0.09096949  0.82229921  1
  Al  Al12  1  0.87247882  0.21480543  0.63682677  1
  Al  Al13  1  0.56066914  0.20298525  0.06688606  1
  Al  Al14  1  0.76799020  0.09959602  0.31414954  1
  Al  Al15  1  0.88330300  0.21064748  0.12855771  1
  Al  Al16  1  0.56604878  0.20497679  0.57048250  1
  Al  Al17  1  0.11232026  0.43377933  0.37644784  1
  Al  Al18  1  0.22947560  0.52857575  0.13045683  1
  Al  Al19  1  0.77752476  0.42811719  0.88559315  1
  Al  Al20  1  0.44400605  0.43131077  0.38523301  1
  Al  Al21  1  0.55922349  0.52651461  0.12840330  1
  Al  Al22  1  0.10559778  0.43548575  0.88590507  1
  Al  Al23  1  0.21864715  0.54370046  0.63603112  1
  Al  Al24  1  0.76857679  0.42295961  0.37929639  1
  Al  Al25  1  0.89043957  0.53400146  0.13515024  1
  Al  Al26  1  0.44495115  0.42912853  0.88199308  1
  Al  Al27  1  0.55859383  0.52720840  0.63556115  1
  Al  Al28  1  0.22433324  0.86827942  0.07225965  1
  Al  Al29  1  0.78792871  0.76196920  0.82235198  1
  Al  Al30  1  0.87580161  0.88287073  0.56848178  1
  Al  Al31  1  0.56575722  0.86912174  0.07282832  1
  Al  Al32  1  0.10999002  0.75063713  0.88617607  1
  Al  Al33  1  0.77943236  0.76394848  0.32056406  1
  Al  Al34  1  0.88176346  0.87438189  0.07234222  1
  Al  Al35  1  0.56852492  0.86834233  0.57257427  1
  N  N36  1  0.21171442  0.22453073  0.32760124  1
  N  N37  1  0.10970407  0.09532497  0.09331824  1
  N  N38  1  0.86833618  0.21975856  0.82972844  1
  N  N39  1  0.77460068  0.09249792  0.63081603  1
  N  N40  1  0.56889548  0.21506063  0.38150011  1
  N  N41  1  0.44661525  0.09427525  0.11208425  1
  N  N42  1  0.21478296  0.22997914  0.82606140  1
  N  N43  1  0.08319551  0.11209050  0.59188003  1
  N  N44  1  0.86565823  0.21986443  0.31546726  1
  N  N45  1  0.77411430  0.09082738  0.12129636  1
  N  N46  1  0.57036351  0.20937303  0.87855407  1
  N  N47  1  0.46553186  0.08683976  0.60875542  1
  N  N48  1  0.23976594  0.51388151  0.31593748  1
  N  N49  1  0.10845132  0.42944394  0.07800264  1
  N  N50  1  0.89047049  0.53592752  0.83287654  1
  N  N51  1  0.76150535  0.41728162  0.56655539  1
  N  N52  1  0.56317727  0.51613193  0.31646319  1
  N  N53  1  0.44203966  0.43089373  0.07308221  1
  N  N54  1  0.22214809  0.53815776  0.83041925  1
  N  N55  1  0.11606047  0.44686125  0.56199530  1
  N  N56  1  0.88932981  0.53441464  0.33421684  1
  N  N57  1  0.77787352  0.42950451  0.07569853  1
  N  N58  1  0.56977401  0.51132264  0.82557488  1
  N  N59  1  0.43558508  0.43803309  0.58029741  1
  N  N60  1  0.22553547  0.86902693  0.38306187  1
  N  N61  1  0.11165393  0.75510928  0.09328004  1
  N  N62  1  0.88917068  0.87278493  0.88160039  1
  N  N63  1  0.77160388  0.78317903  0.63434626  1
  N  N64  1  0.57928180  0.85857569  0.38502807  1
  N  N65  1  0.44663584  0.75929064  0.10456254  1
  N  N66  1  0.21613527  0.86135848  0.86722944  1
  N  N67  1  0.09465104  0.75284155  0.58376376  1
  N  N68  1  0.86122824  0.89116719  0.37577756  1
  N  N69  1  0.78002675  0.76155083  0.13061712  1
  N  N70  1  0.58645415  0.85958986  0.88930401  1
  N  N71  1  0.47079412  0.75037234  0.62340479  1
