# generated using pymatgen
data_Sc5Al13N18
_symmetry_space_group_name_H-M   'P 1'
_cell_length_a   9.95065185
_cell_length_b   9.92000611
_cell_length_c   10.01950323
_cell_angle_alpha   89.62488703
_cell_angle_beta   89.84003703
_cell_angle_gamma   60.05778115
_symmetry_Int_Tables_number   1
_chemical_formula_structural   Sc5Al13N18
_chemical_formula_sum   'Sc10 Al26 N36'
_cell_volume   857.00526304
_cell_formula_units_Z   2
loop_
 _symmetry_equiv_pos_site_id
 _symmetry_equiv_pos_as_xyz
  1  'x, y, z'
loop_
 _atom_site_type_symbol
 _atom_site_label
 _atom_site_symmetry_multiplicity
 _atom_site_fract_x
 _atom_site_fract_y
 _atom_site_fract_z
 _atom_site_occupancy
  Sc  Sc0  1  0.09837387  0.09886896  0.34611692  1
  Sc  Sc1  1  0.45618886  0.09660340  0.33823760  1
  Sc  Sc2  1  0.10272469  0.10502609  0.86061959  1
  Sc  Sc3  1  0.21940580  0.21618200  0.60803195  1
  Sc  Sc4  1  0.45545325  0.09245065  0.83038403  1
  Sc  Sc5  1  0.88192900  0.54147306  0.61217158  1
  Sc  Sc6  1  0.10521786  0.75677490  0.33915118  1
  Sc  Sc7  1  0.45086798  0.75703868  0.33080734  1
  Sc  Sc8  1  0.22462702  0.86782947  0.59985296  1
  Sc  Sc9  1  0.45930120  0.74923072  0.84855373  1
  Al  Al10  1  0.22070834  0.21157760  0.13044886  1
  Al  Al11  1  0.77468961  0.09272708  0.82905777  1
  Al  Al12  1  0.87167782  0.21340347  0.63503188  1
  Al  Al13  1  0.55954109  0.20281789  0.06806147  1
  Al  Al14  1  0.77056936  0.09822184  0.31318302  1
  Al  Al15  1  0.88071368  0.21002608  0.11507775  1
  Al  Al16  1  0.56626989  0.20552103  0.57202172  1
  Al  Al17  1  0.11211933  0.43499769  0.37543136  1
  Al  Al18  1  0.22841243  0.53164030  0.12880593  1
  Al  Al19  1  0.77645000  0.43037764  0.88867358  1
  Al  Al20  1  0.44551692  0.43091002  0.38448637  1
  Al  Al21  1  0.55824736  0.52829996  0.12890018  1
  Al  Al22  1  0.10623088  0.43586062  0.88589633  1
  Al  Al23  1  0.22384104  0.53659417  0.63694970  1
  Al  Al24  1  0.77058461  0.42157395  0.37646881  1
  Al  Al25  1  0.89005695  0.53587379  0.13598811  1
  Al  Al26  1  0.44349330  0.43003077  0.88287103  1
  Al  Al27  1  0.55966913  0.52724178  0.63540732  1
  Al  Al28  1  0.21984645  0.86384637  0.06540311  1
  Al  Al29  1  0.78579642  0.76129963  0.82408771  1
  Al  Al30  1  0.87664438  0.88372218  0.57469871  1
  Al  Al31  1  0.56609176  0.86944938  0.07453443  1
  Al  Al32  1  0.10022485  0.75893771  0.82338043  1
  Al  Al33  1  0.78094516  0.76479576  0.32256897  1
  Al  Al34  1  0.88982710  0.86939057  0.06974833  1
  Al  Al35  1  0.56912558  0.86799383  0.57238239  1
  N  N36  1  0.21232465  0.22417889  0.33073535  1
  N  N37  1  0.11293207  0.09254579  0.09749010  1
  N  N38  1  0.86669313  0.21710310  0.85111586  1
  N  N39  1  0.77323099  0.09461009  0.63573532  1
  N  N40  1  0.57208612  0.21438835  0.38143510  1
  N  N41  1  0.44652302  0.09475078  0.11299212  1
  N  N42  1  0.21504278  0.23074636  0.82531848  1
  N  N43  1  0.08331587  0.11059903  0.60770685  1
  N  N44  1  0.86658787  0.21927254  0.31098539  1
  N  N45  1  0.77392171  0.08779644  0.11935890  1
  N  N46  1  0.56666738  0.21056387  0.87842704  1
  N  N47  1  0.46477102  0.08745497  0.60570066  1
  N  N48  1  0.24078074  0.51322875  0.31820688  1
  N  N49  1  0.10829169  0.43052444  0.07941817  1
  N  N50  1  0.89018101  0.53540761  0.83364323  1
  N  N51  1  0.76250087  0.41549287  0.56651532  1
  N  N52  1  0.56292945  0.51793033  0.31834682  1
  N  N53  1  0.44213583  0.43129250  0.07514393  1
  N  N54  1  0.22425715  0.53439010  0.83157448  1
  N  N55  1  0.11503689  0.44953194  0.56181562  1
  N  N56  1  0.88957543  0.53535041  0.33610493  1
  N  N57  1  0.77534997  0.43465267  0.07899643  1
  N  N58  1  0.57006176  0.51057042  0.82616651  1
  N  N59  1  0.43676684  0.43785827  0.58025164  1
  N  N60  1  0.22483637  0.86581755  0.38883952  1
  N  N61  1  0.10829077  0.76128757  0.11905553  1
  N  N62  1  0.88955240  0.87115773  0.87988150  1
  N  N63  1  0.77137144  0.78307745  0.63447282  1
  N  N64  1  0.57963745  0.85854952  0.38303089  1
  N  N65  1  0.44456879  0.75989041  0.10328708  1
  N  N66  1  0.21423032  0.85793883  0.86800943  1
  N  N67  1  0.09139210  0.75861446  0.62588803  1
  N  N68  1  0.86556594  0.88945826  0.38278522  1
  N  N69  1  0.78182189  0.76250473  0.13095811  1
  N  N70  1  0.58495696  0.85956433  0.88961245  1
  N  N71  1  0.47271344  0.75004569  0.62349433  1
