# generated using pymatgen
data_Sc5Al13N18
_symmetry_space_group_name_H-M   'P 1'
_cell_length_a   9.86069050
_cell_length_b   9.81380945
_cell_length_c   10.34445047
_cell_angle_alpha   89.31276188
_cell_angle_beta   89.99431394
_cell_angle_gamma   59.91669828
_symmetry_Int_Tables_number   1
_chemical_formula_structural   Sc5Al13N18
_chemical_formula_sum   'Sc10 Al26 N36'
_cell_volume   866.11679654
_cell_formula_units_Z   2
loop_
 _symmetry_equiv_pos_site_id
 _symmetry_equiv_pos_as_xyz
  1  'x, y, z'
loop_
 _atom_site_type_symbol
 _atom_site_label
 _atom_site_symmetry_multiplicity
 _atom_site_fract_x
 _atom_site_fract_y
 _atom_site_fract_z
 _atom_site_occupancy
  Sc  Sc0  1  0.10257114  0.10132867  0.31140618  1
  Sc  Sc1  1  0.44953431  0.10002076  0.32460002  1
  Sc  Sc2  1  0.09663810  0.10318053  0.83442937  1
  Sc  Sc3  1  0.22126690  0.20986238  0.57936493  1
  Sc  Sc4  1  0.45702360  0.09309134  0.82193379  1
  Sc  Sc5  1  0.88282184  0.53990905  0.62381149  1
  Sc  Sc6  1  0.10368762  0.75918684  0.32976540  1
  Sc  Sc7  1  0.44996380  0.75899346  0.32102058  1
  Sc  Sc8  1  0.22288528  0.87033643  0.58624328  1
  Sc  Sc9  1  0.45577119  0.75240022  0.84293407  1
  Al  Al10  1  0.22628132  0.20438294  0.06159520  1
  Al  Al11  1  0.77590239  0.09875194  0.81867381  1
  Al  Al12  1  0.87663192  0.20326611  0.56369084  1
  Al  Al13  1  0.56310579  0.20037206  0.06549527  1
  Al  Al14  1  0.77232817  0.09822736  0.31839926  1
  Al  Al15  1  0.88244037  0.20202579  0.06786199  1
  Al  Al16  1  0.56425439  0.20515291  0.56695164  1
  Al  Al17  1  0.11015799  0.43623173  0.38060832  1
  Al  Al18  1  0.22909929  0.52859214  0.13144068  1
  Al  Al19  1  0.77467868  0.43255070  0.89059960  1
  Al  Al20  1  0.44529786  0.43130673  0.38516449  1
  Al  Al21  1  0.56055724  0.52588345  0.12942061  1
  Al  Al22  1  0.10408367  0.44254541  0.88881721  1
  Al  Al23  1  0.22444137  0.53749199  0.63787960  1
  Al  Al24  1  0.76994407  0.42834930  0.38073420  1
  Al  Al25  1  0.89228479  0.53367793  0.13747581  1
  Al  Al26  1  0.44381859  0.43001616  0.88540380  1
  Al  Al27  1  0.55970641  0.52783380  0.63749201  1
  Al  Al28  1  0.21958388  0.86380181  0.06031836  1
  Al  Al29  1  0.78375374  0.76579486  0.82309422  1
  Al  Al30  1  0.87722209  0.88171696  0.57313539  1
  Al  Al31  1  0.56634021  0.86850528  0.06980715  1
  Al  Al32  1  0.10024888  0.76123774  0.82012669  1
  Al  Al33  1  0.77913972  0.76470427  0.32025641  1
  Al  Al34  1  0.88965128  0.87086017  0.06789881  1
  Al  Al35  1  0.56736783  0.86942124  0.57018973  1
  N  N36  1  0.21424634  0.21723958  0.37245091  1
  N  N37  1  0.11119068  0.09285023  0.09866534  1
  N  N38  1  0.86584529  0.21170479  0.88583132  1
  N  N39  1  0.77435474  0.09853631  0.63241124  1
  N  N40  1  0.56910106  0.21179269  0.38246559  1
  N  N41  1  0.44642596  0.09424080  0.11189819  1
  N  N42  1  0.21944177  0.22203555  0.87033266  1
  N  N43  1  0.08199461  0.11162346  0.62803459  1
  N  N44  1  0.87425353  0.20482006  0.37514442  1
  N  N45  1  0.77778340  0.09153032  0.13066913  1
  N  N46  1  0.57026120  0.20763023  0.88144646  1
  N  N47  1  0.46403444  0.08909535  0.61279271  1
  N  N48  1  0.24028389  0.51098610  0.31586621  1
  N  N49  1  0.10751107  0.43384099  0.07730223  1
  N  N50  1  0.88990946  0.53576953  0.83483979  1
  N  N51  1  0.75928452  0.42611692  0.56578042  1
  N  N52  1  0.56519958  0.51502472  0.31357017  1
  N  N53  1  0.44205889  0.43128196  0.07236595  1
  N  N54  1  0.22616226  0.53227729  0.82689542  1
  N  N55  1  0.11275392  0.45308776  0.56422285  1
  N  N56  1  0.89136166  0.53215838  0.32927243  1
  N  N57  1  0.77711607  0.43308292  0.07959404  1
  N  N58  1  0.57037410  0.50966563  0.82324457  1
  N  N59  1  0.43624525  0.44049827  0.57549847  1
  N  N60  1  0.22221239  0.87148435  0.38302588  1
  N  N61  1  0.10836605  0.76135308  0.11947022  1
  N  N62  1  0.88876522  0.87416503  0.88124086  1
  N  N63  1  0.76915454  0.78542905  0.63857336  1
  N  N64  1  0.57759578  0.85948912  0.38596614  1
  N  N65  1  0.44510518  0.76011652  0.10365553  1
  N  N66  1  0.21309902  0.85745544  0.87443762  1
  N  N67  1  0.09121939  0.76225184  0.63067320  1
  N  N68  1  0.86678222  0.88453924  0.38617837  1
  N  N69  1  0.78027500  0.76522584  0.13278169  1
  N  N70  1  0.58382441  0.86069560  0.89083307  1
  N  N71  1  0.46762070  0.75534640  0.62838591  1
