# generated using pymatgen
data_Sc5Al13N18
_symmetry_space_group_name_H-M   'P 1'
_cell_length_a   9.84069110
_cell_length_b   9.82077922
_cell_length_c   10.14682480
_cell_angle_alpha   89.91755891
_cell_angle_beta   89.92065278
_cell_angle_gamma   60.07912311
_symmetry_Int_Tables_number   1
_chemical_formula_structural   Sc5Al13N18
_chemical_formula_sum   'Sc10 Al26 N36'
_cell_volume   849.91887121
_cell_formula_units_Z   2
loop_
 _symmetry_equiv_pos_site_id
 _symmetry_equiv_pos_as_xyz
  1  'x, y, z'
loop_
 _atom_site_type_symbol
 _atom_site_label
 _atom_site_symmetry_multiplicity
 _atom_site_fract_x
 _atom_site_fract_y
 _atom_site_fract_z
 _atom_site_occupancy
  Sc  Sc0  1  0.09792873  0.10262724  0.38387862  1
  Sc  Sc1  1  0.45346545  0.09375135  0.38646955  1
  Sc  Sc2  1  0.10059665  0.10137555  0.90373948  1
  Sc  Sc3  1  0.22225240  0.21254160  0.64194709  1
  Sc  Sc4  1  0.45097653  0.09762818  0.89948026  1
  Sc  Sc5  1  0.88371381  0.54215668  0.63989681  1
  Sc  Sc6  1  0.10314343  0.75314132  0.38891014  1
  Sc  Sc7  1  0.45803934  0.74871627  0.39505477  1
  Sc  Sc8  1  0.21913815  0.86916185  0.64633701  1
  Sc  Sc9  1  0.45306233  0.75301314  0.89310267  1
  Al  Al10  1  0.21948635  0.21316321  0.15421191  1
  Al  Al11  1  0.77562181  0.09787522  0.89726357  1
  Al  Al12  1  0.87476425  0.20904123  0.64941326  1
  Al  Al13  1  0.55966251  0.21053656  0.15135433  1
  Al  Al14  1  0.77205994  0.09932137  0.39925254  1
  Al  Al15  1  0.87787176  0.21020377  0.15000960  1
  Al  Al16  1  0.56130730  0.20771027  0.64883559  1
  Al  Al17  1  0.11205339  0.43373397  0.39374944  1
  Al  Al18  1  0.22742873  0.53271333  0.14565091  1
  Al  Al19  1  0.77699072  0.42660212  0.90155892  1
  Al  Al20  1  0.44785455  0.42395709  0.39831274  1
  Al  Al21  1  0.55811731  0.53204815  0.14881045  1
  Al  Al22  1  0.10699025  0.43581759  0.90562579  1
  Al  Al23  1  0.22276732  0.54019150  0.65301984  1
  Al  Al24  1  0.77251849  0.42342644  0.39552249  1
  Al  Al25  1  0.88812014  0.53974786  0.15032698  1
  Al  Al26  1  0.44743733  0.42610277  0.89766702  1
  Al  Al27  1  0.55996644  0.52783220  0.65120341  1
  Al  Al28  1  0.22392696  0.86792417  0.15084760  1
  Al  Al29  1  0.78723376  0.75723049  0.90288373  1
  Al  Al30  1  0.88417943  0.87648479  0.65204674  1
  Al  Al31  1  0.56365552  0.86643415  0.15015400  1
  Al  Al32  1  0.10654510  0.75760880  0.90454992  1
  Al  Al33  1  0.78017776  0.76425683  0.39613694  1
  Al  Al34  1  0.88179417  0.87753485  0.14586759  1
  Al  Al35  1  0.56928153  0.87120966  0.65178689  1
  N  N36  1  0.21357065  0.22494398  0.34187131  1
  N  N37  1  0.10741643  0.09699342  0.11766473  1
  N  N38  1  0.86900352  0.21621930  0.83887040  1
  N  N39  1  0.77705567  0.09350827  0.59078565  1
  N  N40  1  0.56564086  0.21677247  0.33768408  1
  N  N41  1  0.44618232  0.09540167  0.11467747  1
  N  N42  1  0.21331937  0.22549414  0.84999258  1
  N  N43  1  0.08741815  0.10732276  0.59748612  1
  N  N44  1  0.86349642  0.21588733  0.33425919  1
  N  N45  1  0.77578212  0.09611076  0.08666053  1
  N  N46  1  0.56502828  0.21566490  0.83670175  1
  N  N47  1  0.46421184  0.08693911  0.60204612  1
  N  N48  1  0.23818938  0.51701905  0.33151022  1
  N  N49  1  0.10875790  0.43096092  0.09506184  1
  N  N50  1  0.88964005  0.53825572  0.85275624  1
  N  N51  1  0.76612676  0.41764310  0.58339567  1
  N  N52  1  0.56405057  0.51746642  0.33451630  1
  N  N53  1  0.44565889  0.42673439  0.08688603  1
  N  N54  1  0.22267277  0.53862758  0.84615056  1
  N  N55  1  0.11739653  0.44352702  0.57991202  1
  N  N56  1  0.88827999  0.53963875  0.34542604  1
  N  N57  1  0.77785328  0.42860612  0.09195327  1
  N  N58  1  0.56696926  0.51786539  0.83926487  1
  N  N59  1  0.44116823  0.43040068  0.59125749  1
  N  N60  1  0.22487724  0.86538387  0.33989342  1
  N  N61  1  0.10841691  0.75913676  0.09905382  1
  N  N62  1  0.88892816  0.87351463  0.84528605  1
  N  N63  1  0.77415797  0.77921659  0.58401618  1
  N  N64  1  0.57791006  0.85794021  0.33322875  1
  N  N65  1  0.44767012  0.75777854  0.10736790  1
  N  N66  1  0.21237548  0.86395508  0.85383912  1
  N  N67  1  0.09840165  0.75316117  0.59854684  1
  N  N68  1  0.86604331  0.88843505  0.33279088  1
  N  N69  1  0.78096711  0.75927068  0.09153357  1
  N  N70  1  0.58121001  0.86291858  0.83917201  1
  N  N71  1  0.46786045  0.74988221  0.61073197  1
