# generated using pymatgen
data_Sc5Al13N18
_symmetry_space_group_name_H-M   'P 1'
_cell_length_a   9.86016815
_cell_length_b   9.86381845
_cell_length_c   10.23015157
_cell_angle_alpha   89.45184030
_cell_angle_beta   89.52864479
_cell_angle_gamma   60.20905690
_symmetry_Int_Tables_number   1
_chemical_formula_structural   Sc5Al13N18
_chemical_formula_sum   'Sc10 Al26 N36'
_cell_volume   863.43524187
_cell_formula_units_Z   2
loop_
 _symmetry_equiv_pos_site_id
 _symmetry_equiv_pos_as_xyz
  1  'x, y, z'
loop_
 _atom_site_type_symbol
 _atom_site_label
 _atom_site_symmetry_multiplicity
 _atom_site_fract_x
 _atom_site_fract_y
 _atom_site_fract_z
 _atom_site_occupancy
  Sc  Sc0  1  0.09544404  0.10273742  0.36927248  1
  Sc  Sc1  1  0.45414138  0.09632754  0.32968268  1
  Sc  Sc2  1  0.10342369  0.10041246  0.88501783  1
  Sc  Sc3  1  0.21833647  0.21469269  0.61715159  1
  Sc  Sc4  1  0.45604085  0.09275553  0.83220801  1
  Sc  Sc5  1  0.88276135  0.54160849  0.61635346  1
  Sc  Sc6  1  0.10603642  0.75070398  0.36320720  1
  Sc  Sc7  1  0.45520135  0.74717015  0.37273244  1
  Sc  Sc8  1  0.21616406  0.86828668  0.62870768  1
  Sc  Sc9  1  0.45236099  0.74895219  0.87380928  1
  Al  Al10  1  0.21678481  0.21377898  0.13379686  1
  Al  Al11  1  0.77895878  0.09085373  0.82026011  1
  Al  Al12  1  0.87641711  0.21302530  0.63583484  1
  Al  Al13  1  0.56165573  0.20390986  0.06496923  1
  Al  Al14  1  0.76832725  0.09880750  0.31354197  1
  Al  Al15  1  0.88152144  0.21342655  0.13151144  1
  Al  Al16  1  0.56603008  0.20401735  0.56974414  1
  Al  Al17  1  0.11187867  0.43275502  0.37695945  1
  Al  Al18  1  0.22974762  0.52970292  0.12983924  1
  Al  Al19  1  0.77831110  0.42786939  0.88470640  1
  Al  Al20  1  0.44486938  0.42857642  0.38496116  1
  Al  Al21  1  0.55748338  0.53161740  0.13291847  1
  Al  Al22  1  0.10576443  0.43542435  0.88584985  1
  Al  Al23  1  0.22015520  0.54292073  0.63560319  1
  Al  Al24  1  0.77094586  0.42208677  0.38060180  1
  Al  Al25  1  0.89030809  0.53457394  0.13455358  1
  Al  Al26  1  0.44580675  0.42979395  0.88191443  1
  Al  Al27  1  0.55778997  0.52843728  0.63519179  1
  Al  Al28  1  0.22511696  0.86909044  0.13448156  1
  Al  Al29  1  0.78692635  0.76335797  0.82243507  1
  Al  Al30  1  0.87605593  0.88326737  0.56639328  1
  Al  Al31  1  0.56529857  0.86911909  0.07332957  1
  Al  Al32  1  0.11353657  0.75306351  0.89160889  1
  Al  Al33  1  0.77886095  0.76449902  0.31782307  1
  Al  Al34  1  0.88261283  0.87520138  0.07061024  1
  Al  Al35  1  0.56883010  0.87191416  0.57142181  1
  N  N36  1  0.21020897  0.22545265  0.32411430  1
  N  N37  1  0.10823349  0.09699983  0.09695194  1
  N  N38  1  0.87287503  0.21904046  0.82628181  1
  N  N39  1  0.77574500  0.09175152  0.63097600  1
  N  N40  1  0.56961294  0.21256312  0.38321158  1
  N  N41  1  0.44622117  0.09543254  0.11047330  1
  N  N42  1  0.21124839  0.22787204  0.82657712  1
  N  N43  1  0.08543670  0.10669929  0.57924998  1
  N  N44  1  0.86561120  0.22056329  0.31546213  1
  N  N45  1  0.77421625  0.09119014  0.12288734  1
  N  N46  1  0.57192121  0.20963985  0.87910469  1
  N  N47  1  0.46390662  0.08765080  0.61278518  1
  N  N48  1  0.24029058  0.51225452  0.31371611  1
  N  N49  1  0.10834774  0.43074046  0.07583213  1
  N  N50  1  0.89056469  0.53706362  0.83219200  1
  N  N51  1  0.76325763  0.41698935  0.56625502  1
  N  N52  1  0.56428564  0.51527667  0.31695421  1
  N  N53  1  0.44305896  0.43253847  0.07166442  1
  N  N54  1  0.22243436  0.53916498  0.82867994  1
  N  N55  1  0.11657766  0.44574833  0.56089661  1
  N  N56  1  0.88910681  0.53496451  0.33166903  1
  N  N57  1  0.77695570  0.43045281  0.07398151  1
  N  N58  1  0.56884851  0.51530058  0.82127217  1
  N  N59  1  0.43649287  0.43679124  0.57837352  1
  N  N60  1  0.22294854  0.86911640  0.32088921  1
  N  N61  1  0.11405278  0.75572162  0.08828590  1
  N  N62  1  0.88931861  0.87383270  0.88229820  1
  N  N63  1  0.77144311  0.78419307  0.63579983  1
  N  N64  1  0.57925147  0.86227863  0.38416061  1
  N  N65  1  0.44806627  0.75721564  0.09515492  1
  N  N66  1  0.21201853  0.86308792  0.83529012  1
  N  N67  1  0.09905113  0.75229435  0.57507690  1
  N  N68  1  0.86148190  0.89065506  0.37615466  1
  N  N69  1  0.78000601  0.76284010  0.13034123  1
  N  N70  1  0.58403583  0.85922083  0.88880024  1
  N  N71  1  0.46524909  0.74942283  0.59533321  1
