# generated using pymatgen
data_Sc5Al13N18
_symmetry_space_group_name_H-M   'P 1'
_cell_length_a   9.86487007
_cell_length_b   9.82204777
_cell_length_c   10.35788516
_cell_angle_alpha   89.11525746
_cell_angle_beta   89.84101865
_cell_angle_gamma   59.85562015
_symmetry_Int_Tables_number   1
_chemical_formula_structural   Sc5Al13N18
_chemical_formula_sum   'Sc10 Al26 N36'
_cell_volume   867.76568481
_cell_formula_units_Z   2
loop_
 _symmetry_equiv_pos_site_id
 _symmetry_equiv_pos_as_xyz
  1  'x, y, z'
loop_
 _atom_site_type_symbol
 _atom_site_label
 _atom_site_symmetry_multiplicity
 _atom_site_fract_x
 _atom_site_fract_y
 _atom_site_fract_z
 _atom_site_occupancy
  Sc  Sc0  1  0.10203488  0.09768806  0.30321921  1
  Sc  Sc1  1  0.45277463  0.09830791  0.31583703  1
  Sc  Sc2  1  0.09695634  0.10549082  0.82846430  1
  Sc  Sc3  1  0.22080267  0.21034541  0.56447658  1
  Sc  Sc4  1  0.45281042  0.09718371  0.81685035  1
  Sc  Sc5  1  0.88431088  0.53883696  0.61843964  1
  Sc  Sc6  1  0.10503374  0.75727199  0.32563691  1
  Sc  Sc7  1  0.45120815  0.75847027  0.31661795  1
  Sc  Sc8  1  0.22332876  0.87088574  0.58080330  1
  Sc  Sc9  1  0.45584860  0.75341978  0.83523729  1
  Al  Al10  1  0.22453725  0.20569010  0.05891771  1
  Al  Al11  1  0.77591956  0.09875899  0.81269530  1
  Al  Al12  1  0.87792474  0.20227504  0.55859836  1
  Al  Al13  1  0.56358691  0.19993171  0.05911776  1
  Al  Al14  1  0.77281190  0.09758088  0.31344965  1
  Al  Al15  1  0.88193430  0.20143701  0.06146125  1
  Al  Al16  1  0.56441266  0.20400868  0.56243798  1
  Al  Al17  1  0.11031461  0.42987238  0.34519026  1
  Al  Al18  1  0.23048760  0.53098450  0.12400553  1
  Al  Al19  1  0.77377947  0.43280688  0.88504852  1
  Al  Al20  1  0.44603057  0.43019035  0.38119295  1
  Al  Al21  1  0.55997574  0.52611631  0.12491769  1
  Al  Al22  1  0.10385912  0.44299156  0.87980942  1
  Al  Al23  1  0.22602725  0.53610511  0.63524533  1
  Al  Al24  1  0.76984132  0.42696268  0.37572563  1
  Al  Al25  1  0.88602269  0.53706943  0.12835997  1
  Al  Al26  1  0.44521785  0.43070755  0.88078155  1
  Al  Al27  1  0.56068181  0.52722076  0.63153216  1
  Al  Al28  1  0.21971059  0.86438716  0.05435438  1
  Al  Al29  1  0.78253542  0.76768617  0.81719266  1
  Al  Al30  1  0.87860376  0.88057475  0.56794507  1
  Al  Al31  1  0.56450884  0.87001274  0.06290635  1
  Al  Al32  1  0.10030514  0.76312788  0.81525053  1
  Al  Al33  1  0.77889677  0.76487803  0.31435578  1
  Al  Al34  1  0.88939835  0.87126378  0.06236535  1
  Al  Al35  1  0.56752271  0.87052353  0.56531669  1
  N  N36  1  0.21513083  0.21461236  0.35824813  1
  N  N37  1  0.10986987  0.09217798  0.09296578  1
  N  N38  1  0.86574742  0.21175681  0.87966605  1
  N  N39  1  0.77529765  0.09748428  0.62681252  1
  N  N40  1  0.56960363  0.21066532  0.37807321  1
  N  N41  1  0.44676409  0.09446984  0.10556143  1
  N  N42  1  0.21776354  0.22375362  0.87341658  1
  N  N43  1  0.08332630  0.11208825  0.62250739  1
  N  N44  1  0.87506149  0.20346481  0.36999864  1
  N  N45  1  0.77748416  0.09135985  0.12550489  1
  N  N46  1  0.56999066  0.20824829  0.87539261  1
  N  N47  1  0.46231245  0.08982531  0.60846470  1
  N  N48  1  0.24265298  0.51022577  0.30913351  1
  N  N49  1  0.10662079  0.43353870  0.08319609  1
  N  N50  1  0.88809444  0.53796784  0.83248329  1
  N  N51  1  0.76030436  0.42479661  0.56005237  1
  N  N52  1  0.56517554  0.51442535  0.30875381  1
  N  N53  1  0.44361014  0.43081181  0.06695522  1
  N  N54  1  0.22687070  0.53468266  0.82586450  1
  N  N55  1  0.11541558  0.44710113  0.57223382  1
  N  N56  1  0.88794471  0.53268687  0.32112696  1
  N  N57  1  0.77524975  0.43276206  0.07321814  1
  N  N58  1  0.57044633  0.51055167  0.81706635  1
  N  N59  1  0.43735736  0.43973675  0.57089693  1
  N  N60  1  0.22310964  0.86995784  0.37780440  1
  N  N61  1  0.10819976  0.76225387  0.11434071  1
  N  N62  1  0.88849719  0.87481569  0.87600731  1
  N  N63  1  0.76961162  0.78553323  0.63311261  1
  N  N64  1  0.57781800  0.86016190  0.38101925  1
  N  N65  1  0.44488481  0.76057848  0.09919979  1
  N  N66  1  0.21326310  0.85934974  0.86870033  1
  N  N67  1  0.09276071  0.76183143  0.62602709  1
  N  N68  1  0.86779577  0.88320111  0.38058682  1
  N  N69  1  0.77798697  0.76722002  0.12657301  1
  N  N70  1  0.58156619  0.86355794  0.88402153  1
  N  N71  1  0.46836839  0.75490822  0.62169591  1
