# generated using pymatgen
data_Sc5Al13N18
_symmetry_space_group_name_H-M   'P 1'
_cell_length_a   9.88673346
_cell_length_b   9.83014510
_cell_length_c   10.24499152
_cell_angle_alpha   89.53332585
_cell_angle_beta   90.06200677
_cell_angle_gamma   60.14693754
_symmetry_Int_Tables_number   1
_chemical_formula_structural   Sc5Al13N18
_chemical_formula_sum   'Sc10 Al26 N36'
_cell_volume   863.52337455
_cell_formula_units_Z   2
loop_
 _symmetry_equiv_pos_site_id
 _symmetry_equiv_pos_as_xyz
  1  'x, y, z'
loop_
 _atom_site_type_symbol
 _atom_site_label
 _atom_site_symmetry_multiplicity
 _atom_site_fract_x
 _atom_site_fract_y
 _atom_site_fract_z
 _atom_site_occupancy
  Sc  Sc0  1  0.09846097  0.10130229  0.31688199  1
  Sc  Sc1  1  0.44897212  0.09873911  0.32776130  1
  Sc  Sc2  1  0.09879905  0.10301410  0.83891084  1
  Sc  Sc3  1  0.21864938  0.21304543  0.57688691  1
  Sc  Sc4  1  0.45363070  0.09685257  0.82703086  1
  Sc  Sc5  1  0.88302735  0.54492310  0.57641095  1
  Sc  Sc6  1  0.10417090  0.75173839  0.36287513  1
  Sc  Sc7  1  0.45048879  0.75750905  0.32769743  1
  Sc  Sc8  1  0.22116497  0.86800389  0.59221454  1
  Sc  Sc9  1  0.45649844  0.75555594  0.84684252  1
  Al  Al10  1  0.22202461  0.21205885  0.06659655  1
  Al  Al11  1  0.77828596  0.09501937  0.82168927  1
  Al  Al12  1  0.87565292  0.20905755  0.57190418  1
  Al  Al13  1  0.56354786  0.20070728  0.06954428  1
  Al  Al14  1  0.76967989  0.10282767  0.32293245  1
  Al  Al15  1  0.87984376  0.20905878  0.06880435  1
  Al  Al16  1  0.56497702  0.20233232  0.57174438  1
  Al  Al17  1  0.10477085  0.42694280  0.30979532  1
  Al  Al18  1  0.23190350  0.53062400  0.13493830  1
  Al  Al19  1  0.78044699  0.42095271  0.82521278  1
  Al  Al20  1  0.44521212  0.43016111  0.38874313  1
  Al  Al21  1  0.55763575  0.52917285  0.12582241  1
  Al  Al22  1  0.10608337  0.43604605  0.82846491  1
  Al  Al23  1  0.22373249  0.54497682  0.64490531  1
  Al  Al24  1  0.78032340  0.42410820  0.31545988  1
  Al  Al25  1  0.88847202  0.53930556  0.06834264  1
  Al  Al26  1  0.44402592  0.43009895  0.89179976  1
  Al  Al27  1  0.55526660  0.52956124  0.64285700  1
  Al  Al28  1  0.22407331  0.87106757  0.06794876  1
  Al  Al29  1  0.78638156  0.76342129  0.82492085  1
  Al  Al30  1  0.87581070  0.88049463  0.57051049  1
  Al  Al31  1  0.56537033  0.87138392  0.07131414  1
  Al  Al32  1  0.10906853  0.75132501  0.89477468  1
  Al  Al33  1  0.77914213  0.76096129  0.31790088  1
  Al  Al34  1  0.88183135  0.87677940  0.07649611  1
  Al  Al35  1  0.56761170  0.86871153  0.57355791  1
  N  N36  1  0.20957874  0.22253722  0.37148615  1
  N  N37  1  0.10954280  0.09477067  0.10237653  1
  N  N38  1  0.86570967  0.21440855  0.88707433  1
  N  N39  1  0.77713976  0.09427899  0.63345404  1
  N  N40  1  0.56685257  0.21199112  0.38559382  1
  N  N41  1  0.44643360  0.09516223  0.11373476  1
  N  N42  1  0.21711479  0.22612331  0.88173811  1
  N  N43  1  0.08566242  0.10837868  0.62980737  1
  N  N44  1  0.86717653  0.21703664  0.38362797  1
  N  N45  1  0.77753619  0.09521715  0.13359461  1
  N  N46  1  0.57143856  0.20865269  0.88292805  1
  N  N47  1  0.46197846  0.08758604  0.61548990  1
  N  N48  1  0.24076669  0.51150292  0.32090885  1
  N  N49  1  0.10627904  0.42829157  0.11971187  1
  N  N50  1  0.88712865  0.54058882  0.87740675  1
  N  N51  1  0.77362375  0.41548220  0.63563261  1
  N  N52  1  0.56154887  0.51691973  0.31878808  1
  N  N53  1  0.44298265  0.42810073  0.07890900  1
  N  N54  1  0.22707513  0.54239019  0.83840477  1
  N  N55  1  0.11178135  0.43886344  0.64283918  1
  N  N56  1  0.88960177  0.53889772  0.36461336  1
  N  N57  1  0.78528455  0.42406264  0.12371669  1
  N  N58  1  0.56343951  0.51743443  0.84024598  1
  N  N59  1  0.43777169  0.43641899  0.58237772  1
  N  N60  1  0.22185068  0.87459166  0.38249025  1
  N  N61  1  0.11165332  0.75628452  0.09737471  1
  N  N62  1  0.88769255  0.87543002  0.88642700  1
  N  N63  1  0.77231186  0.77974084  0.64033244  1
  N  N64  1  0.57809954  0.86006968  0.38690453  1
  N  N65  1  0.44715925  0.76152785  0.10560648  1
  N  N66  1  0.21557838  0.86134589  0.87700907  1
  N  N67  1  0.09632181  0.74856456  0.58036364  1
  N  N68  1  0.85953455  0.88991094  0.37929090  1
  N  N69  1  0.78081586  0.75974379  0.13040374  1
  N  N70  1  0.58415998  0.86499151  0.89030834  1
  N  N71  1  0.46855168  0.75162562  0.62705189  1
