# generated using pymatgen
data_Sc5Al13N18
_symmetry_space_group_name_H-M   'P 1'
_cell_length_a   9.94638109
_cell_length_b   9.91616589
_cell_length_c   10.03121569
_cell_angle_alpha   89.61637031
_cell_angle_beta   89.81686375
_cell_angle_gamma   60.06314316
_symmetry_Int_Tables_number   1
_chemical_formula_structural   Sc5Al13N18
_chemical_formula_sum   'Sc10 Al26 N36'
_cell_volume   857.35229726
_cell_formula_units_Z   2
loop_
 _symmetry_equiv_pos_site_id
 _symmetry_equiv_pos_as_xyz
  1  'x, y, z'
loop_
 _atom_site_type_symbol
 _atom_site_label
 _atom_site_symmetry_multiplicity
 _atom_site_fract_x
 _atom_site_fract_y
 _atom_site_fract_z
 _atom_site_occupancy
  Sc  Sc0  1  0.09719221  0.10023465  0.35379426  1
  Sc  Sc1  1  0.45599127  0.09658345  0.33819366  1
  Sc  Sc2  1  0.10272611  0.10537330  0.86332438  1
  Sc  Sc3  1  0.21945495  0.21648386  0.60882518  1
  Sc  Sc4  1  0.45573475  0.09251536  0.83020752  1
  Sc  Sc5  1  0.88191945  0.54151181  0.61214487  1
  Sc  Sc6  1  0.10533278  0.75675732  0.33886132  1
  Sc  Sc7  1  0.45095004  0.75699338  0.33039263  1
  Sc  Sc8  1  0.22476485  0.86767342  0.60008302  1
  Sc  Sc9  1  0.45916208  0.74949995  0.84847788  1
  Al  Al10  1  0.22010367  0.21122812  0.13137967  1
  Al  Al11  1  0.77456484  0.09242316  0.82797700  1
  Al  Al12  1  0.87180706  0.21408604  0.63907546  1
  Al  Al13  1  0.55969657  0.20278675  0.06821491  1
  Al  Al14  1  0.77055544  0.09793718  0.31346393  1
  Al  Al15  1  0.88150389  0.21019772  0.11971379  1
  Al  Al16  1  0.56671306  0.20530521  0.57154157  1
  Al  Al17  1  0.11212562  0.43486729  0.37541867  1
  Al  Al18  1  0.22837279  0.53142666  0.12888783  1
  Al  Al19  1  0.77668223  0.42996657  0.88764507  1
  Al  Al20  1  0.44550746  0.43097400  0.38440277  1
  Al  Al21  1  0.55851654  0.52789422  0.12863140  1
  Al  Al22  1  0.10620682  0.43587063  0.88600114  1
  Al  Al23  1  0.22391107  0.53659199  0.63683034  1
  Al  Al24  1  0.77027786  0.42150217  0.37774898  1
  Al  Al25  1  0.89010659  0.53547532  0.13577086  1
  Al  Al26  1  0.44339978  0.43011634  0.88306499  1
  Al  Al27  1  0.55967186  0.52726607  0.63557804  1
  Al  Al28  1  0.21961511  0.86390958  0.06575377  1
  Al  Al29  1  0.78580777  0.76134837  0.82386221  1
  Al  Al30  1  0.87655508  0.88382420  0.57439300  1
  Al  Al31  1  0.56602850  0.86957015  0.07440957  1
  Al  Al32  1  0.10018531  0.75893069  0.82318418  1
  Al  Al33  1  0.78094921  0.76454273  0.32238421  1
  Al  Al34  1  0.88991116  0.86943080  0.06967867  1
  Al  Al35  1  0.56908417  0.86803402  0.57227872  1
  N  N36  1  0.21213975  0.22407503  0.33032723  1
  N  N37  1  0.11183776  0.09315621  0.09607427  1
  N  N38  1  0.86703361  0.21834222  0.84215431  1
  N  N39  1  0.77322578  0.09416072  0.63508336  1
  N  N40  1  0.57195913  0.21440757  0.38111763  1
  N  N41  1  0.44642632  0.09469568  0.11315803  1
  N  N42  1  0.21493009  0.23052739  0.82515536  1
  N  N43  1  0.08317256  0.11104928  0.60254745  1
  N  N44  1  0.86648340  0.21935993  0.31169556  1
  N  N45  1  0.77448342  0.08812895  0.11928423  1
  N  N46  1  0.56709855  0.21051048  0.87881056  1
  N  N47  1  0.46475793  0.08755919  0.60565244  1
  N  N48  1  0.24079751  0.51312589  0.31808397  1
  N  N49  1  0.10830709  0.43027366  0.07933173  1
  N  N50  1  0.89025028  0.53554592  0.83353086  1
  N  N51  1  0.76253221  0.41549149  0.56708140  1
  N  N52  1  0.56327811  0.51767631  0.31799408  1
  N  N53  1  0.44201665  0.43127641  0.07511193  1
  N  N54  1  0.22432243  0.53425388  0.83140875  1
  N  N55  1  0.11510131  0.44959037  0.56157259  1
  N  N56  1  0.88948189  0.53501244  0.33586077  1
  N  N57  1  0.77609307  0.43302702  0.07787155  1
  N  N58  1  0.56968601  0.51088963  0.82635506  1
  N  N59  1  0.43684976  0.43786893  0.58000485  1
  N  N60  1  0.22512797  0.86548022  0.38875999  1
  N  N61  1  0.10831865  0.76107817  0.11900207  1
  N  N62  1  0.88956672  0.87125799  0.87995248  1
  N  N63  1  0.77132540  0.78308485  0.63442841  1
  N  N64  1  0.57965212  0.85848979  0.38312253  1
  N  N65  1  0.44459583  0.75980290  0.10316819  1
  N  N66  1  0.21390620  0.85836117  0.86786052  1
  N  N67  1  0.09132726  0.75861838  0.62600431  1
  N  N68  1  0.86568126  0.88919463  0.38254732  1
  N  N69  1  0.78178433  0.76234087  0.13090411  1
  N  N70  1  0.58496723  0.85976552  0.88963767  1
  N  N71  1  0.47267954  0.75014447  0.62374119  1
