# generated using pymatgen
data_Sc5Al13N18
_symmetry_space_group_name_H-M   'P 1'
_cell_length_a   9.90243789
_cell_length_b   9.89825503
_cell_length_c   10.06430605
_cell_angle_alpha   89.72422524
_cell_angle_beta   89.73235680
_cell_angle_gamma   60.04851720
_symmetry_Int_Tables_number   1
_chemical_formula_structural   Sc5Al13N18
_chemical_formula_sum   'Sc10 Al26 N36'
_cell_volume   854.71402348
_cell_formula_units_Z   2
loop_
 _symmetry_equiv_pos_site_id
 _symmetry_equiv_pos_as_xyz
  1  'x, y, z'
loop_
 _atom_site_type_symbol
 _atom_site_label
 _atom_site_symmetry_multiplicity
 _atom_site_fract_x
 _atom_site_fract_y
 _atom_site_fract_z
 _atom_site_occupancy
  Sc  Sc0  1  0.09587517  0.10348605  0.36692982  1
  Sc  Sc1  1  0.45157535  0.09691821  0.35771317  1
  Sc  Sc2  1  0.10104203  0.09994309  0.88157600  1
  Sc  Sc3  1  0.22187660  0.21267193  0.62114589  1
  Sc  Sc4  1  0.44723755  0.10410403  0.87736672  1
  Sc  Sc5  1  0.88310441  0.54190385  0.61189552  1
  Sc  Sc6  1  0.10181681  0.75261641  0.36720275  1
  Sc  Sc7  1  0.45712178  0.74601908  0.36726951  1
  Sc  Sc8  1  0.21893002  0.86820049  0.62360631  1
  Sc  Sc9  1  0.45112004  0.75131610  0.86823693  1
  Al  Al10  1  0.21816123  0.21235197  0.13512246  1
  Al  Al11  1  0.77543947  0.09994795  0.88112977  1
  Al  Al12  1  0.87371028  0.20988216  0.63220745  1
  Al  Al13  1  0.56029764  0.21189425  0.13325008  1
  Al  Al14  1  0.77201303  0.09970882  0.38069831  1
  Al  Al15  1  0.87849357  0.20969350  0.13121540  1
  Al  Al16  1  0.56081520  0.20833459  0.62947687  1
  Al  Al17  1  0.11353000  0.43234278  0.37561170  1
  Al  Al18  1  0.22879986  0.53030492  0.12662013  1
  Al  Al19  1  0.77790345  0.42694251  0.88156870  1
  Al  Al20  1  0.44756616  0.42369063  0.38088880  1
  Al  Al21  1  0.55904989  0.52969907  0.12920235  1
  Al  Al22  1  0.10437140  0.43709261  0.88473370  1
  Al  Al23  1  0.22148122  0.54139492  0.63454664  1
  Al  Al24  1  0.77196116  0.42112807  0.37766535  1
  Al  Al25  1  0.89198687  0.53063072  0.12931309  1
  Al  Al26  1  0.44790760  0.42590957  0.87818094  1
  Al  Al27  1  0.55951533  0.52764850  0.63232852  1
  Al  Al28  1  0.22424602  0.86842698  0.13403438  1
  Al  Al29  1  0.78244165  0.76251127  0.82665603  1
  Al  Al30  1  0.88679924  0.88215819  0.63649262  1
  Al  Al31  1  0.56622948  0.86473524  0.07657780  1
  Al  Al32  1  0.10833168  0.75702680  0.88884028  1
  Al  Al33  1  0.78072999  0.76019376  0.31202000  1
  Al  Al34  1  0.88475374  0.87972302  0.12192443  1
  Al  Al35  1  0.57074146  0.87079045  0.57058137  1
  N  N36  1  0.21060193  0.22508433  0.32453945  1
  N  N37  1  0.10780701  0.09585442  0.09848155  1
  N  N38  1  0.86862947  0.21687850  0.82247024  1
  N  N39  1  0.77676108  0.09481998  0.57315209  1
  N  N40  1  0.56619257  0.21816502  0.32084455  1
  N  N41  1  0.44637613  0.09594544  0.10327142  1
  N  N42  1  0.21064147  0.22706065  0.83117672  1
  N  N43  1  0.08641315  0.10740936  0.58215834  1
  N  N44  1  0.86351892  0.21567684  0.31656171  1
  N  N45  1  0.77467015  0.09856725  0.07055475  1
  N  N46  1  0.56646769  0.21626738  0.81880597  1
  N  N47  1  0.46226196  0.09115534  0.58510574  1
  N  N48  1  0.23897238  0.51511333  0.31358180  1
  N  N49  1  0.10976695  0.42921595  0.07613248  1
  N  N50  1  0.88935065  0.53657427  0.83292353  1
  N  N51  1  0.76468835  0.41653809  0.56609308  1
  N  N52  1  0.56532708  0.51428014  0.31627859  1
  N  N53  1  0.44609948  0.42590268  0.06847267  1
  N  N54  1  0.22219467  0.53918478  0.82903186  1
  N  N55  1  0.11860338  0.44371941  0.56257372  1
  N  N56  1  0.89100619  0.53279618  0.33108538  1
  N  N57  1  0.77852468  0.42665219  0.07348923  1
  N  N58  1  0.56787759  0.51651531  0.82199586  1
  N  N59  1  0.44020895  0.43165746  0.57427206  1
  N  N60  1  0.22229789  0.86761894  0.32525723  1
  N  N61  1  0.11175352  0.75726062  0.08429950  1
  N  N62  1  0.89272125  0.87773847  0.83847222  1
  N  N63  1  0.76999638  0.78256449  0.63435585  1
  N  N64  1  0.58443687  0.85649951  0.37892360  1
  N  N65  1  0.44755993  0.75575033  0.09632256  1
  N  N66  1  0.21185303  0.86302229  0.83383090  1
  N  N67  1  0.09622513  0.75368365  0.57882354  1
  N  N68  1  0.86763103  0.89230572  0.31484890  1
  N  N69  1  0.78175418  0.75514697  0.11918721  1
  N  N70  1  0.57893755  0.86402547  0.88703469  1
  N  N71  1  0.46721943  0.74884664  0.59571380  1
