# generated using pymatgen
data_Sc5Al13N18
_symmetry_space_group_name_H-M   'P 1'
_cell_length_a   9.95836530
_cell_length_b   9.93497554
_cell_length_c   9.99703852
_cell_angle_alpha   89.71878279
_cell_angle_beta   89.88489939
_cell_angle_gamma   60.10539705
_symmetry_Int_Tables_number   1
_chemical_formula_structural   Sc5Al13N18
_chemical_formula_sum   'Sc10 Al26 N36'
_cell_volume   857.45597337
_cell_formula_units_Z   2
loop_
 _symmetry_equiv_pos_site_id
 _symmetry_equiv_pos_as_xyz
  1  'x, y, z'
loop_
 _atom_site_type_symbol
 _atom_site_label
 _atom_site_symmetry_multiplicity
 _atom_site_fract_x
 _atom_site_fract_y
 _atom_site_fract_z
 _atom_site_occupancy
  Sc  Sc0  1  0.09456097  0.10723775  0.37205521  1
  Sc  Sc1  1  0.45263776  0.09581609  0.36110917  1
  Sc  Sc2  1  0.09970003  0.10601365  0.87033572  1
  Sc  Sc3  1  0.22483817  0.21397843  0.62169578  1
  Sc  Sc4  1  0.44810373  0.10069321  0.87733953  1
  Sc  Sc5  1  0.88461424  0.54095807  0.60969927  1
  Sc  Sc6  1  0.10560862  0.75413320  0.35687676  1
  Sc  Sc7  1  0.45224398  0.75209569  0.34137510  1
  Sc  Sc8  1  0.21841403  0.86709410  0.60538346  1
  Sc  Sc9  1  0.45909128  0.75168314  0.84541013  1
  Al  Al10  1  0.21847196  0.21121815  0.13487188  1
  Al  Al11  1  0.77883318  0.09041217  0.82429924  1
  Al  Al12  1  0.87339887  0.21430966  0.63569585  1
  Al  Al13  1  0.55298622  0.21370802  0.12918642  1
  Al  Al14  1  0.77343828  0.09630660  0.31328329  1
  Al  Al15  1  0.88351122  0.21034773  0.12539490  1
  Al  Al16  1  0.55756106  0.20981251  0.63215997  1
  Al  Al17  1  0.11495258  0.43231643  0.37622070  1
  Al  Al18  1  0.22933570  0.52911003  0.12835024  1
  Al  Al19  1  0.77700013  0.42991592  0.88438612  1
  Al  Al20  1  0.44781260  0.42397626  0.38241584  1
  Al  Al21  1  0.55980228  0.52758285  0.12793376  1
  Al  Al22  1  0.10366394  0.43805822  0.88541516  1
  Al  Al23  1  0.22032438  0.54232673  0.63373362  1
  Al  Al24  1  0.76984967  0.42217733  0.37820483  1
  Al  Al25  1  0.89191841  0.53337594  0.13467560  1
  Al  Al26  1  0.44702401  0.42661162  0.88001864  1
  Al  Al27  1  0.56005570  0.52623751  0.63294589  1
  Al  Al28  1  0.22444240  0.86866761  0.07902439  1
  Al  Al29  1  0.78604206  0.76307683  0.82136164  1
  Al  Al30  1  0.87572220  0.88316699  0.56706811  1
  Al  Al31  1  0.56804849  0.86370503  0.07779230  1
  Al  Al32  1  0.11046926  0.75105471  0.88318547  1
  Al  Al33  1  0.78075812  0.76262211  0.31990431  1
  Al  Al34  1  0.88189288  0.87483324  0.06989267  1
  Al  Al35  1  0.56952020  0.86754413  0.57219036  1
  N  N36  1  0.21220460  0.22460190  0.32614584  1
  N  N37  1  0.11009031  0.09477601  0.09375840  1
  N  N38  1  0.86682171  0.22066690  0.83172643  1
  N  N39  1  0.77887721  0.09131013  0.62490559  1
  N  N40  1  0.56062530  0.22083836  0.32080935  1
  N  N41  1  0.44464577  0.09503081  0.10274238  1
  N  N42  1  0.21317982  0.23002229  0.83228294  1
  N  N43  1  0.08495935  0.11287759  0.59479268  1
  N  N44  1  0.86656656  0.21890065  0.31543249  1
  N  N45  1  0.77740157  0.09073793  0.11174751  1
  N  N46  1  0.56030531  0.21822988  0.82661112  1
  N  N47  1  0.46474424  0.08850759  0.58783679  1
  N  N48  1  0.24020658  0.51445633  0.31586632  1
  N  N49  1  0.10842758  0.43029651  0.07849198  1
  N  N50  1  0.88964257  0.53711749  0.83214455  1
  N  N51  1  0.76343826  0.41727601  0.56729716  1
  N  N52  1  0.56435753  0.51436146  0.31764829  1
  N  N53  1  0.44433674  0.42765472  0.06998628  1
  N  N54  1  0.22259442  0.53810937  0.82981405  1
  N  N55  1  0.11940749  0.44288632  0.56374471  1
  N  N56  1  0.89115319  0.53366255  0.33582748  1
  N  N57  1  0.77821251  0.43047124  0.07627477  1
  N  N58  1  0.56873736  0.51398732  0.82541737  1
  N  N59  1  0.44039356  0.43094784  0.57663637  1
  N  N60  1  0.22205362  0.87168786  0.37765914  1
  N  N61  1  0.11265621  0.75521154  0.09205198  1
  N  N62  1  0.88957088  0.87190169  0.87839121  1
  N  N63  1  0.77178884  0.78308400  0.63210996  1
  N  N64  1  0.58150266  0.85451361  0.38054322  1
  N  N65  1  0.44681470  0.75782883  0.10493563  1
  N  N66  1  0.21536113  0.86152710  0.85998118  1
  N  N67  1  0.09546021  0.75115177  0.58192573  1
  N  N68  1  0.86119287  0.89070765  0.37344920  1
  N  N69  1  0.78286000  0.75982846  0.12881629  1
  N  N70  1  0.58560153  0.86021441  0.88929371  1
  N  N71  1  0.46948199  0.74927868  0.61581392  1
