# generated using pymatgen
data_Sc5Al13N18
_symmetry_space_group_name_H-M   'P 1'
_cell_length_a   9.86136645
_cell_length_b   9.80780178
_cell_length_c   10.32428220
_cell_angle_alpha   89.43793460
_cell_angle_beta   90.04130137
_cell_angle_gamma   60.15106719
_symmetry_Int_Tables_number   1
_chemical_formula_structural   Sc5Al13N18
_chemical_formula_sum   'Sc10 Al26 N36'
_cell_volume   866.02097386
_cell_formula_units_Z   2
loop_
 _symmetry_equiv_pos_site_id
 _symmetry_equiv_pos_as_xyz
  1  'x, y, z'
loop_
 _atom_site_type_symbol
 _atom_site_label
 _atom_site_symmetry_multiplicity
 _atom_site_fract_x
 _atom_site_fract_y
 _atom_site_fract_z
 _atom_site_occupancy
  Sc  Sc0  1  0.09893997  0.10049766  0.31206161  1
  Sc  Sc1  1  0.44893114  0.09988675  0.32363905  1
  Sc  Sc2  1  0.09930918  0.10193872  0.83636189  1
  Sc  Sc3  1  0.21808846  0.21292070  0.57288395  1
  Sc  Sc4  1  0.45291837  0.09697725  0.82392023  1
  Sc  Sc5  1  0.88341420  0.54696846  0.57187494  1
  Sc  Sc6  1  0.10429774  0.75029570  0.36186945  1
  Sc  Sc7  1  0.45094697  0.75793540  0.32844184  1
  Sc  Sc8  1  0.22070263  0.86789467  0.58841295  1
  Sc  Sc9  1  0.45719879  0.75394851  0.84166455  1
  Al  Al10  1  0.22184899  0.21191740  0.06337803  1
  Al  Al11  1  0.77791295  0.09561325  0.81885298  1
  Al  Al12  1  0.87690496  0.20881394  0.56868587  1
  Al  Al13  1  0.56363376  0.20069948  0.06597671  1
  Al  Al14  1  0.77007747  0.10299505  0.32009896  1
  Al  Al15  1  0.87941295  0.20989573  0.06552126  1
  Al  Al16  1  0.56478532  0.20255619  0.56878850  1
  Al  Al17  1  0.10525385  0.42646083  0.30549101  1
  Al  Al18  1  0.23222043  0.53077303  0.13187050  1
  Al  Al19  1  0.78087671  0.42077890  0.81917202  1
  Al  Al20  1  0.44501408  0.43006548  0.38750007  1
  Al  Al21  1  0.55692915  0.52886130  0.13027296  1
  Al  Al22  1  0.10525887  0.43569850  0.82551585  1
  Al  Al23  1  0.22361589  0.54446403  0.64321844  1
  Al  Al24  1  0.78228584  0.42342543  0.31386527  1
  Al  Al25  1  0.88760434  0.53939472  0.06556419  1
  Al  Al26  1  0.44439061  0.43042586  0.88870094  1
  Al  Al27  1  0.55541497  0.52889486  0.63940839  1
  Al  Al28  1  0.22539399  0.86989771  0.06569521  1
  Al  Al29  1  0.78563167  0.76389174  0.82261326  1
  Al  Al30  1  0.87513600  0.88140692  0.56792057  1
  Al  Al31  1  0.56436944  0.87094710  0.06892301  1
  Al  Al32  1  0.10939938  0.75074096  0.89350855  1
  Al  Al33  1  0.77891075  0.76202606  0.31452055  1
  Al  Al34  1  0.88155101  0.87711005  0.07332345  1
  Al  Al35  1  0.56706346  0.87034546  0.57106304  1
  N  N36  1  0.20933479  0.22223069  0.36878572  1
  N  N37  1  0.10958533  0.09426117  0.09956691  1
  N  N38  1  0.86521419  0.21547247  0.88472783  1
  N  N39  1  0.77704078  0.09516358  0.63146545  1
  N  N40  1  0.56753121  0.21167326  0.38404237  1
  N  N41  1  0.44624401  0.09541111  0.11153754  1
  N  N42  1  0.21668844  0.22599667  0.88025798  1
  N  N43  1  0.08639582  0.10736029  0.62900569  1
  N  N44  1  0.86877062  0.21607563  0.38166328  1
  N  N45  1  0.77744436  0.09557750  0.13149040  1
  N  N46  1  0.57118411  0.20820616  0.88112745  1
  N  N47  1  0.46116322  0.08876826  0.61411983  1
  N  N48  1  0.24213124  0.51057236  0.31630059  1
  N  N49  1  0.10612205  0.42813452  0.11705116  1
  N  N50  1  0.88603482  0.54077184  0.87555286  1
  N  N51  1  0.77545778  0.41608414  0.63054655  1
  N  N52  1  0.56244400  0.51623680  0.31829400  1
  N  N53  1  0.44379404  0.42945794  0.07471411  1
  N  N54  1  0.22671700  0.54225013  0.83517763  1
  N  N55  1  0.11143150  0.43792872  0.64136599  1
  N  N56  1  0.89040252  0.53966420  0.36155838  1
  N  N57  1  0.78497061  0.42398640  0.12313725  1
  N  N58  1  0.56243181  0.51555178  0.82828424  1
  N  N59  1  0.43674027  0.43685091  0.57828831  1
  N  N60  1  0.22115991  0.87456482  0.38069078  1
  N  N61  1  0.11150001  0.75588705  0.09369948  1
  N  N62  1  0.88730081  0.87592303  0.88433804  1
  N  N63  1  0.77154456  0.78099583  0.63916216  1
  N  N64  1  0.57838628  0.86163643  0.38566016  1
  N  N65  1  0.44756618  0.76059349  0.10704752  1
  N  N66  1  0.21731158  0.86006926  0.87654186  1
  N  N67  1  0.09596251  0.74749235  0.57688656  1
  N  N68  1  0.85956477  0.89024571  0.37742544  1
  N  N69  1  0.78025809  0.76027853  0.12819953  1
  N  N70  1  0.58303539  0.86465407  0.88891768  1
  N  N71  1  0.46798901  0.75261157  0.62311758  1
