# generated using pymatgen
data_Sc5Al13N18
_symmetry_space_group_name_H-M   'P 1'
_cell_length_a   9.94615388
_cell_length_b   9.92807078
_cell_length_c   10.00992178
_cell_angle_alpha   89.68180215
_cell_angle_beta   89.85907083
_cell_angle_gamma   60.11704988
_symmetry_Int_Tables_number   1
_chemical_formula_structural   Sc5Al13N18
_chemical_formula_sum   'Sc10 Al26 N36'
_cell_volume   857.00954823
_cell_formula_units_Z   2
loop_
 _symmetry_equiv_pos_site_id
 _symmetry_equiv_pos_as_xyz
  1  'x, y, z'
loop_
 _atom_site_type_symbol
 _atom_site_label
 _atom_site_symmetry_multiplicity
 _atom_site_fract_x
 _atom_site_fract_y
 _atom_site_fract_z
 _atom_site_occupancy
  Sc  Sc0  1  0.09412596  0.10768317  0.37142394  1
  Sc  Sc1  1  0.45202694  0.09638160  0.36088647  1
  Sc  Sc2  1  0.10236640  0.10045856  0.87667879  1
  Sc  Sc3  1  0.22407966  0.21332637  0.62257600  1
  Sc  Sc4  1  0.44780425  0.10087785  0.87772974  1
  Sc  Sc5  1  0.88464089  0.54109979  0.61035425  1
  Sc  Sc6  1  0.10424994  0.75195814  0.35814555  1
  Sc  Sc7  1  0.45577671  0.74801625  0.35487730  1
  Sc  Sc8  1  0.21630863  0.86769084  0.61754230  1
  Sc  Sc9  1  0.45461039  0.75232938  0.85463981  1
  Al  Al10  1  0.21826231  0.21208940  0.13495751  1
  Al  Al11  1  0.77971611  0.09011635  0.82403844  1
  Al  Al12  1  0.87503419  0.21345368  0.63569624  1
  Al  Al13  1  0.55305122  0.21387286  0.12905670  1
  Al  Al14  1  0.77353331  0.09620758  0.31289365  1
  Al  Al15  1  0.88277717  0.21138210  0.12587627  1
  Al  Al16  1  0.55768513  0.20989205  0.63232172  1
  Al  Al17  1  0.11484707  0.43201192  0.37653852  1
  Al  Al18  1  0.22946307  0.52945816  0.12774603  1
  Al  Al19  1  0.77760900  0.42958150  0.88399517  1
  Al  Al20  1  0.44796831  0.42324166  0.38227587  1
  Al  Al21  1  0.55925697  0.52916693  0.12879965  1
  Al  Al22  1  0.10369491  0.43789434  0.88521541  1
  Al  Al23  1  0.22070251  0.54244370  0.63389663  1
  Al  Al24  1  0.77053819  0.42171233  0.37868590  1
  Al  Al25  1  0.89187914  0.53348348  0.13428936  1
  Al  Al26  1  0.44709404  0.42676377  0.87986970  1
  Al  Al27  1  0.55982092  0.52660923  0.63307548  1
  Al  Al28  1  0.22340185  0.87083845  0.12676373  1
  Al  Al29  1  0.78609552  0.76330265  0.82179714  1
  Al  Al30  1  0.87555414  0.88354149  0.56646367  1
  Al  Al31  1  0.56762513  0.86348171  0.07818253  1
  Al  Al32  1  0.11313018  0.75322908  0.88642399  1
  Al  Al33  1  0.78061920  0.76281673  0.31905489  1
  Al  Al34  1  0.88228307  0.87500840  0.06938237  1
  Al  Al35  1  0.56985182  0.86844469  0.57238938  1
  N  N36  1  0.21170880  0.22502609  0.32576247  1
  N  N37  1  0.10950688  0.09577348  0.09556854  1
  N  N38  1  0.86912230  0.21977206  0.83123707  1
  N  N39  1  0.77940513  0.09114310  0.62487705  1
  N  N40  1  0.56067388  0.22069212  0.32051040  1
  N  N41  1  0.44461418  0.09517669  0.10262241  1
  N  N42  1  0.21200349  0.22867176  0.83272322  1
  N  N43  1  0.08605624  0.11064499  0.58872502  1
  N  N44  1  0.86626800  0.21929748  0.31553313  1
  N  N45  1  0.77761871  0.09085479  0.11195216  1
  N  N46  1  0.56062794  0.21829702  0.82640053  1
  N  N47  1  0.46416551  0.08901888  0.58775192  1
  N  N48  1  0.24032113  0.51366827  0.31521409  1
  N  N49  1  0.10843397  0.43064452  0.07810065  1
  N  N50  1  0.88966959  0.53738788  0.83202011  1
  N  N51  1  0.76399735  0.41699815  0.56765773  1
  N  N52  1  0.56503445  0.51352290  0.31772892  1
  N  N53  1  0.44472762  0.42778643  0.06978101  1
  N  N54  1  0.22232418  0.53891389  0.82978204  1
  N  N55  1  0.11961985  0.44270578  0.56406230  1
  N  N56  1  0.89102231  0.53392560  0.33562925  1
  N  N57  1  0.77799495  0.43075604  0.07591919  1
  N  N58  1  0.56843986  0.51528720  0.82449083  1
  N  N59  1  0.44058706  0.43075972  0.57631607  1
  N  N60  1  0.21968880  0.87280509  0.33621514  1
  N  N61  1  0.11386635  0.75602095  0.09046218  1
  N  N62  1  0.89017129  0.87192887  0.87849857  1
  N  N63  1  0.77207652  0.78326352  0.63246156  1
  N  N64  1  0.58175462  0.85569977  0.38006841  1
  N  N65  1  0.44767092  0.75710606  0.10264159  1
  N  N66  1  0.21285530  0.86185541  0.83578060  1
  N  N67  1  0.09733790  0.75102973  0.57638542  1
  N  N68  1  0.86055765  0.89095411  0.37332103  1
  N  N69  1  0.78296657  0.76000872  0.12842709  1
  N  N70  1  0.58458248  0.86027397  0.88844256  1
  N  N71  1  0.46736748  0.74930320  0.60627399  1
