# generated using pymatgen
data_Sc5Al13N18
_symmetry_space_group_name_H-M   'P 1'
_cell_length_a   9.89194012
_cell_length_b   9.83524352
_cell_length_c   10.22339292
_cell_angle_alpha   89.56887547
_cell_angle_beta   90.06609268
_cell_angle_gamma   60.14472652
_symmetry_Int_Tables_number   1
_chemical_formula_structural   Sc5Al13N18
_chemical_formula_sum   'Sc10 Al26 N36'
_cell_volume   862.59029549
_cell_formula_units_Z   2
loop_
 _symmetry_equiv_pos_site_id
 _symmetry_equiv_pos_as_xyz
  1  'x, y, z'
loop_
 _atom_site_type_symbol
 _atom_site_label
 _atom_site_symmetry_multiplicity
 _atom_site_fract_x
 _atom_site_fract_y
 _atom_site_fract_z
 _atom_site_occupancy
  Sc  Sc0  1  0.09830214  0.10142802  0.31726244  1
  Sc  Sc1  1  0.44890404  0.09803430  0.32778699  1
  Sc  Sc2  1  0.09880025  0.10325981  0.83911347  1
  Sc  Sc3  1  0.21877008  0.21311515  0.57712443  1
  Sc  Sc4  1  0.45375352  0.09688125  0.82741146  1
  Sc  Sc5  1  0.88313997  0.54431857  0.57705938  1
  Sc  Sc6  1  0.10414612  0.75210476  0.36245545  1
  Sc  Sc7  1  0.45043990  0.75683331  0.32474389  1
  Sc  Sc8  1  0.22076764  0.86843528  0.59214054  1
  Sc  Sc9  1  0.45646458  0.75586978  0.84605642  1
  Al  Al10  1  0.22204349  0.21216652  0.06676233  1
  Al  Al11  1  0.77847786  0.09483193  0.82188068  1
  Al  Al12  1  0.87527293  0.20886808  0.57224580  1
  Al  Al13  1  0.56343200  0.20072421  0.07006479  1
  Al  Al14  1  0.76961721  0.10279394  0.32310694  1
  Al  Al15  1  0.88007454  0.20872836  0.06888615  1
  Al  Al16  1  0.56505885  0.20174937  0.57187230  1
  Al  Al17  1  0.10437852  0.42703519  0.31029615  1
  Al  Al18  1  0.23181079  0.53047480  0.13549341  1
  Al  Al19  1  0.77923411  0.42166355  0.82706239  1
  Al  Al20  1  0.44518059  0.42960963  0.38721313  1
  Al  Al21  1  0.55901655  0.53030098  0.11375314  1
  Al  Al22  1  0.10625797  0.43615979  0.82877166  1
  Al  Al23  1  0.22359815  0.54525154  0.64500852  1
  Al  Al24  1  0.77883931  0.42462531  0.31488920  1
  Al  Al25  1  0.88890839  0.53922271  0.06847458  1
  Al  Al26  1  0.44376326  0.42987050  0.89270485  1
  Al  Al27  1  0.55566438  0.53093018  0.63304393  1
  Al  Al28  1  0.22385800  0.87145371  0.06752897  1
  Al  Al29  1  0.78660951  0.76319378  0.82501074  1
  Al  Al30  1  0.87597177  0.88020432  0.57049992  1
  Al  Al31  1  0.56545450  0.87161903  0.07089533  1
  Al  Al32  1  0.10904586  0.75149539  0.89461277  1
  Al  Al33  1  0.77907812  0.76063135  0.31818700  1
  Al  Al34  1  0.88188510  0.87667985  0.07671359  1
  Al  Al35  1  0.56798250  0.86832972  0.57308572  1
  N  N36  1  0.20963468  0.22251559  0.37146364  1
  N  N37  1  0.10952965  0.09489708  0.10222888  1
  N  N38  1  0.86613318  0.21389577  0.88682145  1
  N  N39  1  0.77711620  0.09391270  0.63337959  1
  N  N40  1  0.56659726  0.21153683  0.38548429  1
  N  N41  1  0.44650334  0.09497131  0.11339445  1
  N  N42  1  0.21722134  0.22628934  0.88153348  1
  N  N43  1  0.08525941  0.10897157  0.62946678  1
  N  N44  1  0.86688644  0.21721960  0.38378024  1
  N  N45  1  0.77763491  0.09508073  0.13355256  1
  N  N46  1  0.57152660  0.20890662  0.88264770  1
  N  N47  1  0.46205210  0.08698290  0.61542187  1
  N  N48  1  0.23993638  0.51179861  0.32181208  1
  N  N49  1  0.10627481  0.42831625  0.11983670  1
  N  N50  1  0.88764229  0.54052333  0.87723266  1
  N  N51  1  0.77182268  0.41558973  0.63744289  1
  N  N52  1  0.56170047  0.51755897  0.32193906  1
  N  N53  1  0.44226876  0.42685076  0.08067080  1
  N  N54  1  0.22738643  0.54246282  0.83855536  1
  N  N55  1  0.11183419  0.43910613  0.64268375  1
  N  N56  1  0.88939901  0.53871680  0.36503962  1
  N  N57  1  0.78593064  0.42379582  0.12370468  1
  N  N58  1  0.56604592  0.51901872  0.85721177  1
  N  N59  1  0.43790226  0.43572985  0.58320158  1
  N  N60  1  0.22211831  0.87456067  0.38236681  1
  N  N61  1  0.11181030  0.75632248  0.09762396  1
  N  N62  1  0.88777587  0.87527388  0.88635534  1
  N  N63  1  0.77257035  0.77920130  0.63995833  1
  N  N64  1  0.57780736  0.85947206  0.38652903  1
  N  N65  1  0.44662968  0.76284722  0.10458712  1
  N  N66  1  0.21524676  0.86156228  0.87625645  1
  N  N67  1  0.09642800  0.74885105  0.58069862  1
  N  N68  1  0.85948666  0.88979346  0.37920283  1
  N  N69  1  0.78081241  0.75963723  0.13029753  1
  N  N70  1  0.58431119  0.86506998  0.88968590  1
  N  N71  1  0.46897615  0.75063077  0.62722988  1
