# generated using pymatgen
data_Sc5Al13N18
_symmetry_space_group_name_H-M   'P 1'
_cell_length_a   9.86113360
_cell_length_b   9.83165902
_cell_length_c   10.13139333
_cell_angle_alpha   89.85643240
_cell_angle_beta   90.02853916
_cell_angle_gamma   60.05736901
_symmetry_Int_Tables_number   1
_chemical_formula_structural   Sc5Al13N18
_chemical_formula_sum   'Sc10 Al26 N36'
_cell_volume   851.14192103
_cell_formula_units_Z   2
loop_
 _symmetry_equiv_pos_site_id
 _symmetry_equiv_pos_as_xyz
  1  'x, y, z'
loop_
 _atom_site_type_symbol
 _atom_site_label
 _atom_site_symmetry_multiplicity
 _atom_site_fract_x
 _atom_site_fract_y
 _atom_site_fract_z
 _atom_site_occupancy
  Sc  Sc0  1  0.10039552  0.09927860  0.30196027  1
  Sc  Sc1  1  0.44889888  0.09752235  0.31500902  1
  Sc  Sc2  1  0.09816884  0.10366413  0.82855056  1
  Sc  Sc3  1  0.21783364  0.21394962  0.56444693  1
  Sc  Sc4  1  0.45396315  0.09600231  0.81526738  1
  Sc  Sc5  1  0.88227515  0.54385898  0.56658732  1
  Sc  Sc6  1  0.10607952  0.75527520  0.31784470  1
  Sc  Sc7  1  0.45255557  0.75219313  0.31070987  1
  Sc  Sc8  1  0.22202834  0.87038352  0.57779312  1
  Sc  Sc9  1  0.45869842  0.75055931  0.82163819  1
  Al  Al10  1  0.22275275  0.21117659  0.05405746  1
  Al  Al11  1  0.77593880  0.09745646  0.80965686  1
  Al  Al12  1  0.87515704  0.20871643  0.55950538  1
  Al  Al13  1  0.56100881  0.20719085  0.05809340  1
  Al  Al14  1  0.77286267  0.09844813  0.31159310  1
  Al  Al15  1  0.87765879  0.20968471  0.05783508  1
  Al  Al16  1  0.56124417  0.20906685  0.55837674  1
  Al  Al17  1  0.10803450  0.43075816  0.29910843  1
  Al  Al18  1  0.22546053  0.53749803  0.06255061  1
  Al  Al19  1  0.77337443  0.42360170  0.81073455  1
  Al  Al20  1  0.45001176  0.42205232  0.30836976  1
  Al  Al21  1  0.56081417  0.52994073  0.05821299  1
  Al  Al22  1  0.10786955  0.43822311  0.81883000  1
  Al  Al23  1  0.22468010  0.53697347  0.57969356  1
  Al  Al24  1  0.77676151  0.42568186  0.30799806  1
  Al  Al25  1  0.88675620  0.53979784  0.05817719  1
  Al  Al26  1  0.44838198  0.42630825  0.81420596  1
  Al  Al27  1  0.55928390  0.52938069  0.55895089  1
  Al  Al28  1  0.22154318  0.86531916  0.04810199  1
  Al  Al29  1  0.78453714  0.76256758  0.81273315  1
  Al  Al30  1  0.87739704  0.88044474  0.56308730  1
  Al  Al31  1  0.56418876  0.87039934  0.05846929  1
  Al  Al32  1  0.10334845  0.75685511  0.81323929  1
  Al  Al33  1  0.78209064  0.75946628  0.30573971  1
  Al  Al34  1  0.88845025  0.87385079  0.05779585  1
  Al  Al35  1  0.56774689  0.86909263  0.55715114  1
  N  N36  1  0.20875838  0.22282201  0.35617437  1
  N  N37  1  0.10948645  0.09353438  0.08514156  1
  N  N38  1  0.86348127  0.21660379  0.87380280  1
  N  N39  1  0.77483671  0.09618372  0.62016783  1
  N  N40  1  0.56573962  0.21532064  0.37088688  1
  N  N41  1  0.44662527  0.09553252  0.09885723  1
  N  N42  1  0.21701142  0.22619801  0.86693069  1
  N  N43  1  0.08512380  0.11011188  0.61657848  1
  N  N44  1  0.86930016  0.21445777  0.36940765  1
  N  N45  1  0.77847270  0.09256861  0.12002747  1
  N  N46  1  0.56717144  0.21491875  0.87161717  1
  N  N47  1  0.46184705  0.08809689  0.59972324  1
  N  N48  1  0.23502312  0.51540820  0.35849312  1
  N  N49  1  0.10862228  0.43047333  0.10817743  1
  N  N50  1  0.88536611  0.53968760  0.86433430  1
  N  N51  1  0.76684502  0.41774306  0.62290270  1
  N  N52  1  0.56603045  0.51776582  0.36952548  1
  N  N53  1  0.44780366  0.42544220  0.11654028  1
  N  N54  1  0.22563423  0.53918807  0.86774607  1
  N  N55  1  0.11308003  0.44175141  0.63255357  1
  N  N56  1  0.88989916  0.53849938  0.35311497  1
  N  N57  1  0.77840152  0.42735616  0.11731376  1
  N  N58  1  0.56660004  0.51714730  0.87321544  1
  N  N59  1  0.44390071  0.42871997  0.62231699  1
  N  N60  1  0.22241501  0.87189796  0.37049241  1
  N  N61  1  0.11015029  0.76087731  0.10499794  1
  N  N62  1  0.88779845  0.87599354  0.86852945  1
  N  N63  1  0.77137189  0.77926834  0.62621883  1
  N  N64  1  0.57771602  0.85951727  0.36911449  1
  N  N65  1  0.44619855  0.75886234  0.09304205  1
  N  N66  1  0.21611629  0.85853983  0.85689020  1
  N  N67  1  0.09495844  0.75424025  0.61914231  1
  N  N68  1  0.86707334  0.88469654  0.37284924  1
  N  N69  1  0.78241749  0.76034963  0.11580660  1
  N  N70  1  0.58075067  0.86336845  0.87541117  1
  N  N71  1  0.47109858  0.74755155  0.60714028  1
