# generated using pymatgen
data_Sc5Al13N18
_symmetry_space_group_name_H-M   'P 1'
_cell_length_a   9.90132913
_cell_length_b   9.90440769
_cell_length_c   10.09171261
_cell_angle_alpha   89.50548386
_cell_angle_beta   89.63099627
_cell_angle_gamma   60.24712440
_symmetry_Int_Tables_number   1
_chemical_formula_structural   Sc5Al13N18
_chemical_formula_sum   'Sc10 Al26 N36'
_cell_volume   859.16404333
_cell_formula_units_Z   2
loop_
 _symmetry_equiv_pos_site_id
 _symmetry_equiv_pos_as_xyz
  1  'x, y, z'
loop_
 _atom_site_type_symbol
 _atom_site_label
 _atom_site_symmetry_multiplicity
 _atom_site_fract_x
 _atom_site_fract_y
 _atom_site_fract_z
 _atom_site_occupancy
  Sc  Sc0  1  0.09466415  0.10415378  0.36800991  1
  Sc  Sc1  1  0.45293594  0.09550718  0.33451108  1
  Sc  Sc2  1  0.10278495  0.09962518  0.88260371  1
  Sc  Sc3  1  0.21905851  0.21424653  0.61758767  1
  Sc  Sc4  1  0.45299208  0.09375232  0.84083821  1
  Sc  Sc5  1  0.88344467  0.54203966  0.61262601  1
  Sc  Sc6  1  0.10498707  0.75190949  0.35948113  1
  Sc  Sc7  1  0.45600996  0.74673141  0.37045644  1
  Sc  Sc8  1  0.21609777  0.86788847  0.62503797  1
  Sc  Sc9  1  0.45272297  0.74931642  0.86935635  1
  Al  Al10  1  0.21702110  0.21402153  0.13280812  1
  Al  Al11  1  0.77786371  0.09109776  0.82208840  1
  Al  Al12  1  0.87589860  0.21291105  0.63606008  1
  Al  Al13  1  0.56113924  0.20523243  0.06797197  1
  Al  Al14  1  0.76811964  0.09923960  0.31313891  1
  Al  Al15  1  0.88140656  0.21361362  0.12923306  1
  Al  Al16  1  0.56524335  0.20418874  0.57188979  1
  Al  Al17  1  0.11303547  0.43300989  0.37704504  1
  Al  Al18  1  0.22996528  0.52969205  0.12912632  1
  Al  Al19  1  0.77845662  0.42857852  0.88419839  1
  Al  Al20  1  0.44514876  0.42810244  0.38371581  1
  Al  Al21  1  0.55809176  0.53155341  0.13196969  1
  Al  Al22  1  0.10464543  0.43649242  0.88520128  1
  Al  Al23  1  0.22068782  0.54293793  0.63513128  1
  Al  Al24  1  0.77095242  0.42165207  0.38023889  1
  Al  Al25  1  0.89074250  0.53481309  0.13449862  1
  Al  Al26  1  0.44584148  0.42957795  0.88125288  1
  Al  Al27  1  0.55873179  0.52742955  0.63479946  1
  Al  Al28  1  0.22563220  0.86958421  0.13408888  1
  Al  Al29  1  0.78722858  0.76289492  0.82224976  1
  Al  Al30  1  0.87648596  0.88345133  0.56648824  1
  Al  Al31  1  0.56616952  0.86720356  0.07459165  1
  Al  Al32  1  0.11330373  0.75332756  0.89042431  1
  Al  Al33  1  0.77934284  0.76442428  0.31900935  1
  Al  Al34  1  0.88286102  0.87502622  0.07112930  1
  Al  Al35  1  0.56900323  0.87123063  0.57306182  1
  N  N36  1  0.21016613  0.22606156  0.32551332  1
  N  N37  1  0.10844232  0.09694472  0.09777136  1
  N  N38  1  0.87135168  0.21904758  0.82927151  1
  N  N39  1  0.77567337  0.09207320  0.63002704  1
  N  N40  1  0.56831281  0.21322279  0.37918578  1
  N  N41  1  0.44573576  0.09502338  0.10792299  1
  N  N42  1  0.20985977  0.22849986  0.82932076  1
  N  N43  1  0.08503440  0.10721743  0.58180455  1
  N  N44  1  0.86508421  0.22047201  0.31591155  1
  N  N45  1  0.77504685  0.09140328  0.12015335  1
  N  N46  1  0.57029118  0.21055249  0.87776126  1
  N  N47  1  0.46343174  0.08722280  0.61083899  1
  N  N48  1  0.24010952  0.51327863  0.31502045  1
  N  N49  1  0.10816951  0.43134730  0.07718304  1
  N  N50  1  0.89022110  0.53752875  0.83206880  1
  N  N51  1  0.76385066  0.41663493  0.56786128  1
  N  N52  1  0.56472498  0.51495782  0.31818116  1
  N  N53  1  0.44333210  0.43228714  0.07318652  1
  N  N54  1  0.22241598  0.53934549  0.83004112  1
  N  N55  1  0.11804343  0.44466668  0.56309354  1
  N  N56  1  0.88957078  0.53543103  0.33456881  1
  N  N57  1  0.77731584  0.43119779  0.07531292  1
  N  N58  1  0.56899218  0.51503018  0.82311204  1
  N  N59  1  0.43747008  0.43550329  0.57938735  1
  N  N60  1  0.22300475  0.87013669  0.32414027  1
  N  N61  1  0.11388225  0.75625791  0.09046057  1
  N  N62  1  0.88996189  0.87317350  0.88095979  1
  N  N63  1  0.77230165  0.78368258  0.63367918  1
  N  N64  1  0.57972046  0.86075270  0.38280998  1
  N  N65  1  0.44827494  0.75704047  0.09660538  1
  N  N66  1  0.21226105  0.86231779  0.83505721  1
  N  N67  1  0.09860125  0.75179464  0.57487231  1
  N  N68  1  0.86131720  0.89144653  0.37422310  1
  N  N69  1  0.78107704  0.76183607  0.12939917  1
  N  N70  1  0.58452883  0.85831486  0.88742814  1
  N  N71  1  0.46602914  0.74867947  0.59783765  1
