# generated using pymatgen
data_Sc5Al13N18
_symmetry_space_group_name_H-M   'P 1'
_cell_length_a   9.89061589
_cell_length_b   9.83575809
_cell_length_c   10.22239985
_cell_angle_alpha   89.59097626
_cell_angle_beta   90.05521786
_cell_angle_gamma   60.13579941
_symmetry_Int_Tables_number   1
_chemical_formula_structural   Sc5Al13N18
_chemical_formula_sum   'Sc10 Al26 N36'
_cell_volume   862.36351688
_cell_formula_units_Z   2
loop_
 _symmetry_equiv_pos_site_id
 _symmetry_equiv_pos_as_xyz
  1  'x, y, z'
loop_
 _atom_site_type_symbol
 _atom_site_label
 _atom_site_symmetry_multiplicity
 _atom_site_fract_x
 _atom_site_fract_y
 _atom_site_fract_z
 _atom_site_occupancy
  Sc  Sc0  1  0.09841297  0.10138715  0.31720617  1
  Sc  Sc1  1  0.44885603  0.09747266  0.32752732  1
  Sc  Sc2  1  0.09876609  0.10340260  0.83938103  1
  Sc  Sc3  1  0.21879880  0.21320924  0.57712222  1
  Sc  Sc4  1  0.45373709  0.09680146  0.82762393  1
  Sc  Sc5  1  0.88344015  0.54418005  0.57730744  1
  Sc  Sc6  1  0.10416615  0.75230574  0.36242277  1
  Sc  Sc7  1  0.45082878  0.75579629  0.32235989  1
  Sc  Sc8  1  0.22034466  0.86881447  0.59184416  1
  Sc  Sc9  1  0.45726268  0.75450509  0.84334031  1
  Al  Al10  1  0.22206045  0.21223389  0.06676776  1
  Al  Al11  1  0.77860107  0.09481765  0.82196005  1
  Al  Al12  1  0.87512767  0.20862751  0.57240916  1
  Al  Al13  1  0.56322698  0.20100446  0.07056792  1
  Al  Al14  1  0.76973595  0.10267714  0.32322175  1
  Al  Al15  1  0.87989724  0.20883130  0.06912445  1
  Al  Al16  1  0.56495299  0.20138346  0.57212269  1
  Al  Al17  1  0.10408127  0.42710981  0.31041393  1
  Al  Al18  1  0.23197333  0.53041897  0.13589536  1
  Al  Al19  1  0.77655791  0.42294543  0.82725347  1
  Al  Al20  1  0.44414496  0.42844036  0.38696817  1
  Al  Al21  1  0.56173900  0.53165940  0.08895924  1
  Al  Al22  1  0.10608467  0.43620050  0.82902498  1
  Al  Al23  1  0.22361174  0.54525664  0.64540534  1
  Al  Al24  1  0.77717951  0.42537927  0.31543166  1
  Al  Al25  1  0.88890930  0.53915355  0.06889661  1
  Al  Al26  1  0.44344457  0.42950237  0.89295480  1
  Al  Al27  1  0.55729743  0.53273125  0.60574019  1
  Al  Al28  1  0.22418428  0.87138147  0.06733139  1
  Al  Al29  1  0.78660958  0.76303005  0.82515664  1
  Al  Al30  1  0.87601734  0.88011188  0.57047183  1
  Al  Al31  1  0.56523509  0.87157273  0.07065035  1
  Al  Al32  1  0.10909021  0.75166745  0.89473986  1
  Al  Al33  1  0.77902699  0.76048253  0.31833528  1
  Al  Al34  1  0.88188379  0.87665868  0.07681978  1
  Al  Al35  1  0.56821575  0.86830266  0.57261870  1
  N  N36  1  0.20965923  0.22260127  0.37156368  1
  N  N37  1  0.10944717  0.09497819  0.10199592  1
  N  N38  1  0.86599111  0.21418592  0.88668591  1
  N  N39  1  0.77709505  0.09372570  0.63347005  1
  N  N40  1  0.56653380  0.21083262  0.38550489  1
  N  N41  1  0.44655934  0.09477978  0.11311101  1
  N  N42  1  0.21727274  0.22639302  0.88151640  1
  N  N43  1  0.08496593  0.10939308  0.62960877  1
  N  N44  1  0.86729685  0.21673548  0.38396708  1
  N  N45  1  0.77769886  0.09494910  0.13358090  1
  N  N46  1  0.57146948  0.20928152  0.88251415  1
  N  N47  1  0.46200694  0.08654530  0.61566469  1
  N  N48  1  0.23930503  0.51210074  0.32215241  1
  N  N49  1  0.10615834  0.42830925  0.11992577  1
  N  N50  1  0.88754790  0.54042091  0.87733985  1
  N  N51  1  0.76923919  0.41646837  0.63883987  1
  N  N52  1  0.56364775  0.51902643  0.34298135  1
  N  N53  1  0.44202056  0.42612023  0.08291254  1
  N  N54  1  0.22757337  0.54257425  0.83873479  1
  N  N55  1  0.11166933  0.43923288  0.64293409  1
  N  N56  1  0.88956507  0.53875743  0.36543439  1
  N  N57  1  0.78487910  0.42419323  0.12572876  1
  N  N58  1  0.56943960  0.52017336  0.88128103  1
  N  N59  1  0.43708441  0.43431279  0.58472843  1
  N  N60  1  0.22237123  0.87454191  0.38245965  1
  N  N61  1  0.11188027  0.75637493  0.09755580  1
  N  N62  1  0.88768617  0.87530254  0.88636423  1
  N  N63  1  0.77266516  0.77896790  0.63994761  1
  N  N64  1  0.57755323  0.85929530  0.38645442  1
  N  N65  1  0.44659175  0.76299853  0.10507223  1
  N  N66  1  0.21584262  0.86130344  0.87592524  1
  N  N67  1  0.09654236  0.74886901  0.58089745  1
  N  N68  1  0.85947379  0.88969947  0.37927972  1
  N  N69  1  0.78069030  0.75966848  0.13025395  1
  N  N70  1  0.58381245  0.86472954  0.88931035  1
  N  N71  1  0.46947651  0.74946711  0.62744219  1
