# generated using pymatgen
data_Sc5Al13N18
_symmetry_space_group_name_H-M   'P 1'
_cell_length_a   9.84761045
_cell_length_b   9.80742387
_cell_length_c   10.31178776
_cell_angle_alpha   89.74170065
_cell_angle_beta   90.00562381
_cell_angle_gamma   60.17746723
_symmetry_Int_Tables_number   1
_chemical_formula_structural   Sc5Al13N18
_chemical_formula_sum   'Sc10 Al26 N36'
_cell_volume   864.00901707
_cell_formula_units_Z   2
loop_
 _symmetry_equiv_pos_site_id
 _symmetry_equiv_pos_as_xyz
  1  'x, y, z'
loop_
 _atom_site_type_symbol
 _atom_site_label
 _atom_site_symmetry_multiplicity
 _atom_site_fract_x
 _atom_site_fract_y
 _atom_site_fract_z
 _atom_site_occupancy
  Sc  Sc0  1  0.09902006  0.10124453  0.30378408  1
  Sc  Sc1  1  0.44859492  0.09754313  0.31398012  1
  Sc  Sc2  1  0.09927668  0.10250326  0.82845464  1
  Sc  Sc3  1  0.21865698  0.21362840  0.56525977  1
  Sc  Sc4  1  0.45334919  0.09573916  0.81622433  1
  Sc  Sc5  1  0.88428505  0.54497437  0.56579970  1
  Sc  Sc6  1  0.10348664  0.75203364  0.35250400  1
  Sc  Sc7  1  0.45259064  0.75255976  0.31211435  1
  Sc  Sc8  1  0.22044139  0.86930722  0.57704684  1
  Sc  Sc9  1  0.45867080  0.75135405  0.81977023  1
  Al  Al10  1  0.22167827  0.21255792  0.05498511  1
  Al  Al11  1  0.77859720  0.09513105  0.81102278  1
  Al  Al12  1  0.87572850  0.20880459  0.56191443  1
  Al  Al13  1  0.56294184  0.20160315  0.05913771  1
  Al  Al14  1  0.77006247  0.10212834  0.31243813  1
  Al  Al15  1  0.87835810  0.21022624  0.05869930  1
  Al  Al16  1  0.56411517  0.20160978  0.56241135  1
  Al  Al17  1  0.10419672  0.42719941  0.29841846  1
  Al  Al18  1  0.23279506  0.53107718  0.12468082  1
  Al  Al19  1  0.77494509  0.42340192  0.81178541  1
  Al  Al20  1  0.44134559  0.42674232  0.38180947  1
  Al  Al21  1  0.56380247  0.53409384  0.06018442  1
  Al  Al22  1  0.10499238  0.43621548  0.81852831  1
  Al  Al23  1  0.22447674  0.54466160  0.63646472  1
  Al  Al24  1  0.77619837  0.42608402  0.30932533  1
  Al  Al25  1  0.88743691  0.53970434  0.05912140  1
  Al  Al26  1  0.44336637  0.42905162  0.88069862  1
  Al  Al27  1  0.56215241  0.53257221  0.56225806  1
  Al  Al28  1  0.22686847  0.86994944  0.05583872  1
  Al  Al29  1  0.78574847  0.76277145  0.81452858  1
  Al  Al30  1  0.87569783  0.88028086  0.55998864  1
  Al  Al31  1  0.56380254  0.87015231  0.05867880  1
  Al  Al32  1  0.10971531  0.75176569  0.88525297  1
  Al  Al33  1  0.77845009  0.76111267  0.30658980  1
  Al  Al34  1  0.88156521  0.87692654  0.06530767  1
  Al  Al35  1  0.56752285  0.86905087  0.55975760  1
  N  N36  1  0.20943465  0.22332913  0.36105793  1
  N  N37  1  0.10919438  0.09513441  0.09076048  1
  N  N38  1  0.86510262  0.21595180  0.87699316  1
  N  N39  1  0.77722710  0.09385734  0.62360623  1
  N  N40  1  0.56665462  0.21017728  0.37558300  1
  N  N41  1  0.44617871  0.09456721  0.10168402  1
  N  N42  1  0.21693196  0.22676293  0.87183000  1
  N  N43  1  0.08568788  0.10884482  0.62038213  1
  N  N44  1  0.86866393  0.21550435  0.37380535  1
  N  N45  1  0.77739419  0.09499101  0.12361868  1
  N  N46  1  0.57119353  0.20875136  0.87251767  1
  N  N47  1  0.46159063  0.08609823  0.60616713  1
  N  N48  1  0.24070943  0.51243408  0.30928107  1
  N  N49  1  0.10550315  0.42846544  0.10995476  1
  N  N50  1  0.88633590  0.54039344  0.86844836  1
  N  N51  1  0.76845457  0.41805522  0.62683028  1
  N  N52  1  0.56942709  0.52056320  0.37342468  1
  N  N53  1  0.44351945  0.42748942  0.07189443  1
  N  N54  1  0.22724592  0.54296444  0.82817718  1
  N  N55  1  0.11102660  0.43883702  0.63447316  1
  N  N56  1  0.88996188  0.53983635  0.35500636  1
  N  N57  1  0.77896976  0.42705383  0.12082942  1
  N  N58  1  0.57103946  0.52080966  0.87537867  1
  N  N59  1  0.43557508  0.43214978  0.57584106  1
  N  N60  1  0.22283195  0.87449027  0.36977995  1
  N  N61  1  0.11194088  0.75645958  0.08539617  1
  N  N62  1  0.88711388  0.87579238  0.87602989  1
  N  N63  1  0.77164352  0.77963273  0.63021410  1
  N  N64  1  0.57616728  0.86024061  0.37469606  1
  N  N65  1  0.44830858  0.75954788  0.09932586  1
  N  N66  1  0.21929629  0.85976067  0.86649433  1
  N  N67  1  0.09708093  0.74755766  0.56858490  1
  N  N68  1  0.85865662  0.88995388  0.36961140  1
  N  N69  1  0.77971276  0.76038741  0.11962084  1
  N  N70  1  0.58135025  0.86277260  0.87848804  1
  N  N71  1  0.46930868  0.74893066  0.61058950  1
