# generated using pymatgen
data_Sc5Al13N18
_symmetry_space_group_name_H-M   'P 1'
_cell_length_a   9.88430539
_cell_length_b   9.84264373
_cell_length_c   10.14811859
_cell_angle_alpha   89.78460022
_cell_angle_beta   89.98292144
_cell_angle_gamma   60.06310836
_symmetry_Int_Tables_number   1
_chemical_formula_structural   Sc5Al13N18
_chemical_formula_sum   'Sc10 Al26 N36'
_cell_volume   855.55143276
_cell_formula_units_Z   2
loop_
 _symmetry_equiv_pos_site_id
 _symmetry_equiv_pos_as_xyz
  1  'x, y, z'
loop_
 _atom_site_type_symbol
 _atom_site_label
 _atom_site_symmetry_multiplicity
 _atom_site_fract_x
 _atom_site_fract_y
 _atom_site_fract_z
 _atom_site_occupancy
  Sc  Sc0  1  0.10015670  0.09927860  0.30489582  1
  Sc  Sc1  1  0.44817146  0.09818457  0.31802560  1
  Sc  Sc2  1  0.09804563  0.10376007  0.83195438  1
  Sc  Sc3  1  0.21767713  0.21347287  0.56767483  1
  Sc  Sc4  1  0.45403674  0.09618056  0.81813047  1
  Sc  Sc5  1  0.88120494  0.54470118  0.56883996  1
  Sc  Sc6  1  0.10517479  0.75573371  0.33207434  1
  Sc  Sc7  1  0.45272171  0.75235602  0.31354993  1
  Sc  Sc8  1  0.22278624  0.87094925  0.58120372  1
  Sc  Sc9  1  0.45891632  0.75086644  0.82504484  1
  Al  Al10  1  0.22248346  0.21114222  0.05617821  1
  Al  Al11  1  0.77645140  0.09724545  0.81256806  1
  Al  Al12  1  0.87519251  0.20858457  0.56273485  1
  Al  Al13  1  0.56198772  0.20671032  0.06030368  1
  Al  Al14  1  0.77223494  0.09898538  0.31413469  1
  Al  Al15  1  0.87765368  0.20982485  0.06094506  1
  Al  Al16  1  0.56112337  0.20911821  0.56149105  1
  Al  Al17  1  0.10398977  0.42806030  0.30051979  1
  Al  Al18  1  0.22690565  0.53532443  0.11443927  1
  Al  Al19  1  0.77388619  0.42345315  0.81307898  1
  Al  Al20  1  0.45539672  0.41940249  0.30989898  1
  Al  Al21  1  0.56206501  0.52998427  0.06037705  1
  Al  Al22  1  0.10527937  0.43682790  0.82242333  1
  Al  Al23  1  0.22417259  0.53981493  0.63366411  1
  Al  Al24  1  0.77651842  0.42569410  0.31073735  1
  Al  Al25  1  0.88603676  0.53999507  0.06023492  1
  Al  Al26  1  0.45346510  0.42413880  0.81810320  1
  Al  Al27  1  0.55953024  0.52909397  0.56194696  1
  Al  Al28  1  0.22167571  0.86502809  0.05299382  1
  Al  Al29  1  0.78436109  0.76295259  0.81576272  1
  Al  Al30  1  0.87537045  0.88180090  0.56523839  1
  Al  Al31  1  0.56406992  0.87086266  0.06140539  1
  Al  Al32  1  0.10174959  0.76091566  0.82255486  1
  Al  Al33  1  0.78085277  0.76010705  0.30810391  1
  Al  Al34  1  0.88910761  0.87353328  0.06300833  1
  Al  Al35  1  0.56760075  0.86927977  0.56051680  1
  N  N36  1  0.20835369  0.22260554  0.36012055  1
  N  N37  1  0.10953185  0.09362526  0.08839364  1
  N  N38  1  0.86361855  0.21658536  0.87692260  1
  N  N39  1  0.77454236  0.09635333  0.62331129  1
  N  N40  1  0.56563245  0.21495946  0.37439218  1
  N  N41  1  0.44629093  0.09620649  0.10189628  1
  N  N42  1  0.21737514  0.22563317  0.86947739  1
  N  N43  1  0.08461017  0.11002055  0.62041468  1
  N  N44  1  0.86908900  0.21439508  0.37243968  1
  N  N45  1  0.77841242  0.09278114  0.12305323  1
  N  N46  1  0.56836448  0.21368761  0.87429429  1
  N  N47  1  0.46176984  0.08818437  0.60306909  1
  N  N48  1  0.23569783  0.51403718  0.31717200  1
  N  N49  1  0.10539732  0.42851789  0.10811465  1
  N  N50  1  0.88447378  0.54021785  0.86697067  1
  N  N51  1  0.76698463  0.41757902  0.62567300  1
  N  N52  1  0.56638660  0.51795357  0.37271520  1
  N  N53  1  0.45471799  0.42264666  0.11703934  1
  N  N54  1  0.22654482  0.53991397  0.83878611  1
  N  N55  1  0.10979911  0.43998860  0.63297920  1
  N  N56  1  0.88865681  0.53906552  0.35575024  1
  N  N57  1  0.77856184  0.42749667  0.12028373  1
  N  N58  1  0.56803649  0.51754088  0.87579436  1
  N  N59  1  0.44690198  0.42678042  0.62391216  1
  N  N60  1  0.22366276  0.87279998  0.37396045  1
  N  N61  1  0.10929205  0.76262089  0.10997160  1
  N  N62  1  0.88758350  0.87614167  0.87283353  1
  N  N63  1  0.77094666  0.78000856  0.62962731  1
  N  N64  1  0.57714371  0.85987900  0.37246635  1
  N  N65  1  0.44662107  0.75885837  0.09618667  1
  N  N66  1  0.21660726  0.85906620  0.86140277  1
  N  N67  1  0.09316612  0.75741058  0.61374417  1
  N  N68  1  0.86404576  0.88615989  0.37502803  1
  N  N69  1  0.78188485  0.76043519  0.11868150  1
  N  N70  1  0.58086487  0.86368280  0.87851657  1
  N  N71  1  0.47161400  0.74711587  0.61089708  1
