# generated using pymatgen
data_Sc5Al13N18
_symmetry_space_group_name_H-M   'P 1'
_cell_length_a   9.87896363
_cell_length_b   9.83729630
_cell_length_c   10.21100937
_cell_angle_alpha   89.74719784
_cell_angle_beta   89.99871145
_cell_angle_gamma   60.13332100
_symmetry_Int_Tables_number   1
_chemical_formula_structural   Sc5Al13N18
_chemical_formula_sum   'Sc10 Al26 N36'
_cell_volume   860.52349170
_cell_formula_units_Z   2
loop_
 _symmetry_equiv_pos_site_id
 _symmetry_equiv_pos_as_xyz
  1  'x, y, z'
loop_
 _atom_site_type_symbol
 _atom_site_label
 _atom_site_symmetry_multiplicity
 _atom_site_fract_x
 _atom_site_fract_y
 _atom_site_fract_z
 _atom_site_occupancy
  Sc  Sc0  1  0.09941233  0.10087138  0.30495741  1
  Sc  Sc1  1  0.44830733  0.09762114  0.31577176  1
  Sc  Sc2  1  0.09869866  0.10235330  0.82912302  1
  Sc  Sc3  1  0.21821468  0.21400366  0.56675184  1
  Sc  Sc4  1  0.45367117  0.09549006  0.81622340  1
  Sc  Sc5  1  0.88403542  0.54507181  0.56693788  1
  Sc  Sc6  1  0.10411776  0.75187759  0.35087568  1
  Sc  Sc7  1  0.45270873  0.75304695  0.31352153  1
  Sc  Sc8  1  0.22039124  0.86862906  0.57898278  1
  Sc  Sc9  1  0.45912940  0.75150257  0.82031854  1
  Al  Al10  1  0.22182921  0.21205202  0.05480937  1
  Al  Al11  1  0.77857741  0.09509408  0.81048412  1
  Al  Al12  1  0.87558630  0.20867263  0.56141583  1
  Al  Al13  1  0.56241789  0.20286349  0.05925559  1
  Al  Al14  1  0.77080228  0.10140470  0.31205704  1
  Al  Al15  1  0.87775162  0.21046723  0.05897231  1
  Al  Al16  1  0.56283026  0.20490964  0.56281876  1
  Al  Al17  1  0.10397942  0.42730082  0.29808149  1
  Al  Al18  1  0.23178290  0.53113845  0.12080660  1
  Al  Al19  1  0.77486437  0.42318686  0.81105245  1
  Al  Al20  1  0.44441320  0.42546549  0.36880596  1
  Al  Al21  1  0.56332588  0.53341738  0.06016575  1
  Al  Al22  1  0.10458877  0.43626662  0.81947823  1
  Al  Al23  1  0.22456857  0.54443913  0.63643396  1
  Al  Al24  1  0.77680891  0.42597958  0.30911683  1
  Al  Al25  1  0.88657140  0.53984024  0.05853695  1
  Al  Al26  1  0.44518898  0.42812990  0.87301965  1
  Al  Al27  1  0.56129588  0.53114168  0.56259538  1
  Al  Al28  1  0.22680646  0.86957505  0.05599748  1
  Al  Al29  1  0.78560621  0.76315526  0.81432443  1
  Al  Al30  1  0.87597277  0.88044254  0.55989246  1
  Al  Al31  1  0.56373582  0.87046330  0.05927204  1
  Al  Al32  1  0.10879962  0.75262419  0.88393352  1
  Al  Al33  1  0.77916536  0.76078288  0.30635251  1
  Al  Al34  1  0.88117389  0.87742247  0.06545188  1
  Al  Al35  1  0.56783151  0.86926813  0.55950876  1
  N  N36  1  0.20900640  0.22367281  0.36035523  1
  N  N37  1  0.10913371  0.09492357  0.08963961  1
  N  N38  1  0.86454587  0.21611291  0.87586286  1
  N  N39  1  0.77694841  0.09417162  0.62205464  1
  N  N40  1  0.56696314  0.21080960  0.37386453  1
  N  N41  1  0.44597571  0.09503619  0.10111781  1
  N  N42  1  0.21693188  0.22589006  0.86953855  1
  N  N43  1  0.08537766  0.10868293  0.61892797  1
  N  N44  1  0.86842305  0.21546456  0.37203819  1
  N  N45  1  0.77713616  0.09508919  0.12241045  1
  N  N46  1  0.57121140  0.20873778  0.87131667  1
  N  N47  1  0.46176406  0.08681478  0.60378813  1
  N  N48  1  0.23956119  0.51247775  0.30830011  1
  N  N49  1  0.10500601  0.42853286  0.10761161  1
  N  N50  1  0.88541065  0.54050738  0.86660588  1
  N  N51  1  0.76857981  0.41779836  0.62489043  1
  N  N52  1  0.56924978  0.51990709  0.37145842  1
  N  N53  1  0.44526634  0.42687215  0.07522675  1
  N  N54  1  0.22580062  0.54257349  0.83140610  1
  N  N55  1  0.11115880  0.43971883  0.63358374  1
  N  N56  1  0.88983919  0.53974187  0.35441794  1
  N  N57  1  0.77883025  0.42734771  0.11959427  1
  N  N58  1  0.57088527  0.52065150  0.87384208  1
  N  N59  1  0.43820607  0.43115612  0.58438941  1
  N  N60  1  0.22292559  0.87383557  0.36915455  1
  N  N61  1  0.11133939  0.75747255  0.08593249  1
  N  N62  1  0.88694619  0.87602930  0.87490859  1
  N  N63  1  0.77159316  0.78022462  0.62890977  1
  N  N64  1  0.57692755  0.86022763  0.37295074  1
  N  N65  1  0.44821208  0.75958941  0.09828605  1
  N  N66  1  0.21913359  0.85910288  0.86389053  1
  N  N67  1  0.09705010  0.74778435  0.56982790  1
  N  N68  1  0.85959629  0.88942947  0.36822773  1
  N  N69  1  0.78000127  0.76022292  0.11827790  1
  N  N70  1  0.58145016  0.86296490  0.87745649  1
  N  N71  1  0.46997804  0.74858856  0.60877232  1
