# generated using pymatgen
data_Sc5Al13N18
_symmetry_space_group_name_H-M   'P 1'
_cell_length_a   9.92366079
_cell_length_b   9.89212056
_cell_length_c   10.10838448
_cell_angle_alpha   89.59415978
_cell_angle_beta   89.77906035
_cell_angle_gamma   60.07245116
_symmetry_Int_Tables_number   1
_chemical_formula_structural   Sc5Al13N18
_chemical_formula_sum   'Sc10 Al26 N36'
_cell_volume   859.96221829
_cell_formula_units_Z   2
loop_
 _symmetry_equiv_pos_site_id
 _symmetry_equiv_pos_as_xyz
  1  'x, y, z'
loop_
 _atom_site_type_symbol
 _atom_site_label
 _atom_site_symmetry_multiplicity
 _atom_site_fract_x
 _atom_site_fract_y
 _atom_site_fract_z
 _atom_site_occupancy
  Sc  Sc0  1  0.09488786  0.10269044  0.36852116  1
  Sc  Sc1  1  0.45525532  0.09673642  0.33734395  1
  Sc  Sc2  1  0.10183715  0.10652779  0.86989969  1
  Sc  Sc3  1  0.21930894  0.21746172  0.61161632  1
  Sc  Sc4  1  0.45657386  0.09274405  0.82926828  1
  Sc  Sc5  1  0.88202125  0.54190875  0.61346080  1
  Sc  Sc6  1  0.10558307  0.75716171  0.33585446  1
  Sc  Sc7  1  0.45032290  0.75796204  0.32737522  1
  Sc  Sc8  1  0.22554682  0.86669702  0.60021637  1
  Sc  Sc9  1  0.45874856  0.75011978  0.84831533  1
  Al  Al10  1  0.21862948  0.21012530  0.13387334  1
  Al  Al11  1  0.77504666  0.09278803  0.82499128  1
  Al  Al12  1  0.87248382  0.21463736  0.63876493  1
  Al  Al13  1  0.56069718  0.20195444  0.06827737  1
  Al  Al14  1  0.77058248  0.09709689  0.31417766  1
  Al  Al15  1  0.88347137  0.20965657  0.12668152  1
  Al  Al16  1  0.56700059  0.20517785  0.56991018  1
  Al  Al17  1  0.11204629  0.43441381  0.37564913  1
  Al  Al18  1  0.22856698  0.53010772  0.12920981  1
  Al  Al19  1  0.77726843  0.42877133  0.88656816  1
  Al  Al20  1  0.44537118  0.43154477  0.38437928  1
  Al  Al21  1  0.55936952  0.52676493  0.12829580  1
  Al  Al22  1  0.10633642  0.43565434  0.88658079  1
  Al  Al23  1  0.22423355  0.53652431  0.63705015  1
  Al  Al24  1  0.76947943  0.42254026  0.37935173  1
  Al  Al25  1  0.89024103  0.53461073  0.13566612  1
  Al  Al26  1  0.44346365  0.43007337  0.88414404  1
  Al  Al27  1  0.55952772  0.52762952  0.63658103  1
  Al  Al28  1  0.21925825  0.86359950  0.06539459  1
  Al  Al29  1  0.78549116  0.76202939  0.82340004  1
  Al  Al30  1  0.87695511  0.88330624  0.57363039  1
  Al  Al31  1  0.56583702  0.87003288  0.07365520  1
  Al  Al32  1  0.09983542  0.75917693  0.82228585  1
  Al  Al33  1  0.78083426  0.76403606  0.32173630  1
  Al  Al34  1  0.88971734  0.86980883  0.06891951  1
  Al  Al35  1  0.56869758  0.86834598  0.57190014  1
  N  N36  1  0.21119754  0.22368570  0.32891423  1
  N  N37  1  0.11034980  0.09366358  0.09297512  1
  N  N38  1  0.86834347  0.21956220  0.83228216  1
  N  N39  1  0.77328243  0.09381979  0.63362778  1
  N  N40  1  0.57164410  0.21432002  0.38124878  1
  N  N41  1  0.44621097  0.09452543  0.11419328  1
  N  N42  1  0.21446409  0.22999626  0.82427162  1
  N  N43  1  0.08275367  0.11215173  0.59218346  1
  N  N44  1  0.86649912  0.21933098  0.31421719  1
  N  N45  1  0.77552842  0.08814589  0.12105824  1
  N  N46  1  0.56876300  0.20981683  0.88024307  1
  N  N47  1  0.46450094  0.08816671  0.60624380  1
  N  N48  1  0.24083282  0.51266632  0.31718509  1
  N  N49  1  0.10840687  0.42930336  0.07864112  1
  N  N50  1  0.89035738  0.53583995  0.83316132  1
  N  N51  1  0.76198233  0.41686946  0.56690254  1
  N  N52  1  0.56355526  0.51771698  0.31659458  1
  N  N53  1  0.44197332  0.43102190  0.07471139  1
  N  N54  1  0.22487981  0.53344602  0.83066782  1
  N  N55  1  0.11530302  0.44992626  0.56046963  1
  N  N56  1  0.88944875  0.53435191  0.33456571  1
  N  N57  1  0.77753330  0.43018970  0.07617022  1
  N  N58  1  0.56939926  0.51093201  0.82627256  1
  N  N59  1  0.43691482  0.43852098  0.57882399  1
  N  N60  1  0.22583865  0.86436947  0.38978177  1
  N  N61  1  0.10837913  0.76043862  0.11865171  1
  N  N62  1  0.88928424  0.87205664  0.88026897  1
  N  N63  1  0.77081599  0.78369286  0.63516507  1
  N  N64  1  0.57955618  0.85823469  0.38417672  1
  N  N65  1  0.44454673  0.75959240  0.10262396  1
  N  N66  1  0.21298621  0.85936041  0.86796730  1
  N  N67  1  0.09094865  0.75894528  0.62815064  1
  N  N68  1  0.86642322  0.88797441  0.38307319  1
  N  N69  1  0.78146744  0.76235032  0.13125016  1
  N  N70  1  0.58483051  0.86047107  0.89030585  1
  N  N71  1  0.47255654  0.75088329  0.62604912  1
