# generated using pymatgen
data_Sc5Al13N18
_symmetry_space_group_name_H-M   'P 1'
_cell_length_a   9.87848743
_cell_length_b   9.87385323
_cell_length_c   10.14234510
_cell_angle_alpha   89.69442880
_cell_angle_beta   89.68395405
_cell_angle_gamma   60.02086827
_symmetry_Int_Tables_number   1
_chemical_formula_structural   Sc5Al13N18
_chemical_formula_sum   'Sc10 Al26 N36'
_cell_volume   856.89753013
_cell_formula_units_Z   2
loop_
 _symmetry_equiv_pos_site_id
 _symmetry_equiv_pos_as_xyz
  1  'x, y, z'
loop_
 _atom_site_type_symbol
 _atom_site_label
 _atom_site_symmetry_multiplicity
 _atom_site_fract_x
 _atom_site_fract_y
 _atom_site_fract_z
 _atom_site_occupancy
  Sc  Sc0  1  0.09629798  0.10291533  0.37648640  1
  Sc  Sc1  1  0.45139797  0.09728362  0.36683274  1
  Sc  Sc2  1  0.10073127  0.10127292  0.89217503  1
  Sc  Sc3  1  0.22272495  0.21285877  0.63100265  1
  Sc  Sc4  1  0.44721558  0.10473666  0.88893587  1
  Sc  Sc5  1  0.88374598  0.54087346  0.62190109  1
  Sc  Sc6  1  0.10149216  0.75210254  0.38172087  1
  Sc  Sc7  1  0.45538410  0.74630848  0.37607650  1
  Sc  Sc8  1  0.21990123  0.86927048  0.63538381  1
  Sc  Sc9  1  0.45080152  0.75105578  0.88127582  1
  Al  Al10  1  0.21816812  0.21232410  0.14444021  1
  Al  Al11  1  0.77563679  0.09996190  0.88963330  1
  Al  Al12  1  0.87410578  0.20991122  0.64092268  1
  Al  Al13  1  0.56070117  0.21168160  0.14234522  1
  Al  Al14  1  0.77231015  0.09914007  0.39067040  1
  Al  Al15  1  0.87872782  0.20919860  0.14065356  1
  Al  Al16  1  0.56094575  0.20804100  0.63837090  1
  Al  Al17  1  0.11351440  0.43198948  0.38403633  1
  Al  Al18  1  0.22766181  0.53194481  0.13555804  1
  Al  Al19  1  0.77755429  0.42711753  0.89031904  1
  Al  Al20  1  0.44753929  0.42355092  0.38944494  1
  Al  Al21  1  0.55906045  0.52946638  0.13878839  1
  Al  Al22  1  0.10462756  0.43743819  0.89413242  1
  Al  Al23  1  0.22225976  0.54091888  0.64410948  1
  Al  Al24  1  0.77217815  0.42084982  0.38655240  1
  Al  Al25  1  0.89221405  0.53019244  0.13817907  1
  Al  Al26  1  0.44787778  0.42619222  0.88711161  1
  Al  Al27  1  0.55915763  0.52831475  0.64069877  1
  Al  Al28  1  0.22257439  0.86833553  0.14289500  1
  Al  Al29  1  0.78143768  0.76288026  0.83380864  1
  Al  Al30  1  0.88683478  0.88267345  0.64806412  1
  Al  Al31  1  0.56682691  0.86471380  0.08605302  1
  Al  Al32  1  0.10723438  0.75816601  0.89644108  1
  Al  Al33  1  0.78078043  0.75894839  0.32038289  1
  Al  Al34  1  0.88570372  0.87957367  0.13426561  1
  Al  Al35  1  0.57106560  0.87021384  0.57699373  1
  N  N36  1  0.21054079  0.22491742  0.33169569  1
  N  N37  1  0.10768508  0.09608943  0.10689458  1
  N  N38  1  0.86883400  0.21710061  0.83002361  1
  N  N39  1  0.77721174  0.09454708  0.58173468  1
  N  N40  1  0.56684977  0.21786330  0.32859095  1
  N  N41  1  0.44656247  0.09606637  0.11200282  1
  N  N42  1  0.21123075  0.22727480  0.83942143  1
  N  N43  1  0.08706073  0.10805190  0.58975763  1
  N  N44  1  0.86378858  0.21496328  0.32483538  1
  N  N45  1  0.77545316  0.09745921  0.07837012  1
  N  N46  1  0.56626034  0.21629396  0.82665828  1
  N  N47  1  0.46260639  0.09121069  0.59115678  1
  N  N48  1  0.23824760  0.51621380  0.32148468  1
  N  N49  1  0.10998889  0.42919889  0.08416423  1
  N  N50  1  0.88959065  0.53651385  0.84126464  1
  N  N51  1  0.76468373  0.41656277  0.57378989  1
  N  N52  1  0.56542088  0.51418484  0.32437221  1
  N  N53  1  0.44595235  0.42612070  0.07658863  1
  N  N54  1  0.22231488  0.53933282  0.83718234  1
  N  N55  1  0.11910216  0.44402617  0.56976396  1
  N  N56  1  0.89135888  0.53153043  0.33842961  1
  N  N57  1  0.77839007  0.42635643  0.08131572  1
  N  N58  1  0.56750297  0.51724071  0.82931784  1
  N  N59  1  0.44048936  0.43138250  0.58203110  1
  N  N60  1  0.22026724  0.86702433  0.33193328  1
  N  N61  1  0.11034174  0.75806220  0.09003063  1
  N  N62  1  0.89226468  0.87891105  0.84308692  1
  N  N63  1  0.76961246  0.78218759  0.64297470  1
  N  N64  1  0.58412297  0.85609988  0.38689981  1
  N  N65  1  0.44708384  0.75579907  0.10533602  1
  N  N66  1  0.21200181  0.86442524  0.84344109  1
  N  N67  1  0.09726871  0.75433086  0.59084823  1
  N  N68  1  0.86847596  0.89125701  0.32446249  1
  N  N69  1  0.78216073  0.75521132  0.12923736  1
  N  N70  1  0.57920966  0.86387997  0.89759317  1
  N  N71  1  0.46678205  0.74886823  0.60143041  1
