# generated using pymatgen
data_Sc5Al13N18
_symmetry_space_group_name_H-M   'P 1'
_cell_length_a   9.92335549
_cell_length_b   9.90010494
_cell_length_c   10.10941489
_cell_angle_alpha   89.54517421
_cell_angle_beta   89.59374689
_cell_angle_gamma   60.09780357
_symmetry_Int_Tables_number   1
_chemical_formula_structural   Sc5Al13N18
_chemical_formula_sum   'Sc10 Al26 N36'
_cell_volume   860.92565267
_cell_formula_units_Z   2
loop_
 _symmetry_equiv_pos_site_id
 _symmetry_equiv_pos_as_xyz
  1  'x, y, z'
loop_
 _atom_site_type_symbol
 _atom_site_label
 _atom_site_symmetry_multiplicity
 _atom_site_fract_x
 _atom_site_fract_y
 _atom_site_fract_z
 _atom_site_occupancy
  Sc  Sc0  1  0.09378024  0.10532173  0.37230225  1
  Sc  Sc1  1  0.45549871  0.09536003  0.33734167  1
  Sc  Sc2  1  0.10107672  0.10799273  0.87004499  1
  Sc  Sc3  1  0.22055680  0.21691724  0.61302924  1
  Sc  Sc4  1  0.45802769  0.09180383  0.82899721  1
  Sc  Sc5  1  0.88226225  0.54133923  0.61332282  1
  Sc  Sc6  1  0.10582245  0.75487223  0.35849241  1
  Sc  Sc7  1  0.45073296  0.75751907  0.32721629  1
  Sc  Sc8  1  0.22256963  0.86633068  0.60336526  1
  Sc  Sc9  1  0.46068577  0.74978328  0.84716440  1
  Al  Al10  1  0.21890646  0.21040267  0.13433278  1
  Al  Al11  1  0.77672139  0.09162375  0.82253201  1
  Al  Al12  1  0.87207293  0.21524000  0.63704275  1
  Al  Al13  1  0.56064734  0.20203269  0.06765806  1
  Al  Al14  1  0.76849016  0.09897933  0.31404497  1
  Al  Al15  1  0.88384339  0.20997724  0.12864315  1
  Al  Al16  1  0.56626332  0.20554023  0.56950009  1
  Al  Al17  1  0.11207798  0.43400132  0.37616454  1
  Al  Al18  1  0.22877084  0.52955146  0.13050907  1
  Al  Al19  1  0.77755004  0.42789976  0.88593755  1
  Al  Al20  1  0.44409843  0.43197440  0.38476983  1
  Al  Al21  1  0.55945847  0.52577458  0.12777145  1
  Al  Al22  1  0.10613422  0.43497279  0.88633474  1
  Al  Al23  1  0.21942075  0.54300930  0.63581613  1
  Al  Al24  1  0.76821988  0.42347539  0.37917760  1
  Al  Al25  1  0.89059380  0.53375161  0.13520151  1
  Al  Al26  1  0.44495098  0.42861349  0.88294955  1
  Al  Al27  1  0.55844762  0.52772462  0.63631377  1
  Al  Al28  1  0.22263281  0.86761915  0.06958048  1
  Al  Al29  1  0.78736840  0.76171584  0.82246835  1
  Al  Al30  1  0.87584055  0.88297004  0.56991936  1
  Al  Al31  1  0.56592690  0.86978469  0.07280161  1
  Al  Al32  1  0.10849325  0.75167314  0.87660302  1
  Al  Al33  1  0.77966493  0.76364640  0.32062004  1
  Al  Al34  1  0.88369231  0.87311321  0.07171796  1
  Al  Al35  1  0.56850084  0.86750607  0.57219221  1
  N  N36  1  0.21161993  0.22422839  0.32813222  1
  N  N37  1  0.10991080  0.09502565  0.09259167  1
  N  N38  1  0.86840047  0.21976326  0.82966713  1
  N  N39  1  0.77389214  0.09315166  0.63132556  1
  N  N40  1  0.56927061  0.21541817  0.38094172  1
  N  N41  1  0.44683067  0.09376284  0.11387877  1
  N  N42  1  0.21580946  0.22980539  0.82523654  1
  N  N43  1  0.08284330  0.11293030  0.59236720  1
  N  N44  1  0.86573527  0.21985348  0.31542262  1
  N  N45  1  0.77472904  0.08989486  0.12144810  1
  N  N46  1  0.57029710  0.20881644  0.87950136  1
  N  N47  1  0.46551639  0.08707478  0.60668198  1
  N  N48  1  0.23952803  0.51431265  0.31625189  1
  N  N49  1  0.10874675  0.42896843  0.07818798  1
  N  N50  1  0.89073966  0.53549834  0.83305828  1
  N  N51  1  0.76100045  0.41775001  0.56638706  1
  N  N52  1  0.56286168  0.51716505  0.31578622  1
  N  N53  1  0.44175675  0.43048359  0.07356997  1
  N  N54  1  0.22294115  0.53677930  0.83004339  1
  N  N55  1  0.11565184  0.44779165  0.56136048  1
  N  N56  1  0.88943221  0.53411041  0.33389234  1
  N  N57  1  0.77807170  0.42909624  0.07567234  1
  N  N58  1  0.56972006  0.51071821  0.82618032  1
  N  N59  1  0.43577031  0.43851315  0.57965322  1
  N  N60  1  0.22608396  0.86857921  0.38558314  1
  N  N61  1  0.11085815  0.75590461  0.09639903  1
  N  N62  1  0.88871765  0.87281451  0.88101662  1
  N  N63  1  0.77114201  0.78327550  0.63479155  1
  N  N64  1  0.57932819  0.85723373  0.38491712  1
  N  N65  1  0.44591876  0.75927054  0.10263516  1
  N  N66  1  0.21545991  0.86169715  0.86713618  1
  N  N67  1  0.09419587  0.75434096  0.59006016  1
  N  N68  1  0.86158140  0.89065153  0.37752720  1
  N  N69  1  0.78038704  0.76151769  0.13070730  1
  N  N70  1  0.58634791  0.86002616  0.88971712  1
  N  N71  1  0.47138684  0.75071858  0.62634019  1
