# generated using pymatgen
data_Sc5Al13N18
_symmetry_space_group_name_H-M   'P 1'
_cell_length_a   9.94998216
_cell_length_b   9.93123123
_cell_length_c   9.99869208
_cell_angle_alpha   89.69049985
_cell_angle_beta   89.86390194
_cell_angle_gamma   60.12135687
_symmetry_Int_Tables_number   1
_chemical_formula_structural   Sc5Al13N18
_chemical_formula_sum   'Sc10 Al26 N36'
_cell_volume   856.68792474
_cell_formula_units_Z   2
loop_
 _symmetry_equiv_pos_site_id
 _symmetry_equiv_pos_as_xyz
  1  'x, y, z'
loop_
 _atom_site_type_symbol
 _atom_site_label
 _atom_site_symmetry_multiplicity
 _atom_site_fract_x
 _atom_site_fract_y
 _atom_site_fract_z
 _atom_site_occupancy
  Sc  Sc0  1  0.09397990  0.10789373  0.37142847  1
  Sc  Sc1  1  0.45207841  0.09632446  0.36080995  1
  Sc  Sc2  1  0.10228635  0.10068443  0.87594047  1
  Sc  Sc3  1  0.22408416  0.21345821  0.62232880  1
  Sc  Sc4  1  0.44784615  0.10074026  0.87734589  1
  Sc  Sc5  1  0.88461402  0.54111159  0.61009942  1
  Sc  Sc6  1  0.10426753  0.75203511  0.35800418  1
  Sc  Sc7  1  0.45588257  0.74812896  0.35389555  1
  Sc  Sc8  1  0.21643691  0.86767469  0.61638898  1
  Sc  Sc9  1  0.45487167  0.75237066  0.85340107  1
  Al  Al10  1  0.21833065  0.21205187  0.13487669  1
  Al  Al11  1  0.77962010  0.09015612  0.82433280  1
  Al  Al12  1  0.87483642  0.21350768  0.63574503  1
  Al  Al13  1  0.55303782  0.21384139  0.12890040  1
  Al  Al14  1  0.77347429  0.09625185  0.31298002  1
  Al  Al15  1  0.88271151  0.21132202  0.12562582  1
  Al  Al16  1  0.55772480  0.20986234  0.63231030  1
  Al  Al17  1  0.11487670  0.43207942  0.37645566  1
  Al  Al18  1  0.22951380  0.52936901  0.12770271  1
  Al  Al19  1  0.77754492  0.42965208  0.88397530  1
  Al  Al20  1  0.44794684  0.42325711  0.38224780  1
  Al  Al21  1  0.55929394  0.52901149  0.12867287  1
  Al  Al22  1  0.10367200  0.43791722  0.88515051  1
  Al  Al23  1  0.22065555  0.54246417  0.63391371  1
  Al  Al24  1  0.77046698  0.42166371  0.37858863  1
  Al  Al25  1  0.89184621  0.53351119  0.13426466  1
  Al  Al26  1  0.44705262  0.42677683  0.87982916  1
  Al  Al27  1  0.55987931  0.52649142  0.63299896  1
  Al  Al28  1  0.22346511  0.87077845  0.12463009  1
  Al  Al29  1  0.78615145  0.76319951  0.82182895  1
  Al  Al30  1  0.87558818  0.88351615  0.56659979  1
  Al  Al31  1  0.56762806  0.86352727  0.07817807  1
  Al  Al32  1  0.11300203  0.75324742  0.88595934  1
  Al  Al33  1  0.78066366  0.76283055  0.31920587  1
  Al  Al34  1  0.88223437  0.87498932  0.06947371  1
  Al  Al35  1  0.56988013  0.86838965  0.57246326  1
  N  N36  1  0.21178012  0.22503714  0.32593698  1
  N  N37  1  0.10958887  0.09560950  0.09553490  1
  N  N38  1  0.86891501  0.21982021  0.83152887  1
  N  N39  1  0.77932216  0.09117748  0.62487297  1
  N  N40  1  0.56069070  0.22064642  0.32059666  1
  N  N41  1  0.44459051  0.09516111  0.10261672  1
  N  N42  1  0.21207810  0.22881057  0.83271520  1
  N  N43  1  0.08587156  0.11091721  0.58929857  1
  N  N44  1  0.86619737  0.21926038  0.31548603  1
  N  N45  1  0.77752645  0.09087476  0.11172712  1
  N  N46  1  0.56063560  0.21827136  0.82661610  1
  N  N47  1  0.46421799  0.08892051  0.58804449  1
  N  N48  1  0.24035650  0.51369139  0.31531000  1
  N  N49  1  0.10840033  0.43063320  0.07822083  1
  N  N50  1  0.88965891  0.53736825  0.83207234  1
  N  N51  1  0.76397310  0.41695368  0.56772593  1
  N  N52  1  0.56502500  0.51344965  0.31780733  1
  N  N53  1  0.44468820  0.42778850  0.06987120  1
  N  N54  1  0.22232213  0.53887712  0.82993207  1
  N  N55  1  0.11956876  0.44279515  0.56414084  1
  N  N56  1  0.89100067  0.53394843  0.33579084  1
  N  N57  1  0.77798373  0.43078085  0.07603576  1
  N  N58  1  0.56845131  0.51518092  0.82466352  1
  N  N59  1  0.44055311  0.43073873  0.57644768  1
  N  N60  1  0.21984263  0.87277715  0.33935046  1
  N  N61  1  0.11381366  0.75606150  0.09071639  1
  N  N62  1  0.89020553  0.87184599  0.87843062  1
  N  N63  1  0.77211462  0.78319160  0.63232886  1
  N  N64  1  0.58178416  0.85574481  0.38002587  1
  N  N65  1  0.44761643  0.75718649  0.10311331  1
  N  N66  1  0.21303361  0.86184988  0.83641145  1
  N  N67  1  0.09711966  0.75103449  0.57687083  1
  N  N68  1  0.86062902  0.89096839  0.37321875  1
  N  N69  1  0.78297992  0.75995026  0.12837329  1
  N  N70  1  0.58467370  0.86021415  0.88840458  1
  N  N71  1  0.46766853  0.74921589  0.60701313  1
