# generated using pymatgen
data_Sc5Al13N18
_symmetry_space_group_name_H-M   'P 1'
_cell_length_a   9.92352514
_cell_length_b   9.91343815
_cell_length_c   10.06461131
_cell_angle_alpha   89.48048666
_cell_angle_beta   89.52644041
_cell_angle_gamma   60.15273475
_symmetry_Int_Tables_number   1
_chemical_formula_structural   Sc5Al13N18
_chemical_formula_sum   'Sc10 Al26 N36'
_cell_volume   858.74129034
_cell_formula_units_Z   2
loop_
 _symmetry_equiv_pos_site_id
 _symmetry_equiv_pos_as_xyz
  1  'x, y, z'
loop_
 _atom_site_type_symbol
 _atom_site_label
 _atom_site_symmetry_multiplicity
 _atom_site_fract_x
 _atom_site_fract_y
 _atom_site_fract_z
 _atom_site_occupancy
  Sc  Sc0  1  0.09305960  0.10630116  0.37013039  1
  Sc  Sc1  1  0.45461512  0.09630158  0.33510246  1
  Sc  Sc2  1  0.10357764  0.10123978  0.87700131  1
  Sc  Sc3  1  0.21993506  0.21555837  0.61451012  1
  Sc  Sc4  1  0.45582846  0.09292000  0.83365441  1
  Sc  Sc5  1  0.88227722  0.54184034  0.61267843  1
  Sc  Sc6  1  0.10453358  0.75153800  0.36098660  1
  Sc  Sc7  1  0.45735187  0.75025911  0.34804215  1
  Sc  Sc8  1  0.21787900  0.86735656  0.61728503  1
  Sc  Sc9  1  0.45589305  0.75095336  0.85304023  1
  Al  Al10  1  0.21828318  0.21242582  0.13347181  1
  Al  Al11  1  0.77812914  0.09069365  0.82263942  1
  Al  Al12  1  0.87436288  0.21367000  0.63680644  1
  Al  Al13  1  0.56085318  0.20364528  0.06666335  1
  Al  Al14  1  0.76808035  0.09935659  0.31417808  1
  Al  Al15  1  0.88172496  0.21200791  0.12844582  1
  Al  Al16  1  0.56616907  0.20466779  0.57128909  1
  Al  Al17  1  0.11240959  0.43339183  0.37652971  1
  Al  Al18  1  0.22988343  0.52871997  0.12926729  1
  Al  Al19  1  0.77812012  0.42804982  0.88484500  1
  Al  Al20  1  0.44425981  0.42966978  0.38478455  1
  Al  Al21  1  0.55855891  0.52842127  0.12942316  1
  Al  Al22  1  0.10527869  0.43556943  0.88532094  1
  Al  Al23  1  0.21923659  0.54360520  0.63618595  1
  Al  Al24  1  0.76961079  0.42174281  0.37975084  1
  Al  Al25  1  0.89025351  0.53433648  0.13453823  1
  Al  Al26  1  0.44506314  0.42944010  0.88114275  1
  Al  Al27  1  0.55853962  0.52731466  0.63479465  1
  Al  Al28  1  0.22337539  0.87035876  0.12377871  1
  Al  Al29  1  0.78797572  0.76212548  0.82304967  1
  Al  Al30  1  0.87589831  0.88322543  0.56807465  1
  Al  Al31  1  0.56535027  0.86844418  0.07369984  1
  Al  Al32  1  0.11279475  0.75367600  0.88802629  1
  Al  Al33  1  0.77962423  0.76435582  0.31990018  1
  Al  Al34  1  0.88218205  0.87465489  0.07185269  1
  Al  Al35  1  0.56905332  0.86975792  0.57291876  1
  N  N36  1  0.21134876  0.22512804  0.32746000  1
  N  N37  1  0.10914516  0.09589191  0.09601273  1
  N  N38  1  0.87055716  0.21882279  0.83027901  1
  N  N39  1  0.77549122  0.09220882  0.63051092  1
  N  N40  1  0.56907610  0.21427810  0.38150637  1
  N  N41  1  0.44639598  0.09474658  0.11069954  1
  N  N42  1  0.21293007  0.22876747  0.82712380  1
  N  N43  1  0.08413700  0.10986511  0.58585901  1
  N  N44  1  0.86492471  0.22015164  0.31560507  1
  N  N45  1  0.77416470  0.09100611  0.12078987  1
  N  N46  1  0.57050894  0.20990695  0.87757716  1
  N  N47  1  0.46478088  0.08723338  0.60965635  1
  N  N48  1  0.24012354  0.51277984  0.31532068  1
  N  N49  1  0.10821115  0.43006726  0.07791447  1
  N  N50  1  0.89030949  0.53650164  0.83287661  1
  N  N51  1  0.76260034  0.41656232  0.56750214  1
  N  N52  1  0.56436825  0.51399691  0.31727096  1
  N  N53  1  0.44270911  0.43107434  0.07302672  1
  N  N54  1  0.22179525  0.53904503  0.83092961  1
  N  N55  1  0.11636443  0.44660733  0.56282302  1
  N  N56  1  0.88897555  0.53493563  0.33470412  1
  N  N57  1  0.77750271  0.43012050  0.07569412  1
  N  N58  1  0.56939012  0.51315587  0.82474702  1
  N  N59  1  0.43600201  0.43720676  0.58048926  1
  N  N60  1  0.22147221  0.87095484  0.33995270  1
  N  N61  1  0.11323392  0.75622343  0.09149394  1
  N  N62  1  0.88992361  0.87273766  0.88133865  1
  N  N63  1  0.77205432  0.78336399  0.63429132  1
  N  N64  1  0.58005221  0.86093880  0.38416237  1
  N  N65  1  0.44792362  0.75834623  0.10427178  1
  N  N66  1  0.21343094  0.86217416  0.83757927  1
  N  N67  1  0.09660234  0.75249366  0.57856772  1
  N  N68  1  0.86105294  0.89129468  0.37510302  1
  N  N69  1  0.78050129  0.76153390  0.12975651  1
  N  N70  1  0.58527584  0.85926792  0.88821928  1
  N  N71  1  0.46892846  0.74977293  0.61121978  1
