# generated using pymatgen
data_Sc5Al13N18
_symmetry_space_group_name_H-M   'P 1'
_cell_length_a   9.95042860
_cell_length_b   9.92345216
_cell_length_c   10.03784458
_cell_angle_alpha   89.73064730
_cell_angle_beta   89.89669001
_cell_angle_gamma   60.08483314
_symmetry_Int_Tables_number   1
_chemical_formula_structural   Sc5Al13N18
_chemical_formula_sum   'Sc10 Al26 N36'
_cell_volume   859.09540986
_cell_formula_units_Z   2
loop_
 _symmetry_equiv_pos_site_id
 _symmetry_equiv_pos_as_xyz
  1  'x, y, z'
loop_
 _atom_site_type_symbol
 _atom_site_label
 _atom_site_symmetry_multiplicity
 _atom_site_fract_x
 _atom_site_fract_y
 _atom_site_fract_z
 _atom_site_occupancy
  Sc  Sc0  1  0.09451057  0.10771082  0.37412344  1
  Sc  Sc1  1  0.45298009  0.09548529  0.36171990  1
  Sc  Sc2  1  0.09910848  0.10707578  0.86903886  1
  Sc  Sc3  1  0.22564224  0.21406601  0.62252873  1
  Sc  Sc4  1  0.44812150  0.10110390  0.87887180  1
  Sc  Sc5  1  0.88477491  0.54058517  0.61034276  1
  Sc  Sc6  1  0.10583918  0.75483050  0.35759722  1
  Sc  Sc7  1  0.45031358  0.75429736  0.33453873  1
  Sc  Sc8  1  0.21963804  0.86658892  0.60434619  1
  Sc  Sc9  1  0.45995261  0.75162763  0.84455860  1
  Al  Al10  1  0.21833151  0.21058453  0.13507732  1
  Al  Al11  1  0.77857967  0.09035339  0.82329053  1
  Al  Al12  1  0.87288842  0.21479468  0.63587011  1
  Al  Al13  1  0.55294790  0.21357789  0.13007952  1
  Al  Al14  1  0.77359530  0.09625051  0.31314487  1
  Al  Al15  1  0.88456414  0.20960857  0.12594184  1
  Al  Al16  1  0.55726650  0.20990227  0.63205802  1
  Al  Al17  1  0.11503425  0.43216704  0.37627981  1
  Al  Al18  1  0.22895746  0.52936202  0.12886454  1
  Al  Al19  1  0.77692032  0.42974951  0.88481769  1
  Al  Al20  1  0.44773021  0.42460696  0.38261574  1
  Al  Al21  1  0.56021788  0.52660912  0.12732469  1
  Al  Al22  1  0.10369718  0.43808259  0.88591749  1
  Al  Al23  1  0.22020837  0.54233166  0.63373701  1
  Al  Al24  1  0.76931918  0.42291861  0.37816901  1
  Al  Al25  1  0.89215891  0.53303031  0.13511456  1
  Al  Al26  1  0.44694654  0.42641235  0.88027856  1
  Al  Al27  1  0.55991705  0.52657331  0.63359585  1
  Al  Al28  1  0.22409690  0.86841649  0.07167933  1
  Al  Al29  1  0.78590855  0.76321713  0.82085254  1
  Al  Al30  1  0.87551432  0.88311326  0.56704715  1
  Al  Al31  1  0.56861737  0.86355680  0.07714273  1
  Al  Al32  1  0.10996967  0.75046569  0.88286331  1
  Al  Al33  1  0.78064915  0.76235685  0.31995040  1
  Al  Al34  1  0.88199655  0.87465993  0.06970249  1
  Al  Al35  1  0.56922646  0.86684527  0.57187659  1
  N  N36  1  0.21239090  0.22418457  0.32555883  1
  N  N37  1  0.11019575  0.09470686  0.09218478  1
  N  N38  1  0.86623790  0.22091019  0.83095413  1
  N  N39  1  0.77876685  0.09132247  0.62495921  1
  N  N40  1  0.56048113  0.22118647  0.32076204  1
  N  N41  1  0.44484567  0.09479107  0.10290727  1
  N  N42  1  0.21369628  0.23023376  0.83205269  1
  N  N43  1  0.08508422  0.11336640  0.59648408  1
  N  N44  1  0.86700534  0.21893924  0.31539581  1
  N  N45  1  0.77760799  0.09047078  0.11264736  1
  N  N46  1  0.55994937  0.21823228  0.82570829  1
  N  N47  1  0.46504687  0.08840925  0.58643859  1
  N  N48  1  0.23991735  0.51499477  0.31582353  1
  N  N49  1  0.10855723  0.43004630  0.07834599  1
  N  N50  1  0.88970472  0.53687006  0.83195024  1
  N  N51  1  0.76292304  0.41766362  0.56666015  1
  N  N52  1  0.56380048  0.51533320  0.31682260  1
  N  N53  1  0.44414618  0.42726910  0.06971747  1
  N  N54  1  0.22260800  0.53785041  0.82928523  1
  N  N55  1  0.11950089  0.44275390  0.56308628  1
  N  N56  1  0.89139528  0.53325169  0.33532726  1
  N  N57  1  0.77855919  0.42996857  0.07603420  1
  N  N58  1  0.56883270  0.51346318  0.82567256  1
  N  N59  1  0.44029616  0.43137965  0.57629395  1
  N  N60  1  0.22280152  0.87181156  0.38304227  1
  N  N61  1  0.11240422  0.75492476  0.09175275  1
  N  N62  1  0.88918030  0.87211832  0.87858958  1
  N  N63  1  0.77158605  0.78304855  0.63234210  1
  N  N64  1  0.58131223  0.85317041  0.38117673  1
  N  N65  1  0.44653098  0.75797796  0.10423686  1
  N  N66  1  0.21570289  0.86125816  0.86435374  1
  N  N67  1  0.09524083  0.75139018  0.58276748  1
  N  N68  1  0.86105322  0.89061012  0.37411308  1
  N  N69  1  0.78284454  0.75983534  0.12944577  1
  N  N70  1  0.58608591  0.86038008  0.88987441  1
  N  N71  1  0.46988965  0.74979912  0.62007814  1
