# generated using pymatgen
data_Sc5Al13N18
_symmetry_space_group_name_H-M   'P 1'
_cell_length_a   9.91080102
_cell_length_b   9.90867232
_cell_length_c   10.03946706
_cell_angle_alpha   89.73588091
_cell_angle_beta   89.76976061
_cell_angle_gamma   60.10254925
_symmetry_Int_Tables_number   1
_chemical_formula_structural   Sc5Al13N18
_chemical_formula_sum   'Sc10 Al26 N36'
_cell_volume   854.68857388
_cell_formula_units_Z   2
loop_
 _symmetry_equiv_pos_site_id
 _symmetry_equiv_pos_as_xyz
  1  'x, y, z'
loop_
 _atom_site_type_symbol
 _atom_site_label
 _atom_site_symmetry_multiplicity
 _atom_site_fract_x
 _atom_site_fract_y
 _atom_site_fract_z
 _atom_site_occupancy
  Sc  Sc0  1  0.09569995  0.10394232  0.36710546  1
  Sc  Sc1  1  0.45182596  0.09614118  0.35760561  1
  Sc  Sc2  1  0.10104810  0.09931987  0.88116304  1
  Sc  Sc3  1  0.22162523  0.21251288  0.62106827  1
  Sc  Sc4  1  0.44729556  0.10351282  0.87691367  1
  Sc  Sc5  1  0.88289484  0.54239433  0.61239473  1
  Sc  Sc6  1  0.10439115  0.75206910  0.35800373  1
  Sc  Sc7  1  0.45806323  0.74559409  0.36798538  1
  Sc  Sc8  1  0.21771368  0.86781403  0.62284677  1
  Sc  Sc9  1  0.45138975  0.75124923  0.86695487  1
  Al  Al10  1  0.21798885  0.21244858  0.13505433  1
  Al  Al11  1  0.77488755  0.10012213  0.88322160  1
  Al  Al12  1  0.87367065  0.21016473  0.63282776  1
  Al  Al13  1  0.55965497  0.21259854  0.13359077  1
  Al  Al14  1  0.76990815  0.10372818  0.37758138  1
  Al  Al15  1  0.87823266  0.21056940  0.13149542  1
  Al  Al16  1  0.56001909  0.20901777  0.62995254  1
  Al  Al17  1  0.11337069  0.43227520  0.37604074  1
  Al  Al18  1  0.23066375  0.52812420  0.12709035  1
  Al  Al19  1  0.77806345  0.42709767  0.88169946  1
  Al  Al20  1  0.44736270  0.42380716  0.38125050  1
  Al  Al21  1  0.55921763  0.52975224  0.12905920  1
  Al  Al22  1  0.10398731  0.43712459  0.88443837  1
  Al  Al23  1  0.22111499  0.54148368  0.63387549  1
  Al  Al24  1  0.77205346  0.42204637  0.37791441  1
  Al  Al25  1  0.89173602  0.53102397  0.13044058  1
  Al  Al26  1  0.44834600  0.42542806  0.87819827  1
  Al  Al27  1  0.55966143  0.52743454  0.63281016  1
  Al  Al28  1  0.22599337  0.86878995  0.13434094  1
  Al  Al29  1  0.78480164  0.76455478  0.82760813  1
  Al  Al30  1  0.88244411  0.88065410  0.59287905  1
  Al  Al31  1  0.56604997  0.86454156  0.07635543  1
  Al  Al32  1  0.11122771  0.75431188  0.89111692  1
  Al  Al33  1  0.78084311  0.76194563  0.31223781  1
  Al  Al34  1  0.88485692  0.87556965  0.09250893  1
  Al  Al35  1  0.56967874  0.87135537  0.57226790  1
  N  N36  1  0.21072287  0.22500716  0.32522139  1
  N  N37  1  0.10778531  0.09591044  0.09845378  1
  N  N38  1  0.86841099  0.21630303  0.82327383  1
  N  N39  1  0.77431998  0.09902706  0.57200772  1
  N  N40  1  0.56438107  0.21926186  0.32111545  1
  N  N41  1  0.44618104  0.09578657  0.10334771  1
  N  N42  1  0.21040075  0.22695867  0.83150526  1
  N  N43  1  0.08608402  0.10705497  0.58303361  1
  N  N44  1  0.86370125  0.21726684  0.31692832  1
  N  N45  1  0.77259507  0.10233016  0.07428052  1
  N  N46  1  0.56681590  0.21574793  0.81937125  1
  N  N47  1  0.46212247  0.09123806  0.58617518  1
  N  N48  1  0.24014378  0.51263229  0.31411610  1
  N  N49  1  0.10941515  0.42952133  0.07630729  1
  N  N50  1  0.88894494  0.53718114  0.83236192  1
  N  N51  1  0.76484203  0.41696822  0.56694978  1
  N  N52  1  0.56537752  0.51417785  0.31669525  1
  N  N53  1  0.44637105  0.42571515  0.06852625  1
  N  N54  1  0.22266088  0.53874283  0.82889599  1
  N  N55  1  0.11791528  0.44355149  0.56355613  1
  N  N56  1  0.89094866  0.53326668  0.33197827  1
  N  N57  1  0.77865701  0.42733847  0.07380980  1
  N  N58  1  0.56812026  0.51616129  0.82261221  1
  N  N59  1  0.43995191  0.43193414  0.57488456  1
  N  N60  1  0.22428003  0.86916334  0.32592701  1
  N  N61  1  0.11682560  0.75430219  0.08958412  1
  N  N62  1  0.89100564  0.87268716  0.87528703  1
  N  N63  1  0.77059712  0.78538293  0.63609039  1
  N  N64  1  0.58454996  0.85599466  0.38047109  1
  N  N65  1  0.44827779  0.75560344  0.09612404  1
  N  N66  1  0.21127453  0.86221061  0.83376215  1
  N  N67  1  0.09710379  0.75235411  0.57499997  1
  N  N68  1  0.86649841  0.89114158  0.33292338  1
  N  N69  1  0.78070686  0.75587374  0.12168074  1
  N  N70  1  0.57937382  0.86359778  0.88612695  1
  N  N71  1  0.46717935  0.74892490  0.59767003  1
