# generated using pymatgen
data_Sc5Al13N18
_symmetry_space_group_name_H-M   'P 1'
_cell_length_a   9.83737448
_cell_length_b   9.78254117
_cell_length_c   10.43499903
_cell_angle_alpha   89.24557148
_cell_angle_beta   89.97702294
_cell_angle_gamma   59.88040819
_symmetry_Int_Tables_number   1
_chemical_formula_structural   Sc5Al13N18
_chemical_formula_sum   'Sc10 Al26 N36'
_cell_volume   868.52130791
_cell_formula_units_Z   2
loop_
 _symmetry_equiv_pos_site_id
 _symmetry_equiv_pos_as_xyz
  1  'x, y, z'
loop_
 _atom_site_type_symbol
 _atom_site_label
 _atom_site_symmetry_multiplicity
 _atom_site_fract_x
 _atom_site_fract_y
 _atom_site_fract_z
 _atom_site_occupancy
  Sc  Sc0  1  0.10227387  0.10273654  0.30820605  1
  Sc  Sc1  1  0.44916989  0.10139007  0.32000654  1
  Sc  Sc2  1  0.09682182  0.10290393  0.83296373  1
  Sc  Sc3  1  0.22237572  0.20891310  0.57598129  1
  Sc  Sc4  1  0.45593894  0.09387607  0.82222277  1
  Sc  Sc5  1  0.88342597  0.53853881  0.62507430  1
  Sc  Sc6  1  0.10393887  0.75985841  0.32638073  1
  Sc  Sc7  1  0.45041851  0.75972735  0.31914045  1
  Sc  Sc8  1  0.22219484  0.87122657  0.58265298  1
  Sc  Sc9  1  0.45510325  0.75298861  0.83947054  1
  Al  Al10  1  0.22579365  0.20406079  0.05912449  1
  Al  Al11  1  0.77600554  0.09841150  0.81741802  1
  Al  Al12  1  0.87720131  0.20293493  0.56282273  1
  Al  Al13  1  0.56370234  0.19996026  0.06372125  1
  Al  Al14  1  0.77276784  0.09788686  0.31824244  1
  Al  Al15  1  0.88267805  0.20133920  0.06606359  1
  Al  Al16  1  0.56418015  0.20446874  0.56637296  1
  Al  Al17  1  0.10956049  0.43709902  0.38045838  1
  Al  Al18  1  0.22928804  0.52791770  0.13127249  1
  Al  Al19  1  0.77417619  0.43278789  0.89047778  1
  Al  Al20  1  0.44547867  0.43116220  0.38522546  1
  Al  Al21  1  0.56055097  0.52576892  0.12940272  1
  Al  Al22  1  0.10355805  0.44320421  0.88951850  1
  Al  Al23  1  0.22442003  0.53736568  0.63752575  1
  Al  Al24  1  0.77003407  0.42825449  0.38073819  1
  Al  Al25  1  0.89194284  0.53365161  0.13755440  1
  Al  Al26  1  0.44373663  0.43034426  0.88510999  1
  Al  Al27  1  0.55943801  0.52777636  0.63649511  1
  Al  Al28  1  0.22013565  0.86340036  0.05938563  1
  Al  Al29  1  0.78346600  0.76593151  0.82164979  1
  Al  Al30  1  0.87804092  0.88089253  0.57234499  1
  Al  Al31  1  0.56623185  0.86779070  0.06808602  1
  Al  Al32  1  0.10073582  0.76122706  0.81913594  1
  Al  Al33  1  0.77862681  0.76517332  0.31968807  1
  Al  Al34  1  0.88953891  0.87041786  0.06675687  1
  Al  Al35  1  0.56692985  0.87062616  0.56943455  1
  N  N36  1  0.21495260  0.21691771  0.37230291  1
  N  N37  1  0.11089393  0.09267374  0.09805867  1
  N  N38  1  0.86597700  0.21103937  0.88569688  1
  N  N39  1  0.77465448  0.09837610  0.63222563  1
  N  N40  1  0.56941609  0.21060143  0.38332843  1
  N  N41  1  0.44628599  0.09426026  0.10998024  1
  N  N42  1  0.21890793  0.22159252  0.87345729  1
  N  N43  1  0.08229294  0.11238877  0.62868173  1
  N  N44  1  0.87538658  0.20374152  0.37592442  1
  N  N45  1  0.77783724  0.09147147  0.13105069  1
  N  N46  1  0.57079635  0.20719931  0.88155144  1
  N  N47  1  0.46384257  0.08957299  0.61564794  1
  N  N48  1  0.24072956  0.51046957  0.31446817  1
  N  N49  1  0.10676675  0.43471685  0.07650319  1
  N  N50  1  0.89000308  0.53521143  0.83381639  1
  N  N51  1  0.75882414  0.42675457  0.56399095  1
  N  N52  1  0.56552464  0.51445076  0.31231670  1
  N  N53  1  0.44194503  0.43160893  0.07082499  1
  N  N54  1  0.22651258  0.53119732  0.82523030  1
  N  N55  1  0.11250840  0.45354350  0.56255441  1
  N  N56  1  0.89118092  0.53167254  0.32751499  1
  N  N57  1  0.77679113  0.43323541  0.07797957  1
  N  N58  1  0.57047278  0.50933014  0.82098772  1
  N  N59  1  0.43591048  0.44084134  0.57389848  1
  N  N60  1  0.22209242  0.87260203  0.38118108  1
  N  N61  1  0.10835660  0.76116790  0.11874062  1
  N  N62  1  0.88895262  0.87346781  0.88106854  1
  N  N63  1  0.76921746  0.78509989  0.63830774  1
  N  N64  1  0.57667342  0.86162565  0.38632414  1
  N  N65  1  0.44515430  0.76025937  0.10439179  1
  N  N66  1  0.21333391  0.85694781  0.87567695  1
  N  N67  1  0.09162804  0.76296620  0.63167916  1
  N  N68  1  0.86803609  0.88333080  0.38648708  1
  N  N69  1  0.77938979  0.76592102  0.13321495  1
  N  N70  1  0.58382091  0.86004142  0.89053540  1
  N  N71  1  0.46648056  0.75646780  0.62770936  1
