# generated using pymatgen
data_Sc5Al13N18
_symmetry_space_group_name_H-M   'P 1'
_cell_length_a   9.92782578
_cell_length_b   9.92479300
_cell_length_c   10.02054422
_cell_angle_alpha   89.56369786
_cell_angle_beta   89.72675502
_cell_angle_gamma   60.24180727
_symmetry_Int_Tables_number   1
_chemical_formula_structural   Sc5Al13N18
_chemical_formula_sum   'Sc10 Al26 N36'
_cell_volume   857.11230407
_cell_formula_units_Z   2
loop_
 _symmetry_equiv_pos_site_id
 _symmetry_equiv_pos_as_xyz
  1  'x, y, z'
loop_
 _atom_site_type_symbol
 _atom_site_label
 _atom_site_symmetry_multiplicity
 _atom_site_fract_x
 _atom_site_fract_y
 _atom_site_fract_z
 _atom_site_occupancy
  Sc  Sc0  1  0.09465546  0.10479034  0.36740300  1
  Sc  Sc1  1  0.45114342  0.09536078  0.34634930  1
  Sc  Sc2  1  0.10277152  0.09940140  0.88168299  1
  Sc  Sc3  1  0.21954061  0.21396000  0.61903223  1
  Sc  Sc4  1  0.44888100  0.09552217  0.85820068  1
  Sc  Sc5  1  0.88398965  0.54216079  0.61115257  1
  Sc  Sc6  1  0.10474511  0.75242407  0.35804248  1
  Sc  Sc7  1  0.45581604  0.74671529  0.36903523  1
  Sc  Sc8  1  0.21594010  0.86796742  0.62362933  1
  Sc  Sc9  1  0.45277919  0.74940904  0.86773200  1
  Al  Al10  1  0.21716432  0.21385653  0.13336201  1
  Al  Al11  1  0.77976865  0.09042274  0.82544554  1
  Al  Al12  1  0.87638177  0.21297975  0.63581956  1
  Al  Al13  1  0.55694775  0.20936622  0.09763225  1
  Al  Al14  1  0.77053607  0.09788323  0.31117774  1
  Al  Al15  1  0.88213929  0.21349083  0.12741468  1
  Al  Al16  1  0.56025137  0.20819565  0.60915110  1
  Al  Al17  1  0.11344541  0.43325831  0.37660913  1
  Al  Al18  1  0.22954989  0.53010731  0.12872459  1
  Al  Al19  1  0.77838999  0.42916826  0.88370038  1
  Al  Al20  1  0.44707751  0.42431508  0.38115983  1
  Al  Al21  1  0.55873303  0.53156739  0.13180223  1
  Al  Al22  1  0.10414892  0.43729595  0.88469799  1
  Al  Al23  1  0.22051740  0.54283470  0.63445163  1
  Al  Al24  1  0.77107102  0.42163148  0.37957170  1
  Al  Al25  1  0.89119005  0.53475756  0.13417854  1
  Al  Al26  1  0.44685103  0.42820467  0.88137832  1
  Al  Al27  1  0.55980262  0.52724463  0.63402659  1
  Al  Al28  1  0.22558084  0.86980977  0.13360297  1
  Al  Al29  1  0.78717183  0.76276839  0.82215583  1
  Al  Al30  1  0.87631191  0.88370432  0.56607229  1
  Al  Al31  1  0.56698257  0.86523911  0.07600127  1
  Al  Al32  1  0.11371743  0.75298842  0.88935435  1
  Al  Al33  1  0.77986145  0.76404378  0.31918173  1
  Al  Al34  1  0.88356685  0.87447107  0.07019444  1
  Al  Al35  1  0.56975754  0.86980790  0.57348718  1
  N  N36  1  0.20944310  0.22676690  0.32568739  1
  N  N37  1  0.10884950  0.09688515  0.09800876  1
  N  N38  1  0.87142637  0.21929462  0.83038152  1
  N  N39  1  0.77754584  0.09188715  0.62821925  1
  N  N40  1  0.56231008  0.21817026  0.33847598  1
  N  N41  1  0.44391544  0.09417944  0.10274291  1
  N  N42  1  0.20868533  0.22919866  0.83032711  1
  N  N43  1  0.08536294  0.10744145  0.58300820  1
  N  N44  1  0.86545788  0.22018457  0.31583542  1
  N  N45  1  0.77874415  0.09051557  0.11389708  1
  N  N46  1  0.56638551  0.21380818  0.85670046  1
  N  N47  1  0.46263464  0.08755656  0.60202054  1
  N  N48  1  0.23940181  0.51461352  0.31573416  1
  N  N49  1  0.10832795  0.43150796  0.07753285  1
  N  N50  1  0.89017922  0.53774660  0.83202635  1
  N  N51  1  0.76451785  0.41664579  0.56842278  1
  N  N52  1  0.56491242  0.51544914  0.31927311  1
  N  N53  1  0.44376362  0.43186016  0.07231864  1
  N  N54  1  0.22293554  0.53921191  0.82997172  1
  N  N55  1  0.11871422  0.44394106  0.56396891  1
  N  N56  1  0.89007651  0.53539055  0.33531436  1
  N  N57  1  0.77745752  0.43162709  0.07575513  1
  N  N58  1  0.56895353  0.51531770  0.82348228  1
  N  N59  1  0.44029185  0.43130088  0.57789295  1
  N  N60  1  0.22250357  0.87076299  0.32516007  1
  N  N61  1  0.11424163  0.75604749  0.09064285  1
  N  N62  1  0.89098441  0.87189519  0.87941844  1
  N  N63  1  0.77258573  0.78369416  0.63276319  1
  N  N64  1  0.58112731  0.85790320  0.38171719  1
  N  N65  1  0.44829988  0.75662347  0.09732305  1
  N  N66  1  0.21229110  0.86220690  0.83515453  1
  N  N67  1  0.09871970  0.75143908  0.57494025  1
  N  N68  1  0.86124551  0.89170841  0.37321667  1
  N  N69  1  0.78191362  0.76142252  0.12857173  1
  N  N70  1  0.58505958  0.85718552  0.88674076  1
  N  N71  1  0.46588000  0.74832635  0.59863178  1
