# generated using pymatgen
data_Sc5Al13N18
_symmetry_space_group_name_H-M   'P 1'
_cell_length_a   9.87762224
_cell_length_b   9.87330560
_cell_length_c   10.14474162
_cell_angle_alpha   89.69314530
_cell_angle_beta   89.68491424
_cell_angle_gamma   60.01823153
_symmetry_Int_Tables_number   1
_chemical_formula_structural   Sc5Al13N18
_chemical_formula_sum   'Sc10 Al26 N36'
_cell_volume   856.95464201
_cell_formula_units_Z   2
loop_
 _symmetry_equiv_pos_site_id
 _symmetry_equiv_pos_as_xyz
  1  'x, y, z'
loop_
 _atom_site_type_symbol
 _atom_site_label
 _atom_site_symmetry_multiplicity
 _atom_site_fract_x
 _atom_site_fract_y
 _atom_site_fract_z
 _atom_site_occupancy
  Sc  Sc0  1  0.09635084  0.10285904  0.37211331  1
  Sc  Sc1  1  0.45140683  0.09724516  0.36247133  1
  Sc  Sc2  1  0.10071716  0.10127914  0.88787492  1
  Sc  Sc3  1  0.22272705  0.21284482  0.62668933  1
  Sc  Sc4  1  0.44720284  0.10477170  0.88466840  1
  Sc  Sc5  1  0.88372355  0.54086671  0.61753144  1
  Sc  Sc6  1  0.10150570  0.75208495  0.37739301  1
  Sc  Sc7  1  0.45537799  0.74626224  0.37184067  1
  Sc  Sc8  1  0.21986788  0.86929482  0.63110723  1
  Sc  Sc9  1  0.45080654  0.75104451  0.87691946  1
  Al  Al10  1  0.21816997  0.21229569  0.14007005  1
  Al  Al11  1  0.77563366  0.09995935  0.88525439  1
  Al  Al12  1  0.87411079  0.20990783  0.63652849  1
  Al  Al13  1  0.56070549  0.21166063  0.13798064  1
  Al  Al14  1  0.77231421  0.09912190  0.38628963  1
  Al  Al15  1  0.87874146  0.20916609  0.13629432  1
  Al  Al16  1  0.56092297  0.20804078  0.63399393  1
  Al  Al17  1  0.11351806  0.43193992  0.37965078  1
  Al  Al18  1  0.22763624  0.53193596  0.13118372  1
  Al  Al19  1  0.77754926  0.42709999  0.88593760  1
  Al  Al20  1  0.44753497  0.42352991  0.38504801  1
  Al  Al21  1  0.55904699  0.52946613  0.13441397  1
  Al  Al22  1  0.10460075  0.43743701  0.88976254  1
  Al  Al23  1  0.22224177  0.54090388  0.63972404  1
  Al  Al24  1  0.77218699  0.42081893  0.38216640  1
  Al  Al25  1  0.89221234  0.53015117  0.13382480  1
  Al  Al26  1  0.44786350  0.42618771  0.88274125  1
  Al  Al27  1  0.55914522  0.52830063  0.63633879  1
  Al  Al28  1  0.22259697  0.86828707  0.13850287  1
  Al  Al29  1  0.78140383  0.76289873  0.82937047  1
  Al  Al30  1  0.88681075  0.88269100  0.64368860  1
  Al  Al31  1  0.56683399  0.86467278  0.08164570  1
  Al  Al32  1  0.10721038  0.75816318  0.89207179  1
  Al  Al33  1  0.78075494  0.75891750  0.31599957  1
  Al  Al34  1  0.88570798  0.87954537  0.12991570  1
  Al  Al35  1  0.57103781  0.87023300  0.57262751  1
  N  N36  1  0.21054212  0.22489580  0.32726063  1
  N  N37  1  0.10769412  0.09605785  0.10251534  1
  N  N38  1  0.86884089  0.21708422  0.82559571  1
  N  N39  1  0.77720236  0.09455154  0.57732220  1
  N  N40  1  0.56685263  0.21784845  0.32418256  1
  N  N41  1  0.44657971  0.09603025  0.10763270  1
  N  N42  1  0.21122515  0.22726038  0.83505505  1
  N  N43  1  0.08707402  0.10804046  0.58532928  1
  N  N44  1  0.86380933  0.21492689  0.32044197  1
  N  N45  1  0.77546257  0.09743140  0.07396639  1
  N  N46  1  0.56624558  0.21629344  0.82224241  1
  N  N47  1  0.46258083  0.09124349  0.58670878  1
  N  N48  1  0.23821925  0.51620806  0.31707827  1
  N  N49  1  0.10997923  0.42918141  0.07975339  1
  N  N50  1  0.88956840  0.53651023  0.83684327  1
  N  N51  1  0.76466233  0.41656306  0.56937303  1
  N  N52  1  0.56541499  0.51417117  0.31995983  1
  N  N53  1  0.44593938  0.42610322  0.07218716  1
  N  N54  1  0.22229338  0.53932662  0.83276790  1
  N  N55  1  0.11909952  0.44400936  0.56534794  1
  N  N56  1  0.89136273  0.53147910  0.33401826  1
  N  N57  1  0.77839240  0.42632400  0.07690613  1
  N  N58  1  0.56748724  0.51722691  0.82490879  1
  N  N59  1  0.44047147  0.43138844  0.57761336  1
  N  N60  1  0.22028884  0.86696378  0.32748107  1
  N  N61  1  0.11032844  0.75803872  0.08560774  1
  N  N62  1  0.89225143  0.87892017  0.83866240  1
  N  N63  1  0.76959308  0.78220047  0.63861685  1
  N  N64  1  0.58414119  0.85603696  0.38259004  1
  N  N65  1  0.44708775  0.75576439  0.10087437  1
  N  N66  1  0.21197549  0.86443328  0.83909093  1
  N  N67  1  0.09726207  0.75433320  0.58646945  1
  N  N68  1  0.86848508  0.89122514  0.32007190  1
  N  N69  1  0.78214652  0.75518824  0.12490579  1
  N  N70  1  0.57920992  0.86389469  0.89322622  1
  N  N71  1  0.46674056  0.74887822  0.59708675  1
