# generated using pymatgen
data_Sc5Al13N18
_symmetry_space_group_name_H-M   'P 1'
_cell_length_a   9.86370494
_cell_length_b   9.82858689
_cell_length_c   10.34759102
_cell_angle_alpha   89.18351346
_cell_angle_beta   89.81034945
_cell_angle_gamma   59.90040063
_symmetry_Int_Tables_number   1
_chemical_formula_structural   Sc5Al13N18
_chemical_formula_sum   'Sc10 Al26 N36'
_cell_volume   867.79256656
_cell_formula_units_Z   2
loop_
 _symmetry_equiv_pos_site_id
 _symmetry_equiv_pos_as_xyz
  1  'x, y, z'
loop_
 _atom_site_type_symbol
 _atom_site_label
 _atom_site_symmetry_multiplicity
 _atom_site_fract_x
 _atom_site_fract_y
 _atom_site_fract_z
 _atom_site_occupancy
  Sc  Sc0  1  0.10245786  0.09928075  0.30379805  1
  Sc  Sc1  1  0.45026301  0.10046711  0.31640022  1
  Sc  Sc2  1  0.09776641  0.10459245  0.82975925  1
  Sc  Sc3  1  0.21952996  0.21211964  0.56559727  1
  Sc  Sc4  1  0.45267577  0.09708778  0.81846084  1
  Sc  Sc5  1  0.88237457  0.54601909  0.58537817  1
  Sc  Sc6  1  0.10463252  0.75769739  0.32668893  1
  Sc  Sc7  1  0.45130743  0.75874000  0.31709182  1
  Sc  Sc8  1  0.22376331  0.87058976  0.58057927  1
  Sc  Sc9  1  0.45614417  0.75304755  0.83556513  1
  Al  Al10  1  0.22075883  0.21175404  0.05734292  1
  Al  Al11  1  0.77581349  0.09763822  0.81304646  1
  Al  Al12  1  0.87895303  0.20107219  0.55980578  1
  Al  Al13  1  0.56346356  0.19963635  0.05992222  1
  Al  Al14  1  0.77292642  0.09743397  0.31359330  1
  Al  Al15  1  0.88205292  0.20102809  0.06138506  1
  Al  Al16  1  0.56468061  0.20332425  0.56229573  1
  Al  Al17  1  0.10598966  0.42668448  0.30567135  1
  Al  Al18  1  0.23118783  0.53199250  0.12464100  1
  Al  Al19  1  0.77308545  0.43062610  0.88229789  1
  Al  Al20  1  0.44581639  0.43029127  0.38089087  1
  Al  Al21  1  0.56074630  0.52583083  0.12596518  1
  Al  Al22  1  0.10784359  0.43547038  0.81784020  1
  Al  Al23  1  0.23164027  0.53821515  0.63769614  1
  Al  Al24  1  0.77012399  0.42706798  0.37708132  1
  Al  Al25  1  0.88679417  0.54223087  0.08263582  1
  Al  Al26  1  0.44496041  0.43105313  0.88293886  1
  Al  Al27  1  0.56108269  0.52646054  0.63272640  1
  Al  Al28  1  0.21966836  0.86476274  0.05481024  1
  Al  Al29  1  0.78347619  0.76493049  0.81634004  1
  Al  Al30  1  0.87762367  0.88176275  0.56734713  1
  Al  Al31  1  0.56313770  0.87073218  0.06346942  1
  Al  Al32  1  0.10071839  0.76258080  0.81698903  1
  Al  Al33  1  0.78060565  0.76096188  0.31522021  1
  Al  Al34  1  0.88967937  0.87120831  0.06221728  1
  Al  Al35  1  0.56606098  0.87185213  0.56497754  1
  N  N36  1  0.21189214  0.22010857  0.36305987  1
  N  N37  1  0.10974246  0.09269542  0.09256706  1
  N  N38  1  0.86615276  0.21049860  0.87894050  1
  N  N39  1  0.77528431  0.09681170  0.62696026  1
  N  N40  1  0.56950022  0.21072951  0.37786647  1
  N  N41  1  0.44517660  0.09539912  0.10540734  1
  N  N42  1  0.21600154  0.22688372  0.87509181  1
  N  N43  1  0.08505519  0.11036528  0.62306767  1
  N  N44  1  0.87531635  0.20373257  0.37050871  1
  N  N45  1  0.77761742  0.09065509  0.12537014  1
  N  N46  1  0.56984343  0.20846774  0.87600457  1
  N  N47  1  0.46143291  0.08995169  0.60910962  1
  N  N48  1  0.24156216  0.51184307  0.31372660  1
  N  N49  1  0.10637617  0.42741857  0.11558516  1
  N  N50  1  0.88713311  0.54141164  0.85316778  1
  N  N51  1  0.76063914  0.42205831  0.56394618  1
  N  N52  1  0.56589301  0.51463800  0.30987870  1
  N  N53  1  0.44424281  0.42980217  0.06927022  1
  N  N54  1  0.23065562  0.53813009  0.82910909  1
  N  N55  1  0.11761914  0.43670822  0.63112049  1
  N  N56  1  0.88944527  0.53843361  0.35622400  1
  N  N57  1  0.77461158  0.43110939  0.07302321  1
  N  N58  1  0.56967523  0.51054182  0.81768602  1
  N  N59  1  0.43824959  0.43841778  0.57050575  1
  N  N60  1  0.22276695  0.87165837  0.37750049  1
  N  N61  1  0.10818647  0.76175828  0.11421912  1
  N  N62  1  0.88808585  0.87466898  0.87555851  1
  N  N63  1  0.76929818  0.78505988  0.63287060  1
  N  N64  1  0.57644874  0.86260729  0.37995541  1
  N  N65  1  0.44489778  0.76014004  0.09940488  1
  N  N66  1  0.21346341  0.85970695  0.86871203  1
  N  N67  1  0.09269178  0.76038629  0.62381897  1
  N  N68  1  0.86678485  0.88418454  0.38003988  1
  N  N69  1  0.77985549  0.76290786  0.12630703  1
  N  N70  1  0.58163882  0.86359388  0.88422927  1
  N  N71  1  0.46888147  0.75390782  0.62107498  1
