# generated using pymatgen
data_Sc5Al13N18
_symmetry_space_group_name_H-M   'P 1'
_cell_length_a   9.91558481
_cell_length_b   9.89759440
_cell_length_c   10.03671229
_cell_angle_alpha   89.73758283
_cell_angle_beta   89.60488255
_cell_angle_gamma   60.06986990
_symmetry_Int_Tables_number   1
_chemical_formula_structural   Sc5Al13N18
_chemical_formula_sum   'Sc10 Al26 N36'
_cell_volume   853.62028667
_cell_formula_units_Z   2
loop_
 _symmetry_equiv_pos_site_id
 _symmetry_equiv_pos_as_xyz
  1  'x, y, z'
loop_
 _atom_site_type_symbol
 _atom_site_label
 _atom_site_symmetry_multiplicity
 _atom_site_fract_x
 _atom_site_fract_y
 _atom_site_fract_z
 _atom_site_occupancy
  Sc  Sc0  1  0.09481247  0.10383480  0.37800584  1
  Sc  Sc1  1  0.45032304  0.09875374  0.36732665  1
  Sc  Sc2  1  0.10079965  0.10124568  0.89194810  1
  Sc  Sc3  1  0.22282615  0.21279803  0.63049065  1
  Sc  Sc4  1  0.44745762  0.10342258  0.88796424  1
  Sc  Sc5  1  0.88409302  0.54088447  0.62690949  1
  Sc  Sc6  1  0.10074353  0.75199898  0.38283729  1
  Sc  Sc7  1  0.45431043  0.74713438  0.37403113  1
  Sc  Sc8  1  0.22041799  0.86880285  0.63475220  1
  Sc  Sc9  1  0.45077623  0.75158883  0.88210538  1
  Al  Al10  1  0.21753366  0.21310469  0.14650812  1
  Al  Al11  1  0.77552753  0.09973969  0.89164291  1
  Al  Al12  1  0.87375848  0.20982657  0.64320638  1
  Al  Al13  1  0.56076229  0.21209754  0.14382983  1
  Al  Al14  1  0.77203169  0.09908306  0.39309719  1
  Al  Al15  1  0.87812879  0.20966824  0.14242168  1
  Al  Al16  1  0.56165414  0.20725737  0.64023965  1
  Al  Al17  1  0.11258658  0.43335966  0.38648552  1
  Al  Al18  1  0.22848836  0.53165165  0.13758698  1
  Al  Al19  1  0.77722039  0.42685019  0.89335374  1
  Al  Al20  1  0.44774835  0.42355098  0.39211692  1
  Al  Al21  1  0.55926462  0.52902280  0.14077283  1
  Al  Al22  1  0.10641083  0.43631660  0.89666995  1
  Al  Al23  1  0.22274179  0.54074858  0.64647250  1
  Al  Al24  1  0.77192128  0.42158699  0.38893847  1
  Al  Al25  1  0.89229113  0.53100461  0.13923113  1
  Al  Al26  1  0.44844585  0.42596497  0.88894638  1
  Al  Al27  1  0.55957002  0.52852305  0.64209270  1
  Al  Al28  1  0.22147914  0.86906386  0.14475354  1
  Al  Al29  1  0.78401199  0.76077484  0.84717313  1
  Al  Al30  1  0.88659262  0.88042618  0.65021849  1
  Al  Al31  1  0.56514117  0.86625469  0.09137951  1
  Al  Al32  1  0.10823657  0.75768397  0.89822491  1
  Al  Al33  1  0.78140931  0.75908646  0.32477160  1
  Al  Al34  1  0.88558217  0.87987068  0.13553944  1
  Al  Al35  1  0.57178348  0.86919795  0.57751468  1
  N  N36  1  0.20942582  0.22577824  0.33644355  1
  N  N37  1  0.10722430  0.09665706  0.10957644  1
  N  N38  1  0.86844770  0.21712435  0.83392750  1
  N  N39  1  0.77777106  0.09355943  0.58559190  1
  N  N40  1  0.56707177  0.21796918  0.33191923  1
  N  N41  1  0.44541189  0.09757676  0.11468113  1
  N  N42  1  0.21149284  0.22722362  0.84133445  1
  N  N43  1  0.08654753  0.10810436  0.59384526  1
  N  N44  1  0.86298017  0.21547220  0.32827270  1
  N  N45  1  0.77533577  0.09767181  0.08149506  1
  N  N46  1  0.56664803  0.21592223  0.83020734  1
  N  N47  1  0.46346704  0.08985360  0.59461151  1
  N  N48  1  0.23895466  0.51587454  0.32506436  1
  N  N49  1  0.11059022  0.42921405  0.08792079  1
  N  N50  1  0.89046911  0.53629788  0.84787641  1
  N  N51  1  0.76534263  0.41655587  0.57767364  1
  N  N52  1  0.56557516  0.51392765  0.32802795  1
  N  N53  1  0.44628526  0.42628309  0.07967553  1
  N  N54  1  0.22314925  0.53889512  0.84086905  1
  N  N55  1  0.11860765  0.44468966  0.57390639  1
  N  N56  1  0.89087315  0.53287812  0.34060559  1
  N  N57  1  0.77810543  0.42673440  0.08516448  1
  N  N58  1  0.56785933  0.51748739  0.83276469  1
  N  N59  1  0.44101026  0.43080429  0.58580465  1
  N  N60  1  0.21859497  0.86793799  0.33641891  1
  N  N61  1  0.11052464  0.75806580  0.09370074  1
  N  N62  1  0.89248573  0.87751880  0.84732040  1
  N  N63  1  0.77130997  0.78017352  0.64033912  1
  N  N64  1  0.58133338  0.85814605  0.38291954  1
  N  N65  1  0.44638543  0.75614322  0.10990421  1
  N  N66  1  0.21245198  0.86394712  0.84568300  1
  N  N67  1  0.09767747  0.75379080  0.59409641  1
  N  N68  1  0.86777645  0.89128551  0.32729855  1
  N  N69  1  0.78341724  0.75541693  0.12672639  1
  N  N70  1  0.57838594  0.86381897  0.90009004  1
  N  N71  1  0.46740976  0.74867842  0.60271695  1
