# generated using pymatgen
data_Sc5Al13N18
_symmetry_space_group_name_H-M   'P 1'
_cell_length_a   9.88275546
_cell_length_b   9.83933927
_cell_length_c   10.19416515
_cell_angle_alpha   89.74644631
_cell_angle_beta   89.99896534
_cell_angle_gamma   60.12577403
_symmetry_Int_Tables_number   1
_chemical_formula_structural   Sc5Al13N18
_chemical_formula_sum   'Sc10 Al26 N36'
_cell_volume   859.54708487
_cell_formula_units_Z   2
loop_
 _symmetry_equiv_pos_site_id
 _symmetry_equiv_pos_as_xyz
  1  'x, y, z'
loop_
 _atom_site_type_symbol
 _atom_site_label
 _atom_site_symmetry_multiplicity
 _atom_site_fract_x
 _atom_site_fract_y
 _atom_site_fract_z
 _atom_site_occupancy
  Sc  Sc0  1  0.09934654  0.10085343  0.30514345  1
  Sc  Sc1  1  0.44822416  0.09742241  0.31633652  1
  Sc  Sc2  1  0.09861266  0.10233928  0.82927220  1
  Sc  Sc3  1  0.21816670  0.21416423  0.56704484  1
  Sc  Sc4  1  0.45373487  0.09546392  0.81622740  1
  Sc  Sc5  1  0.88385551  0.54512014  0.56727653  1
  Sc  Sc6  1  0.10417932  0.75182029  0.35106510  1
  Sc  Sc7  1  0.45265278  0.75325993  0.31398217  1
  Sc  Sc8  1  0.22047941  0.86852767  0.57934756  1
  Sc  Sc9  1  0.45919431  0.75151879  0.82040289  1
  Al  Al10  1  0.22194802  0.21185648  0.05489846  1
  Al  Al11  1  0.77858803  0.09504604  0.81052518  1
  Al  Al12  1  0.87548298  0.20872108  0.56164397  1
  Al  Al13  1  0.56206246  0.20389433  0.05921042  1
  Al  Al14  1  0.77111987  0.10109863  0.31230249  1
  Al  Al15  1  0.87760857  0.21053023  0.05917688  1
  Al  Al16  1  0.56139314  0.20775497  0.56333021  1
  Al  Al17  1  0.10370574  0.42723878  0.29805951  1
  Al  Al18  1  0.23081548  0.53156219  0.11920689  1
  Al  Al19  1  0.77490284  0.42323583  0.81105161  1
  Al  Al20  1  0.44829871  0.42357459  0.34923187  1
  Al  Al21  1  0.56298095  0.53284785  0.06003947  1
  Al  Al22  1  0.10433663  0.43628592  0.81998384  1
  Al  Al23  1  0.22438659  0.54450059  0.63695624  1
  Al  Al24  1  0.77710051  0.42593522  0.30932114  1
  Al  Al25  1  0.88628221  0.53986267  0.05861092  1
  Al  Al26  1  0.44707159  0.42721926  0.86058168  1
  Al  Al27  1  0.56020336  0.52983618  0.56319688  1
  Al  Al28  1  0.22688629  0.86955473  0.05618674  1
  Al  Al29  1  0.78556495  0.76321019  0.81443285  1
  Al  Al30  1  0.87578578  0.88067686  0.56015948  1
  Al  Al31  1  0.56364101  0.87056258  0.05949289  1
  Al  Al32  1  0.10848158  0.75297036  0.88417029  1
  Al  Al33  1  0.77921740  0.76075472  0.30639203  1
  Al  Al34  1  0.88095866  0.87767624  0.06565662  1
  Al  Al35  1  0.56779305  0.86935089  0.55969561  1
  N  N36  1  0.20895892  0.22362204  0.36022243  1
  N  N37  1  0.10910773  0.09492676  0.08957249  1
  N  N38  1  0.86442550  0.21617430  0.87582148  1
  N  N39  1  0.77662590  0.09439309  0.62190894  1
  N  N40  1  0.56657449  0.21173693  0.37417454  1
  N  N41  1  0.44595580  0.09517677  0.10130629  1
  N  N42  1  0.21701593  0.22563937  0.86930695  1
  N  N43  1  0.08538376  0.10867670  0.61878806  1
  N  N44  1  0.86828277  0.21551843  0.37199404  1
  N  N45  1  0.77708876  0.09510440  0.12255577  1
  N  N46  1  0.57121745  0.20876222  0.87208881  1
  N  N47  1  0.46181646  0.08712041  0.60334493  1
  N  N48  1  0.23825179  0.51289062  0.30843230  1
  N  N49  1  0.10481532  0.42845263  0.10733110  1
  N  N50  1  0.88508393  0.54053367  0.86653712  1
  N  N51  1  0.76856200  0.41793059  0.62464036  1
  N  N52  1  0.56870531  0.51939634  0.37173373  1
  N  N53  1  0.44748262  0.42594909  0.08367562  1
  N  N54  1  0.22456268  0.54272439  0.83373337  1
  N  N55  1  0.11107232  0.43993440  0.63375267  1
  N  N56  1  0.88965206  0.53975121  0.35444209  1
  N  N57  1  0.77875934  0.42745397  0.11969079  1
  N  N58  1  0.57080235  0.52051002  0.87436271  1
  N  N59  1  0.44116525  0.42975273  0.59952414  1
  N  N60  1  0.22293071  0.87378494  0.36904504  1
  N  N61  1  0.11110280  0.75792233  0.08617839  1
  N  N62  1  0.88676649  0.87619712  0.87491381  1
  N  N63  1  0.77153696  0.78031732  0.62889533  1
  N  N64  1  0.57703463  0.86015870  0.37283055  1
  N  N65  1  0.44822546  0.75955882  0.09837310  1
  N  N66  1  0.21917191  0.85899403  0.86362875  1
  N  N67  1  0.09705246  0.74782381  0.57020163  1
  N  N68  1  0.85955779  0.88939874  0.36828318  1
  N  N69  1  0.78002078  0.76022382  0.11820579  1
  N  N70  1  0.58137319  0.86302263  0.87739076  1
  N  N71  1  0.47012225  0.74835372  0.60843976  1
