# generated using pymatgen
data_Sc5Al13N18
_symmetry_space_group_name_H-M   'P 1'
_cell_length_a   9.89032941
_cell_length_b   9.84333023
_cell_length_c   10.15364493
_cell_angle_alpha   89.77452928
_cell_angle_beta   89.95356819
_cell_angle_gamma   60.05526228
_symmetry_Int_Tables_number   1
_chemical_formula_structural   Sc5Al13N18
_chemical_formula_sum   'Sc10 Al26 N36'
_cell_volume   856.53130362
_cell_formula_units_Z   2
loop_
 _symmetry_equiv_pos_site_id
 _symmetry_equiv_pos_as_xyz
  1  'x, y, z'
loop_
 _atom_site_type_symbol
 _atom_site_label
 _atom_site_symmetry_multiplicity
 _atom_site_fract_x
 _atom_site_fract_y
 _atom_site_fract_z
 _atom_site_occupancy
  Sc  Sc0  1  0.09981073  0.10001425  0.30552304  1
  Sc  Sc1  1  0.44817816  0.09819501  0.31823613  1
  Sc  Sc2  1  0.09799321  0.10366950  0.83118387  1
  Sc  Sc3  1  0.21765015  0.21375348  0.56787547  1
  Sc  Sc4  1  0.45409434  0.09617763  0.81792090  1
  Sc  Sc5  1  0.88183718  0.54483671  0.56880634  1
  Sc  Sc6  1  0.10540643  0.75291143  0.34815414  1
  Sc  Sc7  1  0.45299532  0.75238242  0.31408837  1
  Sc  Sc8  1  0.22169367  0.86980132  0.58197506  1
  Sc  Sc9  1  0.45997384  0.75057621  0.82408628  1
  Al  Al10  1  0.22246997  0.21149825  0.05607444  1
  Al  Al11  1  0.77723102  0.09643208  0.81207431  1
  Al  Al12  1  0.87508700  0.20857063  0.56263413  1
  Al  Al13  1  0.56161252  0.20728555  0.05980466  1
  Al  Al14  1  0.77122783  0.10013387  0.31377934  1
  Al  Al15  1  0.87761355  0.21010997  0.06081898  1
  Al  Al16  1  0.56061195  0.20964327  0.56159533  1
  Al  Al17  1  0.10359055  0.42794916  0.30013000  1
  Al  Al18  1  0.22761746  0.53418324  0.11814812  1
  Al  Al19  1  0.77396145  0.42329626  0.81283546  1
  Al  Al20  1  0.45566655  0.41946298  0.30958636  1
  Al  Al21  1  0.56231101  0.52989214  0.06023975  1
  Al  Al22  1  0.10482619  0.43624078  0.82171217  1
  Al  Al23  1  0.22080049  0.54492362  0.63495471  1
  Al  Al24  1  0.77633335  0.42587307  0.31085949  1
  Al  Al25  1  0.88594944  0.53984442  0.06005632  1
  Al  Al26  1  0.45449759  0.42357437  0.81674592  1
  Al  Al27  1  0.55930433  0.52898365  0.56192464  1
  Al  Al28  1  0.22488945  0.86773643  0.05539505  1
  Al  Al29  1  0.78486108  0.76298799  0.81531064  1
  Al  Al30  1  0.87521656  0.88143634  0.56277821  1
  Al  Al31  1  0.56397522  0.87103919  0.06115118  1
  Al  Al32  1  0.10707814  0.75484891  0.86643040  1
  Al  Al33  1  0.77995535  0.76043170  0.30775679  1
  Al  Al34  1  0.88443432  0.87595356  0.06564345  1
  Al  Al35  1  0.56747886  0.86932945  0.56056686  1
  N  N36  1  0.20843771  0.22313536  0.36039860  1
  N  N37  1  0.10949682  0.09422107  0.08898263  1
  N  N38  1  0.86384137  0.21631951  0.87689450  1
  N  N39  1  0.77479575  0.09579322  0.62292852  1
  N  N40  1  0.56487163  0.21565424  0.37455698  1
  N  N41  1  0.44628720  0.09640101  0.10179897  1
  N  N42  1  0.21739003  0.22539145  0.86952018  1
  N  N43  1  0.08435840  0.10999151  0.62019726  1
  N  N44  1  0.86856377  0.21475426  0.37245826  1
  N  N45  1  0.77764550  0.09401723  0.12294379  1
  N  N46  1  0.56873111  0.21345460  0.87386866  1
  N  N47  1  0.46170724  0.08823705  0.60318053  1
  N  N48  1  0.23574106  0.51388870  0.31342233  1
  N  N49  1  0.10503337  0.42853297  0.10770247  1
  N  N50  1  0.88440644  0.54028410  0.86697510  1
  N  N51  1  0.76696723  0.41774264  0.62559056  1
  N  N52  1  0.56632134  0.51782270  0.37274499  1
  N  N53  1  0.45525397  0.42261418  0.11665640  1
  N  N54  1  0.22622792  0.54012648  0.83668125  1
  N  N55  1  0.11001865  0.44005923  0.63366324  1
  N  N56  1  0.88860398  0.53933953  0.35563790  1
  N  N57  1  0.77856857  0.42755378  0.12028641  1
  N  N58  1  0.56806542  0.51751147  0.87575448  1
  N  N59  1  0.44593308  0.42746052  0.62406658  1
  N  N60  1  0.22417028  0.87377564  0.37174179  1
  N  N61  1  0.11058290  0.75992904  0.09386406  1
  N  N62  1  0.88668072  0.87627278  0.87405681  1
  N  N63  1  0.77102738  0.78032209  0.62953259  1
  N  N64  1  0.57685568  0.86001381  0.37282072  1
  N  N65  1  0.44769185  0.75881940  0.09669591  1
  N  N66  1  0.21845782  0.85949450  0.86172366  1
  N  N67  1  0.09576235  0.75213952  0.58190182  1
  N  N68  1  0.86073734  0.88833637  0.37119202  1
  N  N69  1  0.78103793  0.76024076  0.11873931  1
  N  N70  1  0.58123919  0.86367461  0.87835999  1
  N  N71  1  0.47147376  0.74704380  0.61057843  1
