# generated using pymatgen
data_Sc5Al13N18
_symmetry_space_group_name_H-M   'P 1'
_cell_length_a   9.88891414
_cell_length_b   9.84457218
_cell_length_c   10.14610107
_cell_angle_alpha   89.77949469
_cell_angle_beta   89.96281101
_cell_angle_gamma   60.06166555
_symmetry_Int_Tables_number   1
_chemical_formula_structural   Sc5Al13N18
_chemical_formula_sum   'Sc10 Al26 N36'
_cell_volume   855.93564795
_cell_formula_units_Z   2
loop_
 _symmetry_equiv_pos_site_id
 _symmetry_equiv_pos_as_xyz
  1  'x, y, z'
loop_
 _atom_site_type_symbol
 _atom_site_label
 _atom_site_symmetry_multiplicity
 _atom_site_fract_x
 _atom_site_fract_y
 _atom_site_fract_z
 _atom_site_occupancy
  Sc  Sc0  1  0.09992333  0.09970146  0.30517382  1
  Sc  Sc1  1  0.44814203  0.09819164  0.31816892  1
  Sc  Sc2  1  0.09799417  0.10383850  0.83167157  1
  Sc  Sc3  1  0.21766009  0.21350602  0.56780403  1
  Sc  Sc4  1  0.45407474  0.09618078  0.81804335  1
  Sc  Sc5  1  0.88158718  0.54478883  0.56883432  1
  Sc  Sc6  1  0.10538978  0.75425014  0.34090973  1
  Sc  Sc7  1  0.45293090  0.75235686  0.31379710  1
  Sc  Sc8  1  0.22231172  0.87043494  0.58147456  1
  Sc  Sc9  1  0.45967445  0.75065706  0.82462673  1
  Al  Al10  1  0.22245766  0.21141523  0.05620240  1
  Al  Al11  1  0.77681218  0.09696327  0.81221601  1
  Al  Al12  1  0.87513522  0.20854733  0.56266582  1
  Al  Al13  1  0.56173331  0.20709665  0.06006876  1
  Al  Al14  1  0.77161698  0.09966188  0.31381922  1
  Al  Al15  1  0.87759598  0.21000966  0.06091809  1
  Al  Al16  1  0.56086127  0.20935323  0.56153583  1
  Al  Al17  1  0.10374963  0.42792544  0.30035788  1
  Al  Al18  1  0.22699738  0.53523778  0.11714500  1
  Al  Al19  1  0.77394283  0.42334626  0.81289067  1
  Al  Al20  1  0.45557293  0.41937654  0.30979919  1
  Al  Al21  1  0.56213909  0.52998006  0.06035331  1
  Al  Al22  1  0.10495963  0.43635103  0.82194798  1
  Al  Al23  1  0.22244834  0.54232258  0.63376010  1
  Al  Al24  1  0.77639593  0.42580207  0.31081264  1
  Al  Al25  1  0.88599707  0.53996222  0.06018710  1
  Al  Al26  1  0.45422353  0.42370689  0.81725621  1
  Al  Al27  1  0.55942882  0.52901886  0.56193861  1
  Al  Al28  1  0.22298695  0.86617267  0.05485082  1
  Al  Al29  1  0.78454720  0.76286435  0.81547982  1
  Al  Al30  1  0.87516531  0.88162448  0.56363330  1
  Al  Al31  1  0.56402610  0.87099074  0.06130407  1
  Al  Al32  1  0.10456352  0.75782768  0.84336681  1
  Al  Al33  1  0.78029673  0.76031835  0.30780865  1
  Al  Al34  1  0.88738103  0.87446209  0.06496520  1
  Al  Al35  1  0.56752904  0.86927333  0.56055238  1
  N  N36  1  0.20836900  0.22284793  0.36022941  1
  N  N37  1  0.10948638  0.09402137  0.08860112  1
  N  N38  1  0.86374629  0.21644249  0.87683693  1
  N  N39  1  0.77465649  0.09601035  0.62305786  1
  N  N40  1  0.56522293  0.21530666  0.37443751  1
  N  N41  1  0.44627169  0.09635142  0.10176732  1
  N  N42  1  0.21741645  0.22549653  0.86945687  1
  N  N43  1  0.08437178  0.11007322  0.62041674  1
  N  N44  1  0.86875163  0.21460272  0.37238678  1
  N  N45  1  0.77790555  0.09353554  0.12284272  1
  N  N46  1  0.56859886  0.21353610  0.87398440  1
  N  N47  1  0.46173121  0.08818102  0.60310395  1
  N  N48  1  0.23585050  0.51362036  0.31548510  1
  N  N49  1  0.10518604  0.42863791  0.10786939  1
  N  N50  1  0.88443554  0.54023738  0.86688555  1
  N  N51  1  0.76699619  0.41765606  0.62554468  1
  N  N52  1  0.56634112  0.51787505  0.37270139  1
  N  N53  1  0.45486510  0.42275605  0.11678972  1
  N  N54  1  0.22649492  0.53969475  0.83749679  1
  N  N55  1  0.10997599  0.43983278  0.63331595  1
  N  N56  1  0.88859324  0.53925481  0.35566031  1
  N  N57  1  0.77853788  0.42757062  0.12022125  1
  N  N58  1  0.56807046  0.51751050  0.87569970  1
  N  N59  1  0.44641002  0.42706017  0.62393770  1
  N  N60  1  0.22414186  0.87351508  0.37275726  1
  N  N61  1  0.10972925  0.76171548  0.10455962  1
  N  N62  1  0.88722776  0.87607123  0.87358577  1
  N  N63  1  0.77093533  0.78021648  0.62955666  1
  N  N64  1  0.57696593  0.85995959  0.37260853  1
  N  N65  1  0.44718097  0.75887825  0.09635197  1
  N  N66  1  0.21770153  0.85931480  0.86188033  1
  N  N67  1  0.09465417  0.75452072  0.59554759  1
  N  N68  1  0.86199340  0.88746944  0.37276755  1
  N  N69  1  0.78139115  0.76035011  0.11857776  1
  N  N70  1  0.58111407  0.86371776  0.87836980  1
  N  N71  1  0.47165642  0.74697133  0.61081509  1
