# generated using pymatgen
data_Sc5Al13N18
_symmetry_space_group_name_H-M   'P 1'
_cell_length_a   9.95229119
_cell_length_b   9.92168538
_cell_length_c   10.01587019
_cell_angle_alpha   89.63516778
_cell_angle_beta   89.86923360
_cell_angle_gamma   60.05536521
_symmetry_Int_Tables_number   1
_chemical_formula_structural   Sc5Al13N18
_chemical_formula_sum   'Sc10 Al26 N36'
_cell_volume   856.96054850
_cell_formula_units_Z   2
loop_
 _symmetry_equiv_pos_site_id
 _symmetry_equiv_pos_as_xyz
  1  'x, y, z'
loop_
 _atom_site_type_symbol
 _atom_site_label
 _atom_site_symmetry_multiplicity
 _atom_site_fract_x
 _atom_site_fract_y
 _atom_site_fract_z
 _atom_site_occupancy
  Sc  Sc0  1  0.09968367  0.09738757  0.33788253  1
  Sc  Sc1  1  0.45633314  0.09658954  0.33803991  1
  Sc  Sc2  1  0.10156308  0.10517974  0.85765811  1
  Sc  Sc3  1  0.21945276  0.21598882  0.60738980  1
  Sc  Sc4  1  0.45518534  0.09238874  0.83073744  1
  Sc  Sc5  1  0.88202110  0.54147036  0.61252730  1
  Sc  Sc6  1  0.10507285  0.75693053  0.33917857  1
  Sc  Sc7  1  0.45055569  0.75729781  0.33087341  1
  Sc  Sc8  1  0.22470692  0.86768300  0.59964967  1
  Sc  Sc9  1  0.45948179  0.74888827  0.84878714  1
  Al  Al10  1  0.22128662  0.21179244  0.12957985  1
  Al  Al11  1  0.77560055  0.09401424  0.83011619  1
  Al  Al12  1  0.87199969  0.21117931  0.61889824  1
  Al  Al13  1  0.55969050  0.20265255  0.06787260  1
  Al  Al14  1  0.77049394  0.09845896  0.31287644  1
  Al  Al15  1  0.88005082  0.20907408  0.10557822  1
  Al  Al16  1  0.56533426  0.20592693  0.57252060  1
  Al  Al17  1  0.11211485  0.43509449  0.37546477  1
  Al  Al18  1  0.22848739  0.53178509  0.12876421  1
  Al  Al19  1  0.77632835  0.43053279  0.89045874  1
  Al  Al20  1  0.44546561  0.43088455  0.38459102  1
  Al  Al21  1  0.55807057  0.52869991  0.12923400  1
  Al  Al22  1  0.10630710  0.43573522  0.88589994  1
  Al  Al23  1  0.22379405  0.53660015  0.63717032  1
  Al  Al24  1  0.77057393  0.42264861  0.37429465  1
  Al  Al25  1  0.88997093  0.53634373  0.13630155  1
  Al  Al26  1  0.44372875  0.42980483  0.88278410  1
  Al  Al27  1  0.55957455  0.52726230  0.63546890  1
  Al  Al28  1  0.22006768  0.86400126  0.06495497  1
  Al  Al29  1  0.78576406  0.76138634  0.82443218  1
  Al  Al30  1  0.87692762  0.88316853  0.57498038  1
  Al  Al31  1  0.56618039  0.86931753  0.07459269  1
  Al  Al32  1  0.10023336  0.75901285  0.82368622  1
  Al  Al33  1  0.78091610  0.76507199  0.32267833  1
  Al  Al34  1  0.88956641  0.86960297  0.06981703  1
  Al  Al35  1  0.56913356  0.86792021  0.57247534  1
  N  N36  1  0.21247648  0.22428170  0.33124093  1
  N  N37  1  0.11473418  0.09158543  0.09914681  1
  N  N38  1  0.86667154  0.21448920  0.87136322  1
  N  N39  1  0.77352855  0.09556886  0.63634210  1
  N  N40  1  0.57202921  0.21433531  0.38208363  1
  N  N41  1  0.44663379  0.09483969  0.11278633  1
  N  N42  1  0.21496773  0.23084747  0.82529851  1
  N  N43  1  0.08307099  0.11039464  0.61280708  1
  N  N44  1  0.86681797  0.21867280  0.31331982  1
  N  N45  1  0.77313186  0.08724364  0.12052889  1
  N  N46  1  0.56656430  0.21044834  0.87786247  1
  N  N47  1  0.46480817  0.08732310  0.60599958  1
  N  N48  1  0.24071040  0.51338215  0.31830905  1
  N  N49  1  0.10833628  0.43071533  0.07946036  1
  N  N50  1  0.89011127  0.53515373  0.83377708  1
  N  N51  1  0.76189490  0.41659667  0.56536126  1
  N  N52  1  0.56221629  0.51839750  0.31862329  1
  N  N53  1  0.44230437  0.43124779  0.07509859  1
  N  N54  1  0.22426557  0.53446367  0.83167350  1
  N  N55  1  0.11503062  0.44943049  0.56205959  1
  N  N56  1  0.88975348  0.53582627  0.33633473  1
  N  N57  1  0.77434874  0.43711194  0.08119191  1
  N  N58  1  0.57089216  0.50985418  0.82588619  1
  N  N59  1  0.43667674  0.43791422  0.58050234  1
  N  N60  1  0.22451559  0.86620091  0.38925911  1
  N  N61  1  0.10829079  0.76153278  0.11905273  1
  N  N62  1  0.88943333  0.87136990  0.87973992  1
  N  N63  1  0.77135427  0.78314673  0.63471629  1
  N  N64  1  0.57961372  0.85853141  0.38310392  1
  N  N65  1  0.44449407  0.75999648  0.10331301  1
  N  N66  1  0.21445502  0.85778909  0.86800641  1
  N  N67  1  0.09146943  0.75864014  0.62595790  1
  N  N68  1  0.86547376  0.88955658  0.38334840  1
  N  N69  1  0.78185434  0.76277127  0.13105469  1
  N  N70  1  0.58492627  0.85934740  0.88962647  1
  N  N71  1  0.47271097  0.74997302  0.62354074  1
