# generated using pymatgen
data_Sc5Al13N18
_symmetry_space_group_name_H-M   'P 1'
_cell_length_a   9.93952666
_cell_length_b   9.92386651
_cell_length_c   10.02279585
_cell_angle_alpha   89.68255298
_cell_angle_beta   89.86130372
_cell_angle_gamma   60.12882811
_symmetry_Int_Tables_number   1
_chemical_formula_structural   Sc5Al13N18
_chemical_formula_sum   'Sc10 Al26 N36'
_cell_volume   857.27814850
_cell_formula_units_Z   2
loop_
 _symmetry_equiv_pos_site_id
 _symmetry_equiv_pos_as_xyz
  1  'x, y, z'
loop_
 _atom_site_type_symbol
 _atom_site_label
 _atom_site_symmetry_multiplicity
 _atom_site_fract_x
 _atom_site_fract_y
 _atom_site_fract_z
 _atom_site_occupancy
  Sc  Sc0  1  0.09446439  0.10704562  0.37073879  1
  Sc  Sc1  1  0.45186728  0.09649083  0.36079391  1
  Sc  Sc2  1  0.10271966  0.09970701  0.87845892  1
  Sc  Sc3  1  0.22377985  0.21306716  0.62267090  1
  Sc  Sc4  1  0.44768815  0.10091203  0.87778461  1
  Sc  Sc5  1  0.88469019  0.54112306  0.61062547  1
  Sc  Sc6  1  0.10422690  0.75179179  0.35802791  1
  Sc  Sc7  1  0.45564933  0.74732625  0.35954407  1
  Sc  Sc8  1  0.21591094  0.86781949  0.61978573  1
  Sc  Sc9  1  0.45363153  0.75210081  0.85873100  1
  Al  Al10  1  0.21812143  0.21234969  0.13505337  1
  Al  Al11  1  0.77998263  0.09004440  0.82388616  1
  Al  Al12  1  0.87558378  0.21316183  0.63558598  1
  Al  Al13  1  0.55302490  0.21399101  0.12897920  1
  Al  Al14  1  0.77352775  0.09619540  0.31262252  1
  Al  Al15  1  0.88266032  0.21171553  0.12611169  1
  Al  Al16  1  0.55772521  0.20990077  0.63243801  1
  Al  Al17  1  0.11475639  0.43200624  0.37670656  1
  Al  Al18  1  0.22943134  0.52968317  0.12767813  1
  Al  Al19  1  0.77776376  0.42952884  0.88393077  1
  Al  Al20  1  0.44803943  0.42307117  0.38228080  1
  Al  Al21  1  0.55901874  0.52986838  0.12928268  1
  Al  Al22  1  0.10375592  0.43781881  0.88519612  1
  Al  Al23  1  0.22083958  0.54247853  0.63384101  1
  Al  Al24  1  0.77074032  0.42167354  0.37887663  1
  Al  Al25  1  0.89187890  0.53353078  0.13420185  1
  Al  Al26  1  0.44721481  0.42676907  0.87991007  1
  Al  Al27  1  0.55972312  0.52679507  0.63317439  1
  Al  Al28  1  0.22365352  0.87089796  0.13195539  1
  Al  Al29  1  0.78604181  0.76341366  0.82179896  1
  Al  Al30  1  0.87564571  0.88358701  0.56616732  1
  Al  Al31  1  0.56750670  0.86351048  0.07830174  1
  Al  Al32  1  0.11347009  0.75332692  0.88746120  1
  Al  Al33  1  0.78047679  0.76285294  0.31872437  1
  Al  Al34  1  0.88246584  0.87503627  0.06929167  1
  Al  Al35  1  0.56989236  0.86871163  0.57234613  1
  N  N36  1  0.21153475  0.22512196  0.32569070  1
  N  N37  1  0.10934285  0.09615333  0.09611780  1
  N  N38  1  0.86976676  0.21958409  0.83098035  1
  N  N39  1  0.77959001  0.09102083  0.62497817  1
  N  N40  1  0.56063622  0.22072051  0.32026341  1
  N  N41  1  0.44454878  0.09525799  0.10248590  1
  N  N42  1  0.21165112  0.22834393  0.83268853  1
  N  N43  1  0.08632063  0.10995172  0.58707190  1
  N  N44  1  0.86627907  0.21937687  0.31557533  1
  N  N45  1  0.77768266  0.09092016  0.11202091  1
  N  N46  1  0.56072582  0.21831539  0.82631844  1
  N  N47  1  0.46398727  0.08915203  0.58766696  1
  N  N48  1  0.24028967  0.51362285  0.31506342  1
  N  N49  1  0.10847531  0.43073508  0.07791512  1
  N  N50  1  0.88971823  0.53748719  0.83194834  1
  N  N51  1  0.76416212  0.41692630  0.56772210  1
  N  N52  1  0.56502812  0.51376893  0.31781622  1
  N  N53  1  0.44483114  0.42792589  0.06969403  1
  N  N54  1  0.22236409  0.53910355  0.82964633  1
  N  N55  1  0.11969621  0.44260170  0.56409303  1
  N  N56  1  0.89100702  0.53402773  0.33547635  1
  N  N57  1  0.77786953  0.43089973  0.07577413  1
  N  N58  1  0.56836626  0.51571792  0.82409756  1
  N  N59  1  0.44071267  0.43061672  0.57618083  1
  N  N60  1  0.21979537  0.87255552  0.32978567  1
  N  N61  1  0.11405594  0.75609777  0.09017211  1
  N  N62  1  0.89026691  0.87200267  0.87858455  1
  N  N63  1  0.77211878  0.78335014  0.63255234  1
  N  N64  1  0.58160749  0.85585393  0.37980819  1
  N  N65  1  0.44771064  0.75691939  0.10092122  1
  N  N66  1  0.21236973  0.86189005  0.83377094  1
  N  N67  1  0.09788455  0.75095265  0.57510097  1
  N  N68  1  0.86047460  0.89100069  0.37326378  1
  N  N69  1  0.78293973  0.76011568  0.12833220  1
  N  N70  1  0.58427515  0.86026087  0.88818244  1
  N  N71  1  0.46666824  0.74918549  0.60307905  1
