# generated using pymatgen
data_Sc5Al13N18
_symmetry_space_group_name_H-M   'P 1'
_cell_length_a   9.87337298
_cell_length_b   9.82764088
_cell_length_c   10.26737284
_cell_angle_alpha   89.45140491
_cell_angle_beta   90.04991107
_cell_angle_gamma   60.09326534
_symmetry_Int_Tables_number   1
_chemical_formula_structural   Sc5Al13N18
_chemical_formula_sum   'Sc10 Al26 N36'
_cell_volume   863.54118196
_cell_formula_units_Z   2
loop_
 _symmetry_equiv_pos_site_id
 _symmetry_equiv_pos_as_xyz
  1  'x, y, z'
loop_
 _atom_site_type_symbol
 _atom_site_label
 _atom_site_symmetry_multiplicity
 _atom_site_fract_x
 _atom_site_fract_y
 _atom_site_fract_z
 _atom_site_occupancy
  Sc  Sc0  1  0.09937478  0.09997890  0.30915014  1
  Sc  Sc1  1  0.44879019  0.09981689  0.32240707  1
  Sc  Sc2  1  0.09900632  0.10279475  0.83639872  1
  Sc  Sc3  1  0.21769513  0.21265576  0.57116004  1
  Sc  Sc4  1  0.45319396  0.09688684  0.82205425  1
  Sc  Sc5  1  0.88183964  0.54674281  0.57036490  1
  Sc  Sc6  1  0.10516044  0.75408487  0.34590766  1
  Sc  Sc7  1  0.45125684  0.75814625  0.32528654  1
  Sc  Sc8  1  0.22260233  0.86990671  0.58668200  1
  Sc  Sc9  1  0.45704938  0.75345949  0.84290295  1
  Al  Al10  1  0.22203991  0.21192536  0.06172535  1
  Al  Al11  1  0.77647271  0.09733313  0.81691587  1
  Al  Al12  1  0.87681724  0.20869829  0.56694826  1
  Al  Al13  1  0.56393060  0.20019292  0.06526198  1
  Al  Al14  1  0.77155511  0.10106498  0.31830001  1
  Al  Al15  1  0.87898379  0.20953261  0.06400087  1
  Al  Al16  1  0.56529380  0.20221251  0.56636613  1
  Al  Al17  1  0.10501206  0.42658685  0.30469345  1
  Al  Al18  1  0.23009566  0.53332081  0.12977065  1
  Al  Al19  1  0.78021013  0.42075240  0.81769447  1
  Al  Al20  1  0.44560261  0.42951346  0.38467053  1
  Al  Al21  1  0.55664732  0.52886292  0.12722210  1
  Al  Al22  1  0.10519169  0.43544543  0.82308001  1
  Al  Al23  1  0.22672023  0.53987719  0.63902913  1
  Al  Al24  1  0.78202350  0.42315219  0.31189544  1
  Al  Al25  1  0.88781071  0.53944052  0.06389936  1
  Al  Al26  1  0.44365621  0.43041215  0.88759651  1
  Al  Al27  1  0.55504314  0.52946522  0.63765887  1
  Al  Al28  1  0.22069086  0.86639617  0.06282035  1
  Al  Al29  1  0.78459526  0.76332139  0.82065772  1
  Al  Al30  1  0.87626866  0.88130300  0.56847858  1
  Al  Al31  1  0.56493207  0.87099383  0.06755378  1
  Al  Al32  1  0.10412138  0.75743141  0.84485478  1
  Al  Al33  1  0.78041933  0.76144165  0.31286209  1
  Al  Al34  1  0.88870761  0.87328485  0.07014875  1
  Al  Al35  1  0.56745281  0.87011494  0.56896658  1
  N  N36  1  0.20892841  0.22162468  0.36607992  1
  N  N37  1  0.10973332  0.09366209  0.09548081  1
  N  N38  1  0.86456907  0.21563103  0.88241544  1
  N  N39  1  0.77646155  0.09583473  0.62941421  1
  N  N40  1  0.56842022  0.21111079  0.38070072  1
  N  N41  1  0.44624434  0.09518299  0.10953794  1
  N  N42  1  0.21699920  0.22615583  0.87738230  1
  N  N43  1  0.08581344  0.10860466  0.62794561  1
  N  N44  1  0.86926804  0.21533736  0.37897021  1
  N  N45  1  0.77844812  0.09388991  0.12892896  1
  N  N46  1  0.57061643  0.20856636  0.87938539  1
  N  N47  1  0.46126408  0.08886118  0.61090068  1
  N  N48  1  0.24109729  0.51038634  0.31818059  1
  N  N49  1  0.10627801  0.42851349  0.11511930  1
  N  N50  1  0.88586874  0.54037517  0.87270917  1
  N  N51  1  0.77451198  0.41583947  0.62835353  1
  N  N52  1  0.56214460  0.51686860  0.31647944  1
  N  N53  1  0.44287530  0.42936915  0.07426099  1
  N  N54  1  0.22801754  0.53890443  0.83283981  1
  N  N55  1  0.11089284  0.43833001  0.63705919  1
  N  N56  1  0.88976813  0.53917824  0.35952872  1
  N  N57  1  0.78472419  0.42400413  0.12046323  1
  N  N58  1  0.56184580  0.51560907  0.82766357  1
  N  N59  1  0.43809266  0.43600621  0.57598519  1
  N  N60  1  0.22203910  0.87457907  0.38046176  1
  N  N61  1  0.10928483  0.76085013  0.11464134  1
  N  N62  1  0.88841876  0.87509773  0.88016939  1
  N  N63  1  0.77151924  0.78085212  0.63670593  1
  N  N64  1  0.57905866  0.86131249  0.38242132  1
  N  N65  1  0.44644379  0.76042481  0.10245826  1
  N  N66  1  0.21512797  0.85925851  0.87315141  1
  N  N67  1  0.09492270  0.75363934  0.60066534  1
  N  N68  1  0.86293736  0.88773789  0.37889848  1
  N  N69  1  0.78168534  0.76025138  0.12540593  1
  N  N70  1  0.58279857  0.86485045  0.88667195  1
  N  N71  1  0.46934325  0.75236352  0.62213453  1
