# generated using pymatgen
data_ScAl17N18
_symmetry_space_group_name_H-M   'P 1'
_cell_length_a   9.49487992
_cell_length_b   9.49317775
_cell_length_c   10.00162450
_cell_angle_alpha   89.99999350
_cell_angle_beta   89.98549916
_cell_angle_gamma   60.00593314
_symmetry_Int_Tables_number   1
_chemical_formula_structural   ScAl17N18
_chemical_formula_sum   'Sc2 Al34 N36'
_cell_volume   780.77915361
_cell_formula_units_Z   2
loop_
 _symmetry_equiv_pos_site_id
 _symmetry_equiv_pos_as_xyz
  1  'x, y, z'
loop_
 _atom_site_type_symbol
 _atom_site_label
 _atom_site_symmetry_multiplicity
 _atom_site_fract_x
 _atom_site_fract_y
 _atom_site_fract_z
 _atom_site_occupancy
  Al  Al0  1  0.11366664  0.09068137  0.31418410  1
  Al  Al1  1  0.22236146  0.20548593  0.06446314  1
  Al  Al2  1  0.77441413  0.09912292  0.81776343  1
  Al  Al3  1  0.89067556  0.20358886  0.56745857  1
  Al  Al4  1  0.44417841  0.09457749  0.31457732  1
  Al  Al5  1  0.55393925  0.20640203  0.06447123  1
  Al  Al6  1  0.11277009  0.09365240  0.81449824  1
  Al  Al7  1  0.22240665  0.20546333  0.56447338  1
  Al  Al8  1  0.77820519  0.09201693  0.30925495  1
  Al  Al9  1  0.89002888  0.20547482  0.06026109  1
  Al  Al10  1  0.44427745  0.09452796  0.81423097  1
  Al  Al11  1  0.55289152  0.20918380  0.56397968  1
  Al  Al12  1  0.11366671  0.42898528  0.31418409  1
  Al  Al13  1  0.22289304  0.53783168  0.06418129  1
  Al  Al14  1  0.77807124  0.42763102  0.81236016  1
  Al  Al15  1  0.89067559  0.53906892  0.56745862  1
  Al  Al16  1  0.44075649  0.42920712  0.31376104  1
  Al  Al17  1  0.55454436  0.53939443  0.06006997  1
  Al  Al18  1  0.11277014  0.42691080  0.81449824  1
  Al  Al19  1  0.22616545  0.53598442  0.56369411  1
  Al  Al20  1  0.89002890  0.53782962  0.06026109  1
  Al  Al21  1  0.44352042  0.42694458  0.81411109  1
  Al  Al22  1  0.54945519  0.54193901  0.56813936  1
  Al  Al23  1  0.11235904  0.76048715  0.31041709  1
  Al  Al24  1  0.22289299  0.87260866  0.06418128  1
  Al  Al25  1  0.77441414  0.75979633  0.81776347  1
  Al  Al26  1  0.44075640  0.76336968  0.31376102  1
  Al  Al27  1  0.55393920  0.87299209  0.06447125  1
  Al  Al28  1  0.11679145  0.75827095  0.81717534  1
  Al  Al29  1  0.22616538  0.87118351  0.56369410  1
  Al  Al30  1  0.77820523  0.76311126  0.30925496  1
  Al  Al31  1  0.88943978  0.87194682  0.06281118  1
  Al  Al32  1  0.44352039  0.76286831  0.81411111  1
  Al  Al33  1  0.55289151  0.87125804  0.56397968  1
  Sc  Sc34  1  0.77739975  0.42796657  0.32262933  1
  Sc  Sc35  1  0.88897309  0.87218020  0.57022939  1
  N  N36  1  0.22133818  0.20599757  0.37181190  1
  N  N37  1  0.11095236  0.09476855  0.12177502  1
  N  N38  1  0.89076269  0.20535193  0.86958378  1
  N  N39  1  0.76623188  0.11419076  0.62931709  1
  N  N40  1  0.55609377  0.20585844  0.37054577  1
  N  N41  1  0.44399844  0.09466745  0.12290892  1
  N  N42  1  0.22272580  0.20530376  0.87224437  1
  N  N43  1  0.11295021  0.09316548  0.62288852  1
  N  N44  1  0.89900985  0.18399060  0.37752179  1
  N  N45  1  0.77725304  0.09597718  0.11705755  1
  N  N46  1  0.55314764  0.20631927  0.87384062  1
  N  N47  1  0.44504877  0.09414227  0.62097827  1
  N  N48  1  0.22202149  0.53937288  0.37120905  1
  N  N49  1  0.11095243  0.42761241  0.12177514  1
  N  N50  1  0.89076271  0.53721865  0.86958376  1
  N  N51  1  0.77757477  0.42787927  0.61551882  1
  N  N52  1  0.53429819  0.54951751  0.37834005  1
  N  N53  1  0.44470421  0.42823739  0.12156090  1
  N  N54  1  0.22305040  0.53717796  0.87365785  1
  N  N55  1  0.11295025  0.42721764  0.62288864  1
  N  N56  1  0.89900993  0.55033284  0.37752183  1
  N  N57  1  0.77726296  0.42803516  0.10952315  1
  N  N58  1  0.55444436  0.53944445  0.86776776  1
  N  N59  1  0.44352824  0.42663158  0.62337917  1
  N  N60  1  0.22202143  0.87193904  0.37120906  1
  N  N61  1  0.11259026  0.76037155  0.11842264  1
  N  N62  1  0.88943923  0.87194710  0.86668103  1
  N  N63  1  0.76623188  0.75291074  0.62931706  1
  N  N64  1  0.55609372  0.87138116  0.37054582  1
  N  N65  1  0.44470414  0.76039172  0.12156094  1
  N  N66  1  0.22305035  0.87310501  0.87365783  1
  N  N67  1  0.13207489  0.75062923  0.62735603  1
  N  N68  1  0.88904399  0.87214473  0.35700439  1
  N  N69  1  0.77725308  0.76010315  0.11705754  1
  N  N70  1  0.55314763  0.87386647  0.87384067  1
  N  N71  1  0.44352821  0.76317350  0.62337927  1
