# generated using pymatgen
data_ScAl17N18
_symmetry_space_group_name_H-M   'P 1'
_cell_length_a   9.69852826
_cell_length_b   9.69505739
_cell_length_c   9.42076512
_cell_angle_alpha   90.00000519
_cell_angle_beta   89.98795713
_cell_angle_gamma   60.01438901
_symmetry_Int_Tables_number   1
_chemical_formula_structural   ScAl17N18
_chemical_formula_sum   'Sc2 Al34 N36'
_cell_volume   767.24835630
_cell_formula_units_Z   2
loop_
 _symmetry_equiv_pos_site_id
 _symmetry_equiv_pos_as_xyz
  1  'x, y, z'
loop_
 _atom_site_type_symbol
 _atom_site_label
 _atom_site_symmetry_multiplicity
 _atom_site_fract_x
 _atom_site_fract_y
 _atom_site_fract_z
 _atom_site_occupancy
  Al  Al0  1  0.11356204  0.09054126  0.37985320  1
  Al  Al1  1  0.22200303  0.20566583  0.12957326  1
  Al  Al2  1  0.77632189  0.09394842  0.88046360  1
  Al  Al3  1  0.88784040  0.20877519  0.63345264  1
  Al  Al4  1  0.44466373  0.09433431  0.37699130  1
  Al  Al5  1  0.55346752  0.20672023  0.12696864  1
  Al  Al6  1  0.11360269  0.09382592  0.87628587  1
  Al  Al7  1  0.22307506  0.20512970  0.62613623  1
  Al  Al8  1  0.77517878  0.09792447  0.37433400  1
  Al  Al9  1  0.89358332  0.19910148  0.12165271  1
  Al  Al10  1  0.44353364  0.09489904  0.87876773  1
  Al  Al11  1  0.55280157  0.20878861  0.62905402  1
  Al  Al12  1  0.11356142  0.42922793  0.37985319  1
  Al  Al13  1  0.22362477  0.53580390  0.12710110  1
  Al  Al14  1  0.77636798  0.42848173  0.87959825  1
  Al  Al15  1  0.88784084  0.53671985  0.63345273  1
  Al  Al16  1  0.44020179  0.42856362  0.37983827  1
  Al  Al17  1  0.54777529  0.54278039  0.12489527  1
  Al  Al18  1  0.11360257  0.42590270  0.87628624  1
  Al  Al19  1  0.22562288  0.53735838  0.62982725  1
  Al  Al20  1  0.89358269  0.54065035  0.12165263  1
  Al  Al21  1  0.44394943  0.42737744  0.87701271  1
  Al  Al22  1  0.55494344  0.53919623  0.63010895  1
  Al  Al23  1  0.11901550  0.75715733  0.37132525  1
  Al  Al24  1  0.22362482  0.87390603  0.12710113  1
  Al  Al25  1  0.77632196  0.76306122  0.88046395  1
  Al  Al26  1  0.44020188  0.76456694  0.37983867  1
  Al  Al27  1  0.55346736  0.87314778  0.12696907  1
  Al  Al28  1  0.11161984  0.76085569  0.88291278  1
  Al  Al29  1  0.22562302  0.87035303  0.62982715  1
  Al  Al30  1  0.77517883  0.76022803  0.37433370  1
  Al  Al31  1  0.88797282  0.87268120  0.12929913  1
  Al  Al32  1  0.44394945  0.76200486  0.87701238  1
  Al  Al33  1  0.55280244  0.87174507  0.62905391  1
  Sc  Sc34  1  0.77827776  0.42752559  0.36228954  1
  Sc  Sc35  1  0.89031955  0.87150924  0.61148342  1
  N  N36  1  0.22105976  0.20613866  0.33389383  1
  N  N37  1  0.11460626  0.09392734  0.07760089  1
  N  N38  1  0.88905457  0.20483865  0.83782125  1
  N  N39  1  0.76701361  0.11663493  0.57721030  1
  N  N40  1  0.55342428  0.20738117  0.32942109  1
  N  N41  1  0.44303739  0.09514604  0.08178905  1
  N  N42  1  0.22353869  0.20489931  0.82827536  1
  N  N43  1  0.11029923  0.09374451  0.58413293  1
  N  N44  1  0.90161203  0.18431004  0.32274226  1
  N  N45  1  0.77560790  0.09403376  0.08277341  1
  N  N46  1  0.55502231  0.20495359  0.83211947  1
  N  N47  1  0.44579532  0.09376706  0.58023613  1
  N  N48  1  0.22373972  0.53551932  0.32879543  1
  N  N49  1  0.11460555  0.42479540  0.07760144  1
  N  N50  1  0.88905459  0.53944431  0.83782142  1
  N  N51  1  0.77814860  0.42759054  0.59187059  1
  N  N52  1  0.53306831  0.55013543  0.32732503  1
  N  N53  1  0.44366066  0.42689892  0.07817528  1
  N  N54  1  0.22171708  0.54015143  0.83260640  1
  N  N55  1  0.11029949  0.42928440  0.58413262  1
  N  N56  1  0.90161073  0.54741557  0.32274291  1
  N  N57  1  0.77645754  0.42843586  0.08902298  1
  N  N58  1  0.55461213  0.53936274  0.83389105  1
  N  N59  1  0.44424288  0.42757363  0.58338436  1
  N  N60  1  0.22373967  0.87407765  0.32879590  1
  N  N61  1  0.11181174  0.76075861  0.08709334  1
  N  N62  1  0.89001832  0.87165956  0.84015475  1
  N  N63  1  0.76701494  0.74968074  0.57721073  1
  N  N64  1  0.55342433  0.87253308  0.32942163  1
  N  N65  1  0.44366040  0.76277035  0.07817493  1
  N  N66  1  0.22171704  0.87146840  0.83260597  1
  N  N67  1  0.13389863  0.74971451  0.57377539  1
  N  N68  1  0.88842874  0.87245420  0.33978614  1
  N  N69  1  0.77560785  0.76368730  0.08277386  1
  N  N70  1  0.55502258  0.87336168  0.83211913  1
  N  N71  1  0.44424305  0.76151329  0.58338468  1
