# generated using pymatgen
data_ScAl17N18
_symmetry_space_group_name_H-M   'P 1'
_cell_length_a   9.49487846
_cell_length_b   9.49317521
_cell_length_c   10.00162900
_cell_angle_alpha   89.99999898
_cell_angle_beta   89.98550330
_cell_angle_gamma   60.00593701
_symmetry_Int_Tables_number   1
_chemical_formula_structural   ScAl17N18
_chemical_formula_sum   'Sc2 Al34 N36'
_cell_volume   780.77920643
_cell_formula_units_Z   2
loop_
 _symmetry_equiv_pos_site_id
 _symmetry_equiv_pos_as_xyz
  1  'x, y, z'
loop_
 _atom_site_type_symbol
 _atom_site_label
 _atom_site_symmetry_multiplicity
 _atom_site_fract_x
 _atom_site_fract_y
 _atom_site_fract_z
 _atom_site_occupancy
  Al  Al0  1  0.11374606  0.09083057  0.39466494  1
  Al  Al1  1  0.22236017  0.20548656  0.14441369  1
  Al  Al2  1  0.77660901  0.09453969  0.89838280  1
  Al  Al3  1  0.88843247  0.20799743  0.64938854  1
  Al  Al4  1  0.44423125  0.09455103  0.39417101  1
  Al  Al5  1  0.55386775  0.20636210  0.14414600  1
  Al  Al6  1  0.11269844  0.09361247  0.89417301  1
  Al  Al7  1  0.22245933  0.20543697  0.64406704  1
  Al  Al8  1  0.77596249  0.09642531  0.39118483  1
  Al  Al9  1  0.89222357  0.20089157  0.14088033  1
  Al  Al10  1  0.44427623  0.09452858  0.89418136  1
  Al  Al11  1  0.55297134  0.20933297  0.64446033  1
  Al  Al12  1  0.11374606  0.42875666  0.39466502  1
  Al  Al13  1  0.22311718  0.53714637  0.14453348  1
  Al  Al14  1  0.77719811  0.42806758  0.89583250  1
  Al  Al15  1  0.88843247  0.53690342  0.64938861  1
  Al  Al16  1  0.44047235  0.42883108  0.39495051  1
  Al  Al17  1  0.54984640  0.54174343  0.14146846  1
  Al  Al18  1  0.11269848  0.42702238  0.89417306  1
  Al  Al19  1  0.22588117  0.53664507  0.64488363  1
  Al  Al20  1  0.89222359  0.54021813  0.14088033  1
  Al  Al21  1  0.44374486  0.42740586  0.89446316  1
  Al  Al22  1  0.55427869  0.53952733  0.64822691  1
  Al  Al23  1  0.11718251  0.75807549  0.39050445  1
  Al  Al24  1  0.22311714  0.87306987  0.14453342  1
  Al  Al25  1  0.77660903  0.76218460  0.89838281  1
  Al  Al26  1  0.44047224  0.76402992  0.39495050  1
  Al  Al27  1  0.55386772  0.87310353  0.14414602  1
  Al  Al28  1  0.11209370  0.76061984  0.89857422  1
  Al  Al29  1  0.22588108  0.87080726  0.64488357  1
  Al  Al30  1  0.77596238  0.76094557  0.39118475  1
  Al  Al31  1  0.88856674  0.87238333  0.14628329  1
  Al  Al32  1  0.44374485  0.76218256  0.89446322  1
  Al  Al33  1  0.55297131  0.87102903  0.64446036  1
  Sc  Sc34  1  0.77766486  0.42783420  0.38841468  1
  Sc  Sc35  1  0.88923850  0.87204737  0.63601485  1
  N  N36  1  0.22158950  0.20587202  0.33766636  1
  N  N37  1  0.11349035  0.09369523  0.08480327  1
  N  N38  1  0.88938488  0.20403718  0.84158606  1
  N  N39  1  0.76762787  0.11602332  0.58112214  1
  N  N40  1  0.55368728  0.20684910  0.33575569  1
  N  N41  1  0.44391196  0.09471069  0.08640013  1
  N  N42  1  0.22263979  0.20534682  0.83573554  1
  N  N43  1  0.11054420  0.09415602  0.58809855  1
  N  N44  1  0.90040578  0.18582388  0.32932705  1
  N  N45  1  0.77587472  0.09466278  0.08905994  1
  N  N46  1  0.55568517  0.20524595  0.83686930  1
  N  N47  1  0.44529953  0.09401695  0.58683236  1
  N  N48  1  0.22310974  0.53684047  0.33526505  1
  N  N49  1  0.11349015  0.42614792  0.08480323  1
  N  N50  1  0.88938484  0.53991130  0.84158600  1
  N  N51  1  0.77759402  0.42786963  0.60164064  1
  N  N52  1  0.53456247  0.54938549  0.33128803  1
  N  N53  1  0.44358735  0.42690930  0.08498619  1
  N  N54  1  0.22193377  0.53962256  0.83708348  1
  N  N55  1  0.11054417  0.42863316  0.58809851  1
  N  N56  1  0.90040587  0.54710364  0.32932711  1
  N  N57  1  0.77719854  0.42806739  0.09196243  1
  N  N58  1  0.55404752  0.53964297  0.84022118  1
  N  N59  1  0.44461624  0.42807507  0.58743545  1
  N  N60  1  0.22310977  0.87338306  0.33526524  1
  N  N61  1  0.11219349  0.76056989  0.09087617  1
  N  N62  1  0.88937477  0.87197924  0.84912221  1
  N  N63  1  0.76762764  0.74968193  0.58112219  1
  N  N64  1  0.55368730  0.87279697  0.33575556  1
  N  N65  1  0.44358733  0.76283673  0.08498607  1
  N  N66  1  0.22193371  0.87177709  0.83708358  1
  N  N67  1  0.13233965  0.75049684  0.58030366  1
  N  N68  1  0.88906279  0.87213520  0.34312418  1
  N  N69  1  0.77587473  0.76279583  0.08906010  1
  N  N70  1  0.55568520  0.87240225  0.83686917  1
  N  N71  1  0.44461622  0.76064201  0.58743539  1
