# generated using pymatgen
data_ScAl17N18
_symmetry_space_group_name_H-M   'P 1'
_cell_length_a   10.01430460
_cell_length_b   10.00943341
_cell_length_c   8.45506731
_cell_angle_alpha   90.00000067
_cell_angle_beta   89.99734566
_cell_angle_gamma   60.01586600
_symmetry_Int_Tables_number   1
_chemical_formula_structural   ScAl17N18
_chemical_formula_sum   'Sc2 Al34 N36'
_cell_volume   734.08678043
_cell_formula_units_Z   2
loop_
 _symmetry_equiv_pos_site_id
 _symmetry_equiv_pos_as_xyz
  1  'x, y, z'
loop_
 _atom_site_type_symbol
 _atom_site_label
 _atom_site_symmetry_multiplicity
 _atom_site_fract_x
 _atom_site_fract_y
 _atom_site_fract_z
 _atom_site_occupancy
  Al  Al0  1  0.11413680  0.09105894  0.35773228  1
  Al  Al1  1  0.22239270  0.20547060  0.10768475  1
  Al  Al2  1  0.77498033  0.09744249  0.86012835  1
  Al  Al3  1  0.89010915  0.20560768  0.61245744  1
  Al  Al4  1  0.44434138  0.09449566  0.35644037  1
  Al  Al5  1  0.55365250  0.20639046  0.10620153  1
  Al  Al6  1  0.11312195  0.09391501  0.85770066  1
  Al  Al7  1  0.22284260  0.20524564  0.60745067  1
  Al  Al8  1  0.77615961  0.09509257  0.35161686  1
  Al  Al9  1  0.89204510  0.20188964  0.10266883  1
  Al  Al10  1  0.44378918  0.09477181  0.85833340  1
  Al  Al11  1  0.55245512  0.20864112  0.60815834  1
  Al  Al12  1  0.11413696  0.42813852  0.35773243  1
  Al  Al13  1  0.22311482  0.53702669  0.10636804  1
  Al  Al14  1  0.77707265  0.42813042  0.85692904  1
  Al  Al15  1  0.89010919  0.53761632  0.61245750  1
  Al  Al16  1  0.44084988  0.42821364  0.35689575  1
  Al  Al17  1  0.55098969  0.54117135  0.10303701  1
  Al  Al18  1  0.11312207  0.42629727  0.85770059  1
  Al  Al19  1  0.22550247  0.53635819  0.60926499  1
  Al  Al20  1  0.89204528  0.53939850  0.10266883  1
  Al  Al21  1  0.44383675  0.42721958  0.85787600  1
  Al  Al22  1  0.55139851  0.54096695  0.61025907  1
  Al  Al23  1  0.11599656  0.75866886  0.35237126  1
  Al  Al24  1  0.22311468  0.87319244  0.10636807  1
  Al  Al25  1  0.77498020  0.76091061  0.86012831  1
  Al  Al26  1  0.44084975  0.76426921  0.35689561  1
  Al  Al27  1  0.55365241  0.87328945  0.10620146  1
  Al  Al28  1  0.11478457  0.75927484  0.86188242  1
  Al  Al29  1  0.22550231  0.87147344  0.60926491  1
  Al  Al30  1  0.77615955  0.76208136  0.35161685  1
  Al  Al31  1  0.88886654  0.87223332  0.10479084  1
  Al  Al32  1  0.44383659  0.76227649  0.85787608  1
  Al  Al33  1  0.55245495  0.87223616  0.60815839  1
  Sc  Sc34  1  0.77748379  0.42792503  0.35410452  1
  Sc  Sc35  1  0.88972083  0.87180602  0.60466617  1
  N  N36  1  0.22152886  0.20590242  0.35319298  1
  N  N37  1  0.11350700  0.09426443  0.09891660  1
  N  N38  1  0.89047534  0.20431394  0.85487747  1
  N  N39  1  0.76820885  0.11208032  0.60325123  1
  N  N40  1  0.55428943  0.20668922  0.34962444  1
  N  N41  1  0.44315817  0.09508745  0.10259752  1
  N  N42  1  0.22342626  0.20495366  0.84962253  1
  N  N43  1  0.11175410  0.09351719  0.60378178  1
  N  N44  1  0.89888032  0.18809216  0.34811935  1
  N  N45  1  0.77573860  0.09553614  0.10074615  1
  N  N46  1  0.55372531  0.20558700  0.85349542  1
  N  N47  1  0.44524270  0.09404511  0.60036290  1
  N  N48  1  0.22307701  0.53698396  0.34920424  1
  N  N49  1  0.11350719  0.42556310  0.09891640  1
  N  N50  1  0.89047541  0.53854353  0.85487748  1
  N  N51  1  0.77791087  0.42771146  0.61263692  1
  N  N52  1  0.53697439  0.54817881  0.35197489  1
  N  N53  1  0.44401621  0.42738133  0.09933648  1
  N  N54  1  0.22236424  0.53866186  0.85334003  1
  N  N55  1  0.11175419  0.42806334  0.60378194  1
  N  N56  1  0.89888055  0.54636046  0.34811932  1
  N  N57  1  0.77661304  0.42836042  0.09475410  1
  N  N58  1  0.55360428  0.53986394  0.85198909  1
  N  N59  1  0.44376234  0.42705317  0.60375026  1
  N  N60  1  0.22307691  0.87327278  0.34920420  1
  N  N61  1  0.11301109  0.76016170  0.10340321  1
  N  N62  1  0.88991077  0.87171103  0.86220701  1
  N  N63  1  0.76820862  0.75304460  0.60325132  1
  N  N64  1  0.55428938  0.87235334  0.34962425  1
  N  N65  1  0.44401606  0.76193544  0.09933656  1
  N  N66  1  0.22236408  0.87230773  0.85334011  1
  N  N67  1  0.12966424  0.75183520  0.59939569  1
  N  N68  1  0.88870879  0.87231205  0.34465599  1
  N  N69  1  0.77573857  0.76205909  0.10074608  1
  N  N70  1  0.55372512  0.87401981  0.85349562  1
  N  N71  1  0.44376223  0.76251750  0.60375022  1
