# generated using pymatgen
data_ScAl17N18
_symmetry_space_group_name_H-M   'P 1'
_cell_length_a   9.80064740
_cell_length_b   9.79650445
_cell_length_c   9.10826705
_cell_angle_alpha   89.99999937
_cell_angle_beta   89.99142329
_cell_angle_gamma   60.01514721
_symmetry_Int_Tables_number   1
_chemical_formula_structural   ScAl17N18
_chemical_formula_sum   'Sc2 Al34 N36'
_cell_volume   757.45799333
_cell_formula_units_Z   2
loop_
 _symmetry_equiv_pos_site_id
 _symmetry_equiv_pos_as_xyz
  1  'x, y, z'
loop_
 _atom_site_type_symbol
 _atom_site_label
 _atom_site_symmetry_multiplicity
 _atom_site_fract_x
 _atom_site_fract_y
 _atom_site_fract_z
 _atom_site_occupancy
  Al  Al0  1  0.11383230  0.09157736  0.33361191  1
  Al  Al1  1  0.22337936  0.20497745  0.08361408  1
  Al  Al2  1  0.77318177  0.10016835  0.84259125  1
  Al  Al3  1  0.89116238  0.20265869  0.58987119  1
  Al  Al4  1  0.44325700  0.09503777  0.33742697  1
  Al  Al5  1  0.55263313  0.20616075  0.08690985  1
  Al  Al6  1  0.11337040  0.09304885  0.83609649  1
  Al  Al7  1  0.22171961  0.20580725  0.58633960  1
  Al  Al8  1  0.77833127  0.09211959  0.32874913  1
  Al  Al9  1  0.89087779  0.20527530  0.08219961  1
  Al  Al10  1  0.44479246  0.09427000  0.83261278  1
  Al  Al11  1  0.55318877  0.20942011  0.58260514  1
  Al  Al12  1  0.11383190  0.42792287  0.33361196  1
  Al  Al13  1  0.22269303  0.53799762  0.08604809  1
  Al  Al14  1  0.77875354  0.42728939  0.83682316  1
  Al  Al15  1  0.89116230  0.53951333  0.58987146  1
  Al  Al16  1  0.44132293  0.42963760  0.33262255  1
  Al  Al17  1  0.55416091  0.53958666  0.07907279  1
  Al  Al18  1  0.11337046  0.42691318  0.83609635  1
  Al  Al19  1  0.22636270  0.53535810  0.58288449  1
  Al  Al20  1  0.89087774  0.53718116  0.08219942  1
  Al  Al21  1  0.44278934  0.42589218  0.83611972  1
  Al  Al22  1  0.54835439  0.54249015  0.59321590  1
  Al  Al23  1  0.11257372  0.76037926  0.33286460  1
  Al  Al24  1  0.22269300  0.87264362  0.08604786  1
  Al  Al25  1  0.77318200  0.75998231  0.84259135  1
  Al  Al26  1  0.44132295  0.76237203  0.33262246  1
  Al  Al27  1  0.55263318  0.87454031  0.08690974  1
  Al  Al28  1  0.11823830  0.75754693  0.83871302  1
  Al  Al29  1  0.22636278  0.87161324  0.58288475  1
  Al  Al30  1  0.77833118  0.76288135  0.32874912  1
  Al  Al31  1  0.89049474  0.87141977  0.08589305  1
  Al  Al32  1  0.44278937  0.76465094  0.83611979  1
  Al  Al33  1  0.55318906  0.87072532  0.58260515  1
  Sc  Sc34  1  0.77618288  0.42857424  0.35047023  1
  Sc  Sc35  1  0.88827878  0.87252826  0.60017966  1
  N  N36  1  0.22065336  0.20634090  0.37465101  1
  N  N37  1  0.11192051  0.09511644  0.12190408  1
  N  N38  1  0.89135344  0.20543008  0.87141721  1
  N  N39  1  0.76541988  0.11466007  0.63143932  1
  N  N40  1  0.55628873  0.20641249  0.36961286  1
  N  N41  1  0.44277326  0.09527911  0.12699569  1
  N  N42  1  0.22390182  0.20471665  0.87204154  1
  N  N43  1  0.11321360  0.09253579  0.62514677  1
  N  N44  1  0.89916924  0.18453766  0.37616286  1
  N  N45  1  0.77729029  0.09550359  0.11567495  1
  N  N46  1  0.55179593  0.20591299  0.87727229  1
  N  N47  1  0.44565758  0.09383701  0.61955176  1
  N  N48  1  0.22260450  0.53812812  0.37042911  1
  N  N49  1  0.11192037  0.42629468  0.12190419  1
  N  N50  1  0.89135343  0.53655169  0.87141697  1
  N  N51  1  0.77836322  0.42748422  0.61716785  1
  N  N52  1  0.53383300  0.54975128  0.38053530  1
  N  N53  1  0.44494881  0.42858328  0.12135414  1
  N  N54  1  0.22287116  0.53741803  0.87658333  1
  N  N55  1  0.11321353  0.42758197  0.62514657  1
  N  N56  1  0.89916874  0.54962820  0.37616278  1
  N  N57  1  0.77643579  0.42844791  0.11175451  1
  N  N58  1  0.55430122  0.53951691  0.86644746  1
  N  N59  1  0.44285294  0.42580631  0.62584344  1
  N  N60  1  0.22260459  0.87260228  0.37042932  1
  N  N61  1  0.11248052  0.76042555  0.12062882  1
  N  N62  1  0.89043711  0.87144897  0.86768659  1
  N  N63  1  0.76542037  0.75325154  0.63143913  1
  N  N64  1  0.55628867  0.87063407  0.36961298  1
  N  N65  1  0.44494876  0.75979958  0.12135387  1
  N  N66  1  0.22287101  0.87304588  0.87658312  1
  N  N67  1  0.13263453  0.75034827  0.62596738  1
  N  N68  1  0.88835540  0.87248974  0.36027695  1
  N  N69  1  0.77729030  0.76053760  0.11567489  1
  N  N70  1  0.55179623  0.87562616  0.87727211  1
  N  N71  1  0.44285294  0.76467253  0.62584373  1
