# generated using pymatgen
data_ScAl17N18
_symmetry_space_group_name_H-M   'P 1'
_cell_length_a   9.46817565
_cell_length_b   9.46573351
_cell_length_c   10.07144221
_cell_angle_alpha   89.99999978
_cell_angle_beta   89.98715915
_cell_angle_gamma   60.00853265
_symmetry_Int_Tables_number   1
_chemical_formula_structural   ScAl17N18
_chemical_formula_sum   'Sc2 Al34 N36'
_cell_volume   781.77215233
_cell_formula_units_Z   2
loop_
 _symmetry_equiv_pos_site_id
 _symmetry_equiv_pos_as_xyz
  1  'x, y, z'
loop_
 _atom_site_type_symbol
 _atom_site_label
 _atom_site_symmetry_multiplicity
 _atom_site_fract_x
 _atom_site_fract_y
 _atom_site_fract_z
 _atom_site_occupancy
  Al  Al0  1  0.11365820  0.09059518  0.29595036  1
  Al  Al1  1  0.22229336  0.20551990  0.04596657  1
  Al  Al2  1  0.77469092  0.09858045  0.79883933  1
  Al  Al3  1  0.89033576  0.20410134  0.54900239  1
  Al  Al4  1  0.44421632  0.09455855  0.29603203  1
  Al  Al5  1  0.55402930  0.20636537  0.04577820  1
  Al  Al6  1  0.11268543  0.09370186  0.79572417  1
  Al  Al7  1  0.22236822  0.20548250  0.54585572  1
  Al  Al8  1  0.77808556  0.09229041  0.29082579  1
  Al  Al9  1  0.89015877  0.20510155  0.04145247  1
  Al  Al10  1  0.44424082  0.09454627  0.79563774  1
  Al  Al11  1  0.55289994  0.20917002  0.54564418  1
  Al  Al12  1  0.11365825  0.42907984  0.29595034  1
  Al  Al13  1  0.22289005  0.53781838  0.04550680  1
  Al  Al14  1  0.77799795  0.42766766  0.79389235  1
  Al  Al15  1  0.89033581  0.53889629  0.54900238  1
  Al  Al16  1  0.44077732  0.42917678  0.29550861  1
  Al  Al17  1  0.55423211  0.53955064  0.04149931  1
  Al  Al18  1  0.11268547  0.42694588  0.79572417  1
  Al  Al19  1  0.22617729  0.53606239  0.54541302  1
  Al  Al20  1  0.89015881  0.53807296  0.04145247  1
  Al  Al21  1  0.44360274  0.42700870  0.79541902  1
  Al  Al22  1  0.55011494  0.54160928  0.54938327  1
  Al  Al23  1  0.11273551  0.76029887  0.29169460  1
  Al  Al24  1  0.22289001  0.87262480  0.04550679  1
  Al  Al25  1  0.77469091  0.76006189  0.79883934  1
  Al  Al26  1  0.44077724  0.76337938  0.29550864  1
  Al  Al27  1  0.55402931  0.87293868  0.04577821  1
  Al  Al28  1  0.11622232  0.75855542  0.79851249  1
  Al  Al29  1  0.22617723  0.87109359  0.54541304  1
  Al  Al30  1  0.77808558  0.76295751  0.29082577  1
  Al  Al31  1  0.88938119  0.87197608  0.04435754  1
  Al  Al32  1  0.44360267  0.76272198  0.79541901  1
  Al  Al33  1  0.55289997  0.87126351  0.54564416  1
  Sc  Sc34  1  0.77762178  0.42785587  0.30194227  1
  Sc  Sc35  1  0.88911292  0.87211026  0.54937752  1
  N  N36  1  0.22153595  0.20589865  0.35461478  1
  N  N37  1  0.11085445  0.09473856  0.10473327  1
  N  N38  1  0.89067176  0.20533045  0.85223105  1
  N  N39  1  0.76653132  0.11352250  0.61185166  1
  N  N40  1  0.55605624  0.20572429  0.35360531  1
  N  N41  1  0.44404687  0.09464323  0.10558738  1
  N  N42  1  0.22261628  0.20535845  0.85506767  1
  N  N43  1  0.11294469  0.09327758  0.60554912  1
  N  N44  1  0.89872423  0.18450728  0.36049875  1
  N  N45  1  0.77727963  0.09595908  0.10011755  1
  N  N46  1  0.55328458  0.20630832  0.85639924  1
  N  N47  1  0.44478354  0.09427496  0.60393096  1
  N  N48  1  0.22204940  0.53947138  0.35424821  1
  N  N49  1  0.11085449  0.42774013  0.10473325  1
  N  N50  1  0.89067179  0.53733101  0.85223103  1
  N  N51  1  0.77753744  0.42789800  0.59944234  1
  N  N52  1  0.53507276  0.54913036  0.36098743  1
  N  N53  1  0.44466213  0.42820662  0.10454760  1
  N  N54  1  0.22306394  0.53716983  0.85626573  1
  N  N55  1  0.11294474  0.42711092  0.60554910  1
  N  N56  1  0.89872427  0.55010196  0.36049872  1
  N  N57  1  0.77734923  0.42799205  0.09188300  1
  N  N58  1  0.55447830  0.53942757  0.85081999  1
  N  N59  1  0.44362154  0.42672282  0.60605919  1
  N  N60  1  0.22204934  0.87181250  0.35424826  1
  N  N61  1  0.11258202  0.76037558  0.10120982  1
  N  N62  1  0.88937895  0.87197714  0.85047918  1
  N  N63  1  0.76653134  0.75327959  0.61185164  1
  N  N64  1  0.55605624  0.87155294  0.35360530  1
  N  N65  1  0.44466209  0.76046463  0.10454762  1
  N  N66  1  0.22306385  0.87309946  0.85626572  1
  N  N67  1  0.13146214  0.75093553  0.61022398  1
  N  N68  1  0.88914879  0.87209234  0.33926012  1
  N  N69  1  0.77727966  0.76009460  0.10011753  1
  N  N70  1  0.55328455  0.87374047  0.85639924  1
  N  N71  1  0.44362150  0.76298915  0.60605917  1
