# generated using pymatgen
data_ScAl17N18
_symmetry_space_group_name_H-M   'P 1'
_cell_length_a   9.49484331
_cell_length_b   9.49313885
_cell_length_c   10.00171784
_cell_angle_alpha   89.99999940
_cell_angle_beta   89.98550571
_cell_angle_gamma   60.00598751
_symmetry_Int_Tables_number   1
_chemical_formula_structural   ScAl17N18
_chemical_formula_sum   'Sc2 Al34 N36'
_cell_volume   780.78065871
_cell_formula_units_Z   2
loop_
 _symmetry_equiv_pos_site_id
 _symmetry_equiv_pos_as_xyz
  1  'x, y, z'
loop_
 _atom_site_type_symbol
 _atom_site_label
 _atom_site_symmetry_multiplicity
 _atom_site_fract_x
 _atom_site_fract_y
 _atom_site_fract_z
 _atom_site_occupancy
  Al  Al0  1  0.11367205  0.09067868  0.30277804  1
  Al  Al1  1  0.22236689  0.20548321  0.05305303  1
  Al  Al2  1  0.77442080  0.09911941  0.80636890  1
  Al  Al3  1  0.89067995  0.20358761  0.55606268  1
  Al  Al4  1  0.44418410  0.09457460  0.30316746  1
  Al  Al5  1  0.55394467  0.20639946  0.05306474  1
  Al  Al6  1  0.11277525  0.09364998  0.80309101  1
  Al  Al7  1  0.22241246  0.20546044  0.55306299  1
  Al  Al8  1  0.77821010  0.09201489  0.29785919  1
  Al  Al9  1  0.89003513  0.20547065  0.04886570  1
  Al  Al10  1  0.44428288  0.09452526  0.80282156  1
  Al  Al11  1  0.55289803  0.20918001  0.55257431  1
  Al  Al12  1  0.11367196  0.42898260  0.30277791  1
  Al  Al13  1  0.22289862  0.53782918  0.05277441  1
  Al  Al14  1  0.77807723  0.42762801  0.80096876  1
  Al  Al15  1  0.89067991  0.53906581  0.55606268  1
  Al  Al16  1  0.44076270  0.42920420  0.30235602  1
  Al  Al17  1  0.55454847  0.53939244  0.04867149  1
  Al  Al18  1  0.11277521  0.42690809  0.80309086  1
  Al  Al19  1  0.22617072  0.53598204  0.55228833  1
  Al  Al20  1  0.89003503  0.53782769  0.04886556  1
  Al  Al21  1  0.44352662  0.42694177  0.80270374  1
  Al  Al22  1  0.54946329  0.54193503  0.55674164  1
  Al  Al23  1  0.11236519  0.76048404  0.29901988  1
  Al  Al24  1  0.22289866  0.87260565  0.05277456  1
  Al  Al25  1  0.77442077  0.75979311  0.80636890  1
  Al  Al26  1  0.44076266  0.76336649  0.30235597  1
  Al  Al27  1  0.55394468  0.87298927  0.05306464  1
  Al  Al28  1  0.11679623  0.75826859  0.80577619  1
  Al  Al29  1  0.22617069  0.87118061  0.55228831  1
  Al  Al30  1  0.77820993  0.76310834  0.29785916  1
  Al  Al31  1  0.88944557  0.87194391  0.05141719  1
  Al  Al32  1  0.44352657  0.76286490  0.80270362  1
  Al  Al33  1  0.55289805  0.87125532  0.55257426  1
  Sc  Sc34  1  0.77740512  0.42796416  0.31122616  1
  Sc  Sc35  1  0.88897765  0.87217760  0.55883150  1
  N  N36  1  0.22134415  0.20599469  0.36040586  1
  N  N37  1  0.11095940  0.09476488  0.11037231  1
  N  N38  1  0.89077032  0.20534717  0.85818917  1
  N  N39  1  0.76623731  0.11418749  0.61792277  1
  N  N40  1  0.55609845  0.20585564  0.35914462  1
  N  N41  1  0.44400343  0.09466498  0.11150204  1
  N  N42  1  0.22273140  0.20530102  0.86083769  1
  N  N43  1  0.11295638  0.09316261  0.61148511  1
  N  N44  1  0.89901571  0.18398926  0.36612547  1
  N  N45  1  0.77725713  0.09597523  0.10566224  1
  N  N46  1  0.55315231  0.20631697  0.86243734  1
  N  N47  1  0.44505388  0.09413979  0.60957359  1
  N  N48  1  0.22202761  0.53936915  0.35980765  1
  N  N49  1  0.11095934  0.42760899  0.11037207  1
  N  N50  1  0.89077031  0.53721591  0.85818907  1
  N  N51  1  0.77758046  0.42787629  0.60412954  1
  N  N52  1  0.53430521  0.54951405  0.36694188  1
  N  N53  1  0.44470885  0.42823432  0.11015885  1
  N  N54  1  0.22305658  0.53717451  0.86225355  1
  N  N55  1  0.11295636  0.42721418  0.61148483  1
  N  N56  1  0.89901578  0.55032854  0.36612544  1
  N  N57  1  0.77726799  0.42803264  0.09812280  1
  N  N58  1  0.55444790  0.53944272  0.85636958  1
  N  N59  1  0.44353365  0.42662848  0.61197611  1
  N  N60  1  0.22202748  0.87193665  0.35980770  1
  N  N61  1  0.11259748  0.76036792  0.10702507  1
  N  N62  1  0.88944560  0.87194397  0.85528920  1
  N  N63  1  0.76623737  0.75290832  0.61792289  1
  N  N64  1  0.55609845  0.87137945  0.35914444  1
  N  N65  1  0.44470890  0.76039002  0.11015871  1
  N  N66  1  0.22305655  0.87310238  0.86225373  1
  N  N67  1  0.13208002  0.75062657  0.61595762  1
  N  N68  1  0.88905038  0.87214152  0.34560889  1
  N  N69  1  0.77725715  0.76010095  0.10566221  1
  N  N70  1  0.55315223  0.87386425  0.86243714  1
  N  N71  1  0.44353357  0.76317105  0.61197594  1
