# generated using pymatgen
data_ScAl17N18
_symmetry_space_group_name_H-M   'P 1'
_cell_length_a   9.89325474
_cell_length_b   9.88867411
_cell_length_c   8.81889448
_cell_angle_alpha   89.99999984
_cell_angle_beta   89.99482441
_cell_angle_gamma   60.01559089
_symmetry_Int_Tables_number   1
_chemical_formula_structural   ScAl17N18
_chemical_formula_sum   'Sc2 Al34 N36'
_cell_volume   747.29184011
_cell_formula_units_Z   2
loop_
 _symmetry_equiv_pos_site_id
 _symmetry_equiv_pos_as_xyz
  1  'x, y, z'
loop_
 _atom_site_type_symbol
 _atom_site_label
 _atom_site_symmetry_multiplicity
 _atom_site_fract_x
 _atom_site_fract_y
 _atom_site_fract_z
 _atom_site_occupancy
  Al  Al0  1  0.11393705  0.09174354  0.33893519  1
  Al  Al1  1  0.22345971  0.20493696  0.08869755  1
  Al  Al2  1  0.77362191  0.09921160  0.84835324  1
  Al  Al3  1  0.89081170  0.20360122  0.59666470  1
  Al  Al4  1  0.44317498  0.09507903  0.34272301  1
  Al  Al5  1  0.55264587  0.20608824  0.09202825  1
  Al  Al6  1  0.11336251  0.09301412  0.84173096  1
  Al  Al7  1  0.22166087  0.20583640  0.59201010  1
  Al  Al8  1  0.77765359  0.09308488  0.33406327  1
  Al  Al9  1  0.89131240  0.20422420  0.08768172  1
  Al  Al10  1  0.44481460  0.09425920  0.83792133  1
  Al  Al11  1  0.55307308  0.20932609  0.58811273  1
  Al  Al12  1  0.11393694  0.42765266  0.33893513  1
  Al  Al13  1  0.22269692  0.53799983  0.09122387  1
  Al  Al14  1  0.77857911  0.42737698  0.84503030  1
  Al  Al15  1  0.89081168  0.53892067  0.59666477  1
  Al  Al16  1  0.44145815  0.42936220  0.33774470  1
  Al  Al17  1  0.55320735  0.54006304  0.08425223  1
  Al  Al18  1  0.11336252  0.42695659  0.84173100  1
  Al  Al19  1  0.22620490  0.53534499  0.58866641  1
  Al  Al20  1  0.89131237  0.53779699  0.08768171  1
  Al  Al21  1  0.44283778  0.42600083  0.84175511  1
  Al  Al22  1  0.54935363  0.54198998  0.59907354  1
  Al  Al23  1  0.11363588  0.75984865  0.33835842  1
  Al  Al24  1  0.22269689  0.87263694  0.09122378  1
  Al  Al25  1  0.77362196  0.76049957  0.84835326  1
  Al  Al26  1  0.44145813  0.76251267  0.33774464  1
  Al  Al27  1  0.55264588  0.87459934  0.09202827  1
  Al  Al28  1  0.11719962  0.75806675  0.84493777  1
  Al  Al29  1  0.22620494  0.87178374  0.58866650  1
  Al  Al30  1  0.77765360  0.76259455  0.33406330  1
  Al  Al31  1  0.89042480  0.87145438  0.09330527  1
  Al  Al32  1  0.44283781  0.76449439  0.84175517  1
  Al  Al33  1  0.55307317  0.87093426  0.58811271  1
  Sc  Sc34  1  0.77626195  0.42853542  0.35259928  1
  Sc  Sc35  1  0.88839217  0.87247089  0.60271270  1
  N  N36  1  0.22070186  0.20631602  0.36956875  1
  N  N37  1  0.11228803  0.09500797  0.11611928  1
  N  N38  1  0.89139237  0.20494955  0.86616521  1
  N  N39  1  0.76619194  0.11341240  0.62491926  1
  N  N40  1  0.55598242  0.20650938  0.36412401  1
  N  N41  1  0.44270712  0.09531285  0.12188274  1
  N  N42  1  0.22400688  0.20466347  0.86631172  1
  N  N43  1  0.11301647  0.09265558  0.61989573  1
  N  N44  1  0.89871443  0.18596243  0.36909769  1
  N  N45  1  0.77690988  0.09571107  0.11047056  1
  N  N46  1  0.55198818  0.20576638  0.87193600  1
  N  N47  1  0.44560172  0.09386554  0.61396081  1
  N  N48  1  0.22277212  0.53779964  0.36482447  1
  N  N49  1  0.11228801  0.42603702  0.11611924  1
  N  N50  1  0.89139234  0.53699184  0.86616518  1
  N  N51  1  0.77830982  0.42751156  0.61579832  1
  N  N52  1  0.53517610  0.54907882  0.37403544  1
  N  N53  1  0.44483630  0.42841305  0.11572011  1
  N  N54  1  0.22276193  0.53767609  0.87122233  1
  N  N55  1  0.11301643  0.42766096  0.61989573  1
  N  N56  1  0.89871432  0.54865683  0.36909762  1
  N  N57  1  0.77641720  0.42845786  0.10431255  1
  N  N58  1  0.55389281  0.53972040  0.86146830  1
  N  N59  1  0.44300237  0.42596385  0.62061946  1
  N  N60  1  0.22277216  0.87276203  0.36482455  1
  N  N61  1  0.11281029  0.76026137  0.11555456  1
  N  N62  1  0.89047986  0.87142693  0.86612658  1
  N  N63  1  0.76619208  0.75372857  0.62491919  1
  N  N64  1  0.55598241  0.87084186  0.36412400  1
  N  N65  1  0.44483626  0.76008348  0.11572001  1
  N  N66  1  0.22276187  0.87289585  0.87122226  1
  N  N67  1  0.13138989  0.75097152  0.61918579  1
  N  N68  1  0.88835927  0.87248721  0.35326486  1
  N  N69  1  0.77690990  0.76071196  0.11047057  1
  N  N70  1  0.55198826  0.87557908  0.87193600  1
  N  N71  1  0.44300239  0.76436665  0.62061957  1
