# generated using pymatgen
data_ScAl17N18
_symmetry_space_group_name_H-M   'P 1'
_cell_length_a   9.84804217
_cell_length_b   9.84364241
_cell_length_c   8.96039920
_cell_angle_alpha   89.99999978
_cell_angle_beta   89.99319338
_cell_angle_gamma   60.01541554
_symmetry_Int_Tables_number   1
_chemical_formula_structural   ScAl17N18
_chemical_formula_sum   'Sc2 Al34 N36'
_cell_volume   752.36945501
_cell_formula_units_Z   2
loop_
 _symmetry_equiv_pos_site_id
 _symmetry_equiv_pos_as_xyz
  1  'x, y, z'
loop_
 _atom_site_type_symbol
 _atom_site_label
 _atom_site_symmetry_multiplicity
 _atom_site_fract_x
 _atom_site_fract_y
 _atom_site_fract_z
 _atom_site_occupancy
  Al  Al0  1  0.11386998  0.09169432  0.33607370  1
  Al  Al1  1  0.22345432  0.20493979  0.08594111  1
  Al  Al2  1  0.77337125  0.09968936  0.84548439  1
  Al  Al3  1  0.89098207  0.20310547  0.59313064  1
  Al  Al4  1  0.44317775  0.09507754  0.34004333  1
  Al  Al5  1  0.55257880  0.20612809  0.08939355  1
  Al  Al6  1  0.11339492  0.09299520  0.83873364  1
  Al  Al7  1  0.22165521  0.20583932  0.58904299  1
  Al  Al8  1  0.77800736  0.09261489  0.33113105  1
  Al  Al9  1  0.89112353  0.20476135  0.08470489  1
  Al  Al10  1  0.44483077  0.09425101  0.83498539  1
  Al  Al11  1  0.55316545  0.20938054  0.58509800  1
  Al  Al12  1  0.11386974  0.42776862  0.33607371  1
  Al  Al13  1  0.22269412  0.53800116  0.08852613  1
  Al  Al14  1  0.77870223  0.42731527  0.84098380  1
  Al  Al15  1  0.89098201  0.53924639  0.59313080  1
  Al  Al16  1  0.44142020  0.42953316  0.33498063  1
  Al  Al17  1  0.55367308  0.53983037  0.08136795  1
  Al  Al18  1  0.11339494  0.42694276  0.83873360  1
  Al  Al19  1  0.22629439  0.53533735  0.58551226  1
  Al  Al20  1  0.89112349  0.53744899  0.08470481  1
  Al  Al21  1  0.44277169  0.42590070  0.83878645  1
  Al  Al22  1  0.54884800  0.54224304  0.59620163  1
  Al  Al23  1  0.11310085  0.76011596  0.33543794  1
  Al  Al24  1  0.22269410  0.87263862  0.08852597  1
  Al  Al25  1  0.77337137  0.76027219  0.84548445  1
  Al  Al26  1  0.44142020  0.76237948  0.33498057  1
  Al  Al27  1  0.55257884  0.87462689  0.08939352  1
  Al  Al28  1  0.11774616  0.75779326  0.84166474  1
  Al  Al29  1  0.22629445  0.87170206  0.58551245  1
  Al  Al30  1  0.77800734  0.76271041  0.33113105  1
  Al  Al31  1  0.89050336  0.87141525  0.08965464  1
  Al  Al32  1  0.44277173  0.76466039  0.83878650  1
  Al  Al33  1  0.55316563  0.87078779  0.58509800  1
  Sc  Sc34  1  0.77619110  0.42857054  0.35165242  1
  Sc  Sc35  1  0.88830432  0.87251506  0.60157944  1
  N  N36  1  0.22064070  0.20634685  0.37231888  1
  N  N37  1  0.11209561  0.09508736  0.11918487  1
  N  N38  1  0.89141856  0.20516536  0.86887938  1
  N  N39  1  0.76576337  0.11403793  0.62848551  1
  N  N40  1  0.55617362  0.20646897  0.36694329  1
  N  N41  1  0.44270179  0.09531524  0.12472114  1
  N  N42  1  0.22398643  0.20467396  0.86930054  1
  N  N43  1  0.11314467  0.09256245  0.62269906  1
  N  N44  1  0.89893053  0.18523367  0.37290404  1
  N  N45  1  0.77710825  0.09563525  0.11304943  1
  N  N46  1  0.55183228  0.20583308  0.87484614  1
  N  N47  1  0.44565196  0.09384018  0.61678637  1
  N  N48  1  0.22269562  0.53795526  0.36773601  1
  N  N49  1  0.11209552  0.42614946  0.11918492  1
  N  N50  1  0.89141854  0.53675045  0.86887927  1
  N  N51  1  0.77836259  0.42748491  0.61646820  1
  N  N52  1  0.53449339  0.54942056  0.37761139  1
  N  N53  1  0.44491431  0.42852781  0.11867415  1
  N  N54  1  0.22281585  0.53753817  0.87413250  1
  N  N55  1  0.11314461  0.42762521  0.62269896  1
  N  N56  1  0.89893026  0.54917009  0.37290401  1
  N  N57  1  0.77640313  0.42846463  0.10797224  1
  N  N58  1  0.55406758  0.53963332  0.86390231  1
  N  N59  1  0.44290115  0.42584495  0.62341599  1
  N  N60  1  0.22269568  0.87268335  0.36773616  1
  N  N61  1  0.11267396  0.76032924  0.11822019  1
  N  N62  1  0.89049053  0.87142187  0.86689019  1
  N  N63  1  0.76576363  0.75353103  0.62848542  1
  N  N64  1  0.55617360  0.87069175  0.36694334  1
  N  N65  1  0.44491428  0.75989026  0.11867399  1
  N  N66  1  0.22281576  0.87298032  0.87413235  1
  N  N67  1  0.13203225  0.75064995  0.62278103  1
  N  N68  1  0.88833551  0.87249933  0.35669285  1
  N  N69  1  0.77710826  0.76058881  0.11304942  1
  N  N70  1  0.55183245  0.87566890  0.87484607  1
  N  N71  1  0.44290117  0.76458634  0.62341618  1
