# generated using pymatgen
data_ScAl17N18
_symmetry_space_group_name_H-M   'P 1'
_cell_length_a   9.89152203
_cell_length_b   9.88695248
_cell_length_c   8.82429961
_cell_angle_alpha   89.99999950
_cell_angle_beta   89.99475439
_cell_angle_gamma   60.01559943
_symmetry_Int_Tables_number   1
_chemical_formula_structural   ScAl17N18
_chemical_formula_sum   'Sc2 Al34 N36'
_cell_volume   747.48879915
_cell_formula_units_Z   2
loop_
 _symmetry_equiv_pos_site_id
 _symmetry_equiv_pos_as_xyz
  1  'x, y, z'
loop_
 _atom_site_type_symbol
 _atom_site_label
 _atom_site_symmetry_multiplicity
 _atom_site_fract_x
 _atom_site_fract_y
 _atom_site_fract_z
 _atom_site_occupancy
  Al  Al0  1  0.11355826  0.09068832  0.37066579  1
  Al  Al1  1  0.22182422  0.20575469  0.12085423  1
  Al  Al2  1  0.77532925  0.09576860  0.87109318  1
  Al  Al3  1  0.88897101  0.20694815  0.62472531  1
  Al  Al4  1  0.44497660  0.09417824  0.36676964  1
  Al  Al5  1  0.55327322  0.20700037  0.11704937  1
  Al  Al6  1  0.11399936  0.09392164  0.86673433  1
  Al  Al7  1  0.22346172  0.20493593  0.61604097  1
  Al  Al8  1  0.77582175  0.09643341  0.36213357  1
  Al  Al9  1  0.89302526  0.20078445  0.11040360  1
  Al  Al10  1  0.44317903  0.09507702  0.87006338  1
  Al  Al11  1  0.55270387  0.20827367  0.61983050  1
  Al  Al12  1  0.11355811  0.42908654  0.37066580  1
  Al  Al13  1  0.22380472  0.53550833  0.11702446  1
  Al  Al14  1  0.77620405  0.42856449  0.86549135  1
  Al  Al15  1  0.88897098  0.53741454  0.62472529  1
  Al  Al16  1  0.44042906  0.42823350  0.37011686  1
  Al  Al17  1  0.54941627  0.54195871  0.11385538  1
  Al  Al18  1  0.11399934  0.42541209  0.86673433  1
  Al  Al19  1  0.22517933  0.53751060  0.62101888  1
  Al  Al20  1  0.89302517  0.53952390  0.11040358  1
  Al  Al21  1  0.44394077  0.42737808  0.86753992  1
  Al  Al22  1  0.55302196  0.54015584  0.62041010  1
  Al  Al23  1  0.11730253  0.75801520  0.35968284  1
  Al  Al24  1  0.22380475  0.87402054  0.11702447  1
  Al  Al25  1  0.77532928  0.76223522  0.87109315  1
  Al  Al26  1  0.44042909  0.76467049  0.37011695  1
  Al  Al27  1  0.55327321  0.87306000  0.11704938  1
  Al  Al28  1  0.11341351  0.75995978  0.87453367  1
  Al  Al29  1  0.22517932  0.87064366  0.62101886  1
  Al  Al30  1  0.77582180  0.76107783  0.36213355  1
  Al  Al31  1  0.88804883  0.87264240  0.11377924  1
  Al  Al32  1  0.44394076  0.76201423  0.86753984  1
  Al  Al33  1  0.55270401  0.87235601  0.61983050  1
  Sc  Sc34  1  0.77825538  0.42753853  0.35598176  1
  Sc  Sc35  1  0.89038370  0.87147525  0.60608816  1
  N  N36  1  0.22103375  0.20615004  0.34457953  1
  N  N37  1  0.11465972  0.09424462  0.08659426  1
  N  N38  1  0.88971993  0.20430551  0.84809109  1
  N  N39  1  0.76791851  0.11408108  0.58939789  1
  N  N40  1  0.55361578  0.20736215  0.33864480  1
  N  N41  1  0.44263206  0.09535040  0.09221577  1
  N  N42  1  0.22393161  0.20470111  0.83665060  1
  N  N43  1  0.11064458  0.09350766  0.59441660  1
  N  N44  1  0.90046444  0.18657733  0.33357457  1
  N  N45  1  0.77524035  0.09505695  0.09237695  1
  N  N46  1  0.55435667  0.20500437  0.84240183  1
  N  N47  1  0.44593802  0.09369740  0.58897164  1
  N  N48  1  0.22364014  0.53563506  0.33791827  1
  N  N49  1  0.11465965  0.42442851  0.08659426  1
  N  N50  1  0.88971991  0.53930837  0.84809114  1
  N  N51  1  0.77828200  0.42752542  0.60526197  1
  N  N52  1  0.53522475  0.54905456  0.33932097  1
  N  N53  1  0.44387414  0.42711393  0.08731078  1
  N  N54  1  0.22179731  0.53994252  0.84281085  1
  N  N55  1  0.11064459  0.42918056  0.59441661  1
  N  N56  1  0.90046424  0.54629199  0.33357460  1
  N  N57  1  0.77615368  0.42858956  0.09249808  1
  N  N58  1  0.55382986  0.53975197  0.84298792  1
  N  N59  1  0.44386757  0.42725670  0.59370666  1
  N  N60  1  0.22364013  0.87405856  0.33791836  1
  N  N61  1  0.11273885  0.76029701  0.09710038  1
  N  N62  1  0.89022431  0.87155478  0.85420241  1
  N  N63  1  0.76791869  0.75133335  0.58939801  1
  N  N64  1  0.55361580  0.87235594  0.33864485  1
  N  N65  1  0.44387409  0.76234482  0.08731072  1
  N  N66  1  0.22179728  0.87159401  0.84281080  1
  N  N67  1  0.13148882  0.75092198  0.58445647  1
  N  N68  1  0.88832261  0.87250561  0.34283084  1
  N  N69  1  0.77524036  0.76303555  0.09237696  1
  N  N70  1  0.55435668  0.87397279  0.84240184  1
  N  N71  1  0.44386757  0.76220860  0.59370674  1
