# generated using pymatgen
data_ScAl17N18
_symmetry_space_group_name_H-M   'P 1'
_cell_length_a   9.97646920
_cell_length_b   9.97171407
_cell_length_c   8.56212402
_cell_angle_alpha   90.00000006
_cell_angle_beta   89.99726744
_cell_angle_gamma   60.01566623
_symmetry_Int_Tables_number   1
_chemical_formula_structural   ScAl17N18
_chemical_formula_sum   'Sc2 Al34 N36'
_cell_volume   737.78082821
_cell_formula_units_Z   2
loop_
 _symmetry_equiv_pos_site_id
 _symmetry_equiv_pos_as_xyz
  1  'x, y, z'
loop_
 _atom_site_type_symbol
 _atom_site_label
 _atom_site_symmetry_multiplicity
 _atom_site_fract_x
 _atom_site_fract_y
 _atom_site_fract_z
 _atom_site_occupancy
  Al  Al0  1  0.11410775  0.09158201  0.34619597  1
  Al  Al1  1  0.22316223  0.20508555  0.09590792  1
  Al  Al2  1  0.77426010  0.09840697  0.85369131  1
  Al  Al3  1  0.89055754  0.20455418  0.60397756  1
  Al  Al4  1  0.44348678  0.09492324  0.34823196  1
  Al  Al5  1  0.55315948  0.20604939  0.09778267  1
  Al  Al6  1  0.11313271  0.09333881  0.84880559  1
  Al  Al7  1  0.22197534  0.20567904  0.59869389  1
  Al  Al8  1  0.77690763  0.09394003  0.34175641  1
  Al  Al9  1  0.89153311  0.20314663  0.09495728  1
  Al  Al10  1  0.44452728  0.09440300  0.84597309  1
  Al  Al11  1  0.55270970  0.20911870  0.59608288  1
  Al  Al12  1  0.11410773  0.42764379  0.34619590  1
  Al  Al13  1  0.22273821  0.53790161  0.09738252  1
  Al  Al14  1  0.77811128  0.42761109  0.85162175  1
  Al  Al15  1  0.89055753  0.53822152  0.60397753  1
  Al  Al16  1  0.44131680  0.42884003  0.34489219  1
  Al  Al17  1  0.55237004  0.54048155  0.09206096  1
  Al  Al18  1  0.11313266  0.42686204  0.84880565  1
  Al  Al19  1  0.22594490  0.53553021  0.59691193  1
  Al  Al20  1  0.89153310  0.53865358  0.09495738  1
  Al  Al21  1  0.44323515  0.42648295  0.84858912  1
  Al  Al22  1  0.55026023  0.54153647  0.60413079  1
  Al  Al23  1  0.11468872  0.75932242  0.34508530  1
  Al  Al24  1  0.22273825  0.87269352  0.09738254  1
  Al  Al25  1  0.77426007  0.76066629  0.85369129  1
  Al  Al26  1  0.44131681  0.76317644  0.34489215  1
  Al  Al27  1  0.55315951  0.87412423  0.09778271  1
  Al  Al28  1  0.11609878  0.75861737  0.85215025  1
  Al  Al29  1  0.22594495  0.87185826  0.59691191  1
  Al  Al30  1  0.77690762  0.76248575  0.34175645  1
  Al  Al31  1  0.88995448  0.87168936  0.09941949  1
  Al  Al32  1  0.44323521  0.76361520  0.84858913  1
  Al  Al33  1  0.55270972  0.87150470  0.59608282  1
  Sc  Sc34  1  0.77662287  0.42835539  0.35379771  1
  Sc  Sc35  1  0.88881054  0.87226124  0.60419796  1
  N  N36  1  0.22108859  0.20612237  0.36246467  1
  N  N37  1  0.11270416  0.09466781  0.10893239  1
  N  N38  1  0.89109320  0.20464681  0.86051689  1
  N  N39  1  0.76724246  0.11231327  0.61578268  1
  N  N40  1  0.55533806  0.20651718  0.35806298  1
  N  N41  1  0.44298441  0.09517447  0.11397719  1
  N  N42  1  0.22376078  0.20478624  0.85961986  1
  N  N43  1  0.11258194  0.09306686  0.61297453  1
  N  N44  1  0.89843013  0.18736683  0.35995585  1
  N  N45  1  0.77644429  0.09570976  0.10574899  1
  N  N46  1  0.55266734  0.20571744  0.86431871  1
  N  N47  1  0.44532179  0.09400577  0.60829553  1
  N  N48  1  0.22285836  0.53757536  0.35832626  1
  N  N49  1  0.11270418  0.42596164  0.10893231  1
  N  N50  1  0.89109317  0.53759317  0.86051693  1
  N  N51  1  0.77808050  0.42762652  0.61454438  1
  N  N52  1  0.53646751  0.54843274  0.36471464  1
  N  N53  1  0.44452166  0.42799444  0.10896194  1
  N  N54  1  0.22266080  0.53796626  0.86370807  1
  N  N55  1  0.11258187  0.42768491  0.61297461  1
  N  N56  1  0.89843016  0.54753617  0.35995575  1
  N  N57  1  0.77659274  0.42837040  0.09844937  1
  N  N58  1  0.55371344  0.53980982  0.85715818  1
  N  N59  1  0.44335218  0.42643586  0.61362901  1
  N  N60  1  0.22285841  0.87289952  0.35832625  1
  N  N61  1  0.11294862  0.76019250  0.10958666  1
  N  N62  1  0.89023775  0.87154766  0.86461805  1
  N  N63  1  0.76724242  0.75377774  0.61578262  1
  N  N64  1  0.55533808  0.87147773  0.35806295  1
  N  N65  1  0.44452169  0.76081729  0.10896199  1
  N  N66  1  0.22266084  0.87270620  0.86370810  1
  N  N67  1  0.13013837  0.75159768  0.61090642  1
  N  N68  1  0.88856359  0.87238476  0.34782181  1
  N  N69  1  0.77644427  0.76117948  0.10574903  1
  N  N70  1  0.55266736  0.87494824  0.86431876  1
  N  N71  1  0.44335222  0.76354536  0.61362903  1
