# generated using pymatgen
data_ScAl17N18
_symmetry_space_group_name_H-M   'P 1'
_cell_length_a   9.84652219
_cell_length_b   9.84213855
_cell_length_c   8.96514012
_cell_angle_alpha   89.99999976
_cell_angle_beta   89.99319873
_cell_angle_gamma   60.01540728
_symmetry_Int_Tables_number   1
_chemical_formula_structural   ScAl17N18
_chemical_formula_sum   'Sc2 Al34 N36'
_cell_volume   752.53629814
_cell_formula_units_Z   2
loop_
 _symmetry_equiv_pos_site_id
 _symmetry_equiv_pos_as_xyz
  1  'x, y, z'
loop_
 _atom_site_type_symbol
 _atom_site_label
 _atom_site_symmetry_multiplicity
 _atom_site_fract_x
 _atom_site_fract_y
 _atom_site_fract_z
 _atom_site_occupancy
  Al  Al0  1  0.11346875  0.09063411  0.37364348  1
  Al  Al1  1  0.22180962  0.20576212  0.12375208  1
  Al  Al2  1  0.77551911  0.09523534  0.87403555  1
  Al  Al3  1  0.88862053  0.20741584  0.62761734  1
  Al  Al4  1  0.44498013  0.09417638  0.36970444  1
  Al  Al5  1  0.55324351  0.20701703  0.12001162  1
  Al  Al6  1  0.11406130  0.09388278  0.86934563  1
  Al  Al7  1  0.22345709  0.20493835  0.61870073  1
  Al  Al8  1  0.77565164  0.09692500  0.36563840  1
  Al  Al9  1  0.89327255  0.20030971  0.11325436  1
  Al  Al10  1  0.44318663  0.09507309  0.87278652  1
  Al  Al11  1  0.55276990  0.20832440  0.62265922  1
  Al  Al12  1  0.11346855  0.42922994  0.37364347  1
  Al  Al13  1  0.22386811  0.53534896  0.11995985  1
  Al  Al14  1  0.77612908  0.42860183  0.86912217  1
  Al  Al15  1  0.88862054  0.53729764  0.62761734  1
  Al  Al16  1  0.44034043  0.42831508  0.37323201  1
  Al  Al17  1  0.54887534  0.54222936  0.11709649  1
  Al  Al18  1  0.11406127  0.42538871  0.86934567  1
  Al  Al19  1  0.22521909  0.53763909  0.62375227  1
  Al  Al20  1  0.89327240  0.53975161  0.11325429  1
  Al  Al21  1  0.44394368  0.42737633  0.87021013  1
  Al  Al22  1  0.55355385  0.53989008  0.62330008  1
  Al  Al23  1  0.11780468  0.75776391  0.36253821  1
  Al  Al24  1  0.22386813  0.87411676  0.11995988  1
  Al  Al25  1  0.77551914  0.76257834  0.87403563  1
  Al  Al26  1  0.44034047  0.76467734  0.37323217  1
  Al  Al27  1  0.55324347  0.87307338  0.12001169  1
  Al  Al28  1  0.11294889  0.76019194  0.87737735  1
  Al  Al29  1  0.22521908  0.87047562  0.62375222  1
  Al  Al30  1  0.77565170  0.76075604  0.36563825  1
  Al  Al31  1  0.88792906  0.87270244  0.11780881  1
  Al  Al32  1  0.44394365  0.76201281  0.87020999  1
  Al  Al33  1  0.55277012  0.87223955  0.62265919  1
  Sc  Sc34  1  0.77833980  0.42749612  0.35711755  1
  Sc  Sc35  1  0.89045148  0.87144152  0.60703872  1
  N  N36  1  0.22098498  0.20617466  0.34177485  1
  N  N37  1  0.11480996  0.09417848  0.08372014  1
  N  N38  1  0.88952325  0.20438289  0.84552526  1
  N  N39  1  0.76770246  0.11480469  0.58563721  1
  N  N40  1  0.55349100  0.20745255  0.33587122  1
  N  N41  1  0.44265444  0.09533897  0.08925558  1
  N  N42  1  0.22393429  0.20470004  0.83385099  1
  N  N43  1  0.11045765  0.09354797  0.59162182  1
  N  N44  1  0.90088736  0.18595478  0.33005477  1
  N  N45  1  0.77521797  0.09484072  0.08968540  1
  N  N46  1  0.55454727  0.20492696  0.83936923  1
  N  N47  1  0.44599643  0.09366794  0.58625317  1
  N  N48  1  0.22373910  0.53542127  0.33515141  1
  N  N49  1  0.11480979  0.42434387  0.08372023  1
  N  N50  1  0.88952322  0.53942824  0.84552532  1
  N  N51  1  0.77830410  0.42751415  0.60184701  1
  N  N52  1  0.53458710  0.54937375  0.33576469  1
  N  N53  1  0.44382121  0.42703104  0.08443456  1
  N  N54  1  0.22172108  0.54013110  0.83988724  1
  N  N55  1  0.11045767  0.42932659  0.59162178  1
  N  N56  1  0.90088705  0.54649219  0.33005487  1
  N  N57  1  0.77614524  0.42859353  0.09173772  1
  N  N58  1  0.55396753  0.53968341  0.84034699  1
  N  N59  1  0.44394373  0.42733477  0.59082316  1
  N  N60  1  0.22373908  0.87417383  0.33515157  1
  N  N61  1  0.11256242  0.76038496  0.09467681  1
  N  N62  1  0.89023634  0.87154900  0.85055767  1
  N  N63  1  0.76770274  0.75082520  0.58563729  1
  N  N64  1  0.55349102  0.87239093  0.33587134  1
  N  N65  1  0.44382112  0.76248020  0.08443444  1
  N  N66  1  0.22172104  0.87148213  0.83988709  1
  N  N67  1  0.13216701  0.75058252  0.58092777  1
  N  N68  1  0.88827139  0.87253145  0.34216472  1
  N  N69  1  0.77521798  0.76327359  0.08968553  1
  N  N70  1  0.55454733  0.87386013  0.83936918  1
  N  N71  1  0.44394376  0.76205391  0.59082329  1
