# generated using pymatgen
data_Sc2Al7N9
_symmetry_space_group_name_H-M   'P 1'
_cell_length_a   9.73927744
_cell_length_b   9.74090973
_cell_length_c   10.13937016
_cell_angle_alpha   90.05632282
_cell_angle_beta   89.92472716
_cell_angle_gamma   59.84435864
_symmetry_Int_Tables_number   1
_chemical_formula_structural   Sc2Al7N9
_chemical_formula_sum   'Sc8 Al28 N36'
_cell_volume   831.73206505
_cell_formula_units_Z   4
loop_
 _symmetry_equiv_pos_site_id
 _symmetry_equiv_pos_as_xyz
  1  'x, y, z'
loop_
 _atom_site_type_symbol
 _atom_site_label
 _atom_site_symmetry_multiplicity
 _atom_site_fract_x
 _atom_site_fract_y
 _atom_site_fract_z
 _atom_site_occupancy
  Sc  Sc0  1  0.10951549  0.09310190  0.42029042  1
  Sc  Sc1  1  0.22113400  0.21441271  0.15364799  1
  Sc  Sc2  1  0.10877334  0.09708411  0.88523056  1
  Sc  Sc3  1  0.77997800  0.42956632  0.39061524  1
  Sc  Sc4  1  0.55650504  0.53435407  0.65077275  1
  Sc  Sc5  1  0.21927837  0.86804646  0.14941966  1
  Sc  Sc6  1  0.88828076  0.87327898  0.64720526  1
  Sc  Sc7  1  0.56042240  0.87111046  0.15139034  1
  Al  Al8  1  0.77143683  0.09595341  0.91054614  1
  Al  Al9  1  0.87971227  0.21189957  0.66471187  1
  Al  Al10  1  0.44817173  0.09534281  0.41521734  1
  Al  Al11  1  0.55746005  0.20795301  0.15735620  1
  Al  Al12  1  0.22747982  0.21178343  0.66073343  1
  Al  Al13  1  0.77068791  0.09716390  0.40415599  1
  Al  Al14  1  0.88265378  0.20384864  0.15269946  1
  Al  Al15  1  0.45042910  0.09901492  0.90209018  1
  Al  Al16  1  0.55249398  0.20770211  0.65780557  1
  Al  Al17  1  0.11366579  0.43498260  0.41236979  1
  Al  Al18  1  0.21961433  0.53951219  0.15706139  1
  Al  Al19  1  0.77334359  0.43108237  0.91519888  1
  Al  Al20  1  0.89166976  0.53422858  0.66074732  1
  Al  Al21  1  0.43703825  0.42514956  0.40484153  1
  Al  Al22  1  0.55152219  0.53559007  0.15823269  1
  Al  Al23  1  0.11176135  0.43511321  0.90468735  1
  Al  Al24  1  0.22434540  0.53442240  0.65905990  1
  Al  Al25  1  0.89468971  0.54404016  0.15382479  1
  Al  Al26  1  0.44441114  0.42632477  0.91019152  1
  Al  Al27  1  0.11730507  0.75298993  0.40792104  1
  Al  Al28  1  0.78161728  0.75943055  0.90651754  1
  Al  Al29  1  0.44061131  0.76407045  0.41213543  1
  Al  Al30  1  0.11014336  0.75321601  0.90883161  1
  Al  Al31  1  0.22796385  0.86290137  0.66464145  1
  Al  Al32  1  0.77761907  0.76000063  0.40972808  1
  Al  Al33  1  0.88887674  0.87042161  0.15890588  1
  Al  Al34  1  0.45078840  0.75129909  0.90646788  1
  Al  Al35  1  0.55309278  0.87307772  0.65921148  1
  N  N36  1  0.22974880  0.21493698  0.36564031  1
  N  N37  1  0.09347319  0.10620543  0.09560381  1
  N  N38  1  0.86119874  0.21921039  0.85164039  1
  N  N39  1  0.76593753  0.11656213  0.59318676  1
  N  N40  1  0.55344245  0.20434840  0.34741207  1
  N  N41  1  0.45519062  0.10511913  0.08781489  1
  N  N42  1  0.23436935  0.21971153  0.84876006  1
  N  N43  1  0.11037234  0.09307175  0.63667847  1
  N  N44  1  0.88250549  0.19175284  0.33852440  1
  N  N45  1  0.77569927  0.09241631  0.10041928  1
  N  N46  1  0.55713458  0.20777319  0.84696005  1
  N  N47  1  0.44866913  0.09266295  0.60525052  1
  N  N48  1  0.22164772  0.53806554  0.34671682  1
  N  N49  1  0.10408843  0.44650322  0.09080135  1
  N  N50  1  0.88839847  0.53720144  0.85180371  1
  N  N51  1  0.79972501  0.41702552  0.59903494  1
  N  N52  1  0.53427192  0.54734789  0.35215014  1
  N  N53  1  0.44294506  0.42696370  0.10140410  1
  N  N54  1  0.22478373  0.53809404  0.84828535  1
  N  N55  1  0.10940855  0.43201376  0.60295696  1
  N  N56  1  0.90297140  0.55000436  0.34210894  1
  N  N57  1  0.77713472  0.43021551  0.11093041  1
  N  N58  1  0.55784397  0.53380992  0.85959156  1
  N  N59  1  0.43302414  0.41642021  0.59306142  1
  N  N60  1  0.22744136  0.85869422  0.35780046  1
  N  N61  1  0.10047254  0.75108879  0.09697271  1
  N  N62  1  0.88855041  0.87390418  0.85625119  1
  N  N63  1  0.76892156  0.74858225  0.59878590  1
  N  N64  1  0.55438895  0.87298606  0.36221245  1
  N  N65  1  0.45591396  0.74138814  0.09175465  1
  N  N66  1  0.23370580  0.84632973  0.85400209  1
  N  N67  1  0.13183847  0.74804304  0.59689860  1
  N  N68  1  0.88809944  0.87194343  0.35804991  1
  N  N69  1  0.79471857  0.75460887  0.09397055  1
  N  N70  1  0.55628333  0.87141765  0.85293965  1
  N  N71  1  0.43604882  0.77827318  0.60044373  1
