# generated using pymatgen
data_Sc2Al7N9
_symmetry_space_group_name_H-M   'P 1'
_cell_length_a   9.73922294
_cell_length_b   9.74069001
_cell_length_c   10.14028875
_cell_angle_alpha   90.04149432
_cell_angle_beta   89.92551045
_cell_angle_gamma   59.84372476
_symmetry_Int_Tables_number   1
_chemical_formula_structural   Sc2Al7N9
_chemical_formula_sum   'Sc8 Al28 N36'
_cell_volume   831.77911517
_cell_formula_units_Z   4
loop_
 _symmetry_equiv_pos_site_id
 _symmetry_equiv_pos_as_xyz
  1  'x, y, z'
loop_
 _atom_site_type_symbol
 _atom_site_label
 _atom_site_symmetry_multiplicity
 _atom_site_fract_x
 _atom_site_fract_y
 _atom_site_fract_z
 _atom_site_occupancy
  Sc  Sc0  1  0.10953094  0.09313899  0.40890930  1
  Sc  Sc1  1  0.22120509  0.21434577  0.14224870  1
  Sc  Sc2  1  0.10880657  0.09705997  0.87384808  1
  Sc  Sc3  1  0.77993243  0.42961707  0.37927956  1
  Sc  Sc4  1  0.55650014  0.53437232  0.63948518  1
  Sc  Sc5  1  0.21930354  0.86802308  0.13809039  1
  Sc  Sc6  1  0.88828469  0.87331539  0.63587041  1
  Sc  Sc7  1  0.56048298  0.87107833  0.14004237  1
  Al  Al8  1  0.77145634  0.09598839  0.89916876  1
  Al  Al9  1  0.87973049  0.21192190  0.65330958  1
  Al  Al10  1  0.44817416  0.09538691  0.40382678  1
  Al  Al11  1  0.55748607  0.20795426  0.14596684  1
  Al  Al12  1  0.22749364  0.21180489  0.64935410  1
  Al  Al13  1  0.77070135  0.09718530  0.39275004  1
  Al  Al14  1  0.88268318  0.20387027  0.14133495  1
  Al  Al15  1  0.45048165  0.09899772  0.89068865  1
  Al  Al16  1  0.55250850  0.20773075  0.64639254  1
  Al  Al17  1  0.11366121  0.43500624  0.40096029  1
  Al  Al18  1  0.21962701  0.53950514  0.14567733  1
  Al  Al19  1  0.77339698  0.43107769  0.90379954  1
  Al  Al20  1  0.89168768  0.53425939  0.64936175  1
  Al  Al21  1  0.43703951  0.42521046  0.39343422  1
  Al  Al22  1  0.55155069  0.53559788  0.14677985  1
  Al  Al23  1  0.11179610  0.43509645  0.89331251  1
  Al  Al24  1  0.22434759  0.53444049  0.64765049  1
  Al  Al25  1  0.89472108  0.54401376  0.14244279  1
  Al  Al26  1  0.44441310  0.42632864  0.89881672  1
  Al  Al27  1  0.11727059  0.75303470  0.39653888  1
  Al  Al28  1  0.78164078  0.75943427  0.89513195  1
  Al  Al29  1  0.44062210  0.76408056  0.40075739  1
  Al  Al30  1  0.11018336  0.75321372  0.89743700  1
  Al  Al31  1  0.22797388  0.86292049  0.65322940  1
  Al  Al32  1  0.77763761  0.76003415  0.39834489  1
  Al  Al33  1  0.88890288  0.87042228  0.14747618  1
  Al  Al34  1  0.45079870  0.75133915  0.89508679  1
  Al  Al35  1  0.55311296  0.87309264  0.64779833  1
  N  N36  1  0.22975311  0.21497747  0.35422087  1
  N  N37  1  0.09349557  0.10618245  0.08421352  1
  N  N38  1  0.86123103  0.21922561  0.84022127  1
  N  N39  1  0.76595263  0.11659063  0.58177216  1
  N  N40  1  0.55344046  0.20440011  0.33601311  1
  N  N41  1  0.45526338  0.10508346  0.07640625  1
  N  N42  1  0.23439830  0.21970334  0.83737099  1
  N  N43  1  0.11038429  0.09311087  0.62527552  1
  N  N44  1  0.88250469  0.19181692  0.32714969  1
  N  N45  1  0.77572086  0.09245240  0.08903141  1
  N  N46  1  0.55715366  0.20780117  0.83554545  1
  N  N47  1  0.44866992  0.09270459  0.59384794  1
  N  N48  1  0.22162729  0.53812228  0.33532064  1
  N  N49  1  0.10412523  0.44646901  0.07942295  1
  N  N50  1  0.88843859  0.53721518  0.84040355  1
  N  N51  1  0.79968044  0.41710555  0.58768399  1
  N  N52  1  0.53425689  0.54740526  0.34067505  1
  N  N53  1  0.44294509  0.42697368  0.09000518  1
  N  N54  1  0.22479249  0.53810024  0.83687523  1
  N  N55  1  0.10941371  0.43203495  0.59154101  1
  N  N56  1  0.90293957  0.55003658  0.33071823  1
  N  N57  1  0.77716790  0.43022144  0.09949887  1
  N  N58  1  0.55785476  0.53383605  0.84827335  1
  N  N59  1  0.43302731  0.41647765  0.58164875  1
  N  N60  1  0.22742880  0.85873938  0.34645097  1
  N  N61  1  0.10050355  0.75108779  0.08555868  1
  N  N62  1  0.88856191  0.87394216  0.84489030  1
  N  N63  1  0.76894527  0.74862848  0.58738704  1
  N  N64  1  0.55438396  0.87303184  0.35084635  1
  N  N65  1  0.45590530  0.74145054  0.08035272  1
  N  N66  1  0.23373384  0.84632412  0.84256426  1
  N  N67  1  0.13181176  0.74809029  0.58550109  1
  N  N68  1  0.88809572  0.87198050  0.34660488  1
  N  N69  1  0.79475318  0.75459635  0.08256311  1
  N  N70  1  0.55631714  0.87142406  0.84151015  1
  N  N71  1  0.43607139  0.77827237  0.58904905  1
