# generated using pymatgen
data_Sc2Al7N9
_symmetry_space_group_name_H-M   'P 1'
_cell_length_a   10.26186576
_cell_length_b   10.27156574
_cell_length_c   8.65003440
_cell_angle_alpha   89.94666194
_cell_angle_beta   89.98951416
_cell_angle_gamma   59.74119732
_symmetry_Int_Tables_number   1
_chemical_formula_structural   Sc2Al7N9
_chemical_formula_sum   'Sc8 Al28 N36'
_cell_volume   787.54020317
_cell_formula_units_Z   4
loop_
 _symmetry_equiv_pos_site_id
 _symmetry_equiv_pos_as_xyz
  1  'x, y, z'
loop_
 _atom_site_type_symbol
 _atom_site_label
 _atom_site_symmetry_multiplicity
 _atom_site_fract_x
 _atom_site_fract_y
 _atom_site_fract_z
 _atom_site_occupancy
  Sc  Sc0  1  0.10950829  0.09443696  0.35731818  1
  Sc  Sc1  1  0.22510326  0.21483514  0.10257710  1
  Sc  Sc2  1  0.10820740  0.09698577  0.84827763  1
  Sc  Sc3  1  0.77910492  0.43144666  0.34852483  1
  Sc  Sc4  1  0.55134282  0.53549333  0.60618872  1
  Sc  Sc5  1  0.22196607  0.86176743  0.10243581  1
  Sc  Sc6  1  0.88660372  0.87551081  0.60280937  1
  Sc  Sc7  1  0.55973760  0.87103358  0.10298460  1
  Al  Al8  1  0.77000323  0.09929711  0.85068255  1
  Al  Al9  1  0.88145147  0.20858425  0.60212414  1
  Al  Al10  1  0.44997542  0.09800985  0.35461320  1
  Al  Al11  1  0.55767545  0.20777106  0.09370795  1
  Al  Al12  1  0.22653317  0.21280845  0.60061455  1
  Al  Al13  1  0.77164463  0.09461761  0.33931144  1
  Al  Al14  1  0.88032037  0.20763200  0.09380702  1
  Al  Al15  1  0.45010621  0.09633956  0.83699942  1
  Al  Al16  1  0.55336726  0.20834162  0.59333572  1
  Al  Al17  1  0.11275142  0.43680246  0.35112312  1
  Al  Al18  1  0.21962811  0.53951646  0.09449526  1
  Al  Al19  1  0.77797664  0.42953610  0.85348506  1
  Al  Al20  1  0.89248685  0.53805848  0.60214273  1
  Al  Al21  1  0.44043618  0.42637983  0.33933476  1
  Al  Al22  1  0.55548389  0.53283678  0.09566266  1
  Al  Al23  1  0.11185961  0.43432731  0.84267708  1
  Al  Al24  1  0.22449700  0.53439568  0.59535443  1
  Al  Al25  1  0.89312697  0.54166942  0.09216153  1
  Al  Al26  1  0.44041580  0.42357021  0.85066998  1
  Al  Al27  1  0.11239696  0.75293965  0.35002287  1
  Al  Al28  1  0.77877263  0.75882650  0.84822591  1
  Al  Al29  1  0.44501292  0.75703979  0.35536308  1
  Al  Al30  1  0.11353502  0.75289972  0.84587139  1
  Al  Al31  1  0.22579769  0.86540579  0.60280543  1
  Al  Al32  1  0.78167484  0.76016921  0.35048598  1
  Al  Al33  1  0.88962271  0.86960754  0.09845866  1
  Al  Al34  1  0.44703036  0.75780700  0.85022728  1
  Al  Al35  1  0.55407924  0.87251461  0.60059126  1
  N  N36  1  0.22982260  0.21832734  0.36609634  1
  N  N37  1  0.09629144  0.10327872  0.10292784  1
  N  N38  1  0.86932512  0.21423037  0.85750465  1
  N  N39  1  0.76539251  0.11220147  0.61459131  1
  N  N40  1  0.55623077  0.20875498  0.35983188  1
  N  N41  1  0.45655369  0.10270508  0.11741666  1
  N  N42  1  0.23290977  0.21560218  0.84352545  1
  N  N43  1  0.10887057  0.09463999  0.60393080  1
  N  N44  1  0.87524073  0.19891963  0.35849704  1
  N  N45  1  0.77612293  0.09424853  0.10442200  1
  N  N46  1  0.55406334  0.20498355  0.86196990  1
  N  N47  1  0.45030450  0.09341285  0.60307534  1
  N  N48  1  0.22552643  0.53673456  0.35860967  1
  N  N49  1  0.10365231  0.44572442  0.10821125  1
  N  N50  1  0.89140569  0.53834673  0.85654417  1
  N  N51  1  0.79365086  0.42244633  0.61186126  1
  N  N52  1  0.54058228  0.54117852  0.35001380  1
  N  N53  1  0.44276541  0.42633868  0.10409650  1
  N  N54  1  0.22178424  0.53854327  0.86083158  1
  N  N55  1  0.10983935  0.43368243  0.60898038  1
  N  N56  1  0.89954810  0.54807387  0.35994337  1
  N  N57  1  0.77927398  0.42951893  0.09482720  1
  N  N58  1  0.55460125  0.53581323  0.86043342  1
  N  N59  1  0.43375832  0.41732736  0.61579764  1
  N  N60  1  0.22860994  0.85422922  0.36156820  1
  N  N61  1  0.10235852  0.75038835  0.10989187  1
  N  N62  1  0.88925503  0.87262454  0.86097864  1
  N  N63  1  0.77088715  0.75317870  0.60984921  1
  N  N64  1  0.55729165  0.86987379  0.36307574  1
  N  N65  1  0.45523129  0.74267988  0.10314696  1
  N  N66  1  0.22895391  0.85417642  0.84664814  1
  N  N67  1  0.12597832  0.74899868  0.60601782  1
  N  N68  1  0.88607747  0.87443080  0.34837415  1
  N  N69  1  0.79289979  0.75345761  0.10319426  1
  N  N70  1  0.55403034  0.87453191  0.84635968  1
  N  N71  1  0.43897755  0.77425332  0.60554104  1
