# generated using pymatgen
data_Sc2Al7N9
_symmetry_space_group_name_H-M   'P 1'
_cell_length_a   9.73962512
_cell_length_b   9.74107277
_cell_length_c   10.13942126
_cell_angle_alpha   90.04121454
_cell_angle_beta   89.92642219
_cell_angle_gamma   59.84239614
_symmetry_Int_Tables_number   1
_chemical_formula_structural   Sc2Al7N9
_chemical_formula_sum   'Sc8 Al28 N36'
_cell_volume   831.76381586
_cell_formula_units_Z   4
loop_
 _symmetry_equiv_pos_site_id
 _symmetry_equiv_pos_as_xyz
  1  'x, y, z'
loop_
 _atom_site_type_symbol
 _atom_site_label
 _atom_site_symmetry_multiplicity
 _atom_site_fract_x
 _atom_site_fract_y
 _atom_site_fract_z
 _atom_site_occupancy
  Sc  Sc0  1  0.10955278  0.09314490  0.40064414  1
  Sc  Sc1  1  0.22122370  0.21435542  0.13399321  1
  Sc  Sc2  1  0.10881325  0.09707761  0.86560410  1
  Sc  Sc3  1  0.77995425  0.42962567  0.37102008  1
  Sc  Sc4  1  0.55650958  0.53438363  0.63121489  1
  Sc  Sc5  1  0.21932278  0.86802288  0.12982308  1
  Sc  Sc6  1  0.88829673  0.87332503  0.62760593  1
  Sc  Sc7  1  0.56049755  0.87108747  0.13177978  1
  Al  Al8  1  0.77146923  0.09599725  0.89092320  1
  Al  Al9  1  0.87973772  0.21193743  0.64506319  1
  Al  Al10  1  0.44818640  0.09539956  0.39558138  1
  Al  Al11  1  0.55750213  0.20796530  0.13772734  1
  Al  Al12  1  0.22750213  0.21181909  0.64110841  1
  Al  Al13  1  0.77070923  0.09720101  0.38451519  1
  Al  Al14  1  0.88269688  0.20387369  0.13309441  1
  Al  Al15  1  0.45049438  0.09901349  0.88244698  1
  Al  Al16  1  0.55251722  0.20774302  0.63815511  1
  Al  Al17  1  0.11367358  0.43502125  0.39272018  1
  Al  Al18  1  0.21963966  0.53951494  0.13743747  1
  Al  Al19  1  0.77340456  0.43109076  0.89555960  1
  Al  Al20  1  0.89169340  0.53427177  0.64112001  1
  Al  Al21  1  0.43704876  0.42521857  0.38519703  1
  Al  Al22  1  0.55156318  0.53560398  0.13854853  1
  Al  Al23  1  0.11180603  0.43511083  0.88507024  1
  Al  Al24  1  0.22435805  0.53445243  0.63941228  1
  Al  Al25  1  0.89473784  0.54402800  0.13420293  1
  Al  Al26  1  0.44442654  0.42634254  0.89057247  1
  Al  Al27  1  0.11729001  0.75304450  0.38829612  1
  Al  Al28  1  0.78165741  0.75944610  0.88688633  1
  Al  Al29  1  0.44063241  0.76409776  0.39251190  1
  Al  Al30  1  0.11018791  0.75322535  0.88919280  1
  Al  Al31  1  0.22798287  0.86293505  0.64499250  1
  Al  Al32  1  0.77764305  0.76004650  0.39010381  1
  Al  Al33  1  0.88891563  0.87043284  0.13924383  1
  Al  Al34  1  0.45081618  0.75134187  0.88684186  1
  Al  Al35  1  0.55312152  0.87310682  0.63956251  1
  N  N36  1  0.22976567  0.21499609  0.34598340  1
  N  N37  1  0.09350905  0.10619374  0.07599154  1
  N  N38  1  0.86124084  0.21923779  0.83199263  1
  N  N39  1  0.76595687  0.11660863  0.57354725  1
  N  N40  1  0.55345188  0.20441195  0.32778373  1
  N  N41  1  0.45528254  0.10509877  0.06817673  1
  N  N42  1  0.23440654  0.21971420  0.82914549  1
  N  N43  1  0.11039271  0.09312484  0.61703309  1
  N  N44  1  0.88251302  0.19182309  0.31892364  1
  N  N45  1  0.77573624  0.09245964  0.08079998  1
  N  N46  1  0.55716312  0.20781462  0.82731672  1
  N  N47  1  0.44868066  0.09271773  0.58561815  1
  N  N48  1  0.22163911  0.53813373  0.32709065  1
  N  N49  1  0.10413810  0.44648363  0.07119290  1
  N  N50  1  0.88844690  0.53722510  0.83217495  1
  N  N51  1  0.79969301  0.41711977  0.57944325  1
  N  N52  1  0.53427061  0.54741164  0.33246428  1
  N  N53  1  0.44295977  0.42698680  0.08177518  1
  N  N54  1  0.22480240  0.53811153  0.82864670  1
  N  N55  1  0.10942099  0.43205303  0.58331317  1
  N  N56  1  0.90295283  0.55005309  0.32248946  1
  N  N57  1  0.77718106  0.43023136  0.09127962  1
  N  N58  1  0.55786634  0.53384477  0.84002491  1
  N  N59  1  0.43303246  0.41648695  0.57342145  1
  N  N60  1  0.22744399  0.85874236  0.33820312  1
  N  N61  1  0.10050978  0.75109755  0.07732895  1
  N  N62  1  0.88857100  0.87395367  0.83664383  1
  N  N63  1  0.76894871  0.74864301  0.57915969  1
  N  N64  1  0.55439211  0.87304571  0.34260260  1
  N  N65  1  0.45593023  0.74144793  0.07212242  1
  N  N66  1  0.23373989  0.84634039  0.83434850  1
  N  N67  1  0.13183094  0.74810149  0.57727242  1
  N  N68  1  0.88810524  0.87199216  0.33838932  1
  N  N69  1  0.79477233  0.75460937  0.07433196  1
  N  N70  1  0.55632718  0.87143643  0.83328922  1
  N  N71  1  0.43607699  0.77829548  0.58082060  1
