# generated using pymatgen
data_Sc2Al7N9
_symmetry_space_group_name_H-M   'P 1'
_cell_length_a   9.74051109
_cell_length_b   9.73909751
_cell_length_c   10.14222654
_cell_angle_alpha   89.90295186
_cell_angle_beta   89.92964921
_cell_angle_gamma   59.83153615
_symmetry_Int_Tables_number   1
_chemical_formula_structural   Sc2Al7N9
_chemical_formula_sum   'Sc8 Al28 N36'
_cell_volume   831.80971760
_cell_formula_units_Z   4
loop_
 _symmetry_equiv_pos_site_id
 _symmetry_equiv_pos_as_xyz
  1  'x, y, z'
loop_
 _atom_site_type_symbol
 _atom_site_label
 _atom_site_symmetry_multiplicity
 _atom_site_fract_x
 _atom_site_fract_y
 _atom_site_fract_z
 _atom_site_occupancy
  Sc  Sc0  1  0.10937999  0.09585551  0.31689052  1
  Sc  Sc1  1  0.22195665  0.21427662  0.05101731  1
  Sc  Sc2  1  0.10939555  0.09490787  0.78731151  1
  Sc  Sc3  1  0.77405214  0.43418418  0.29482200  1
  Sc  Sc4  1  0.55411553  0.53546334  0.56412420  1
  Sc  Sc5  1  0.22075758  0.86640941  0.05562196  1
  Sc  Sc6  1  0.88811005  0.87369304  0.55571927  1
  Sc  Sc7  1  0.56048414  0.87039257  0.05458741  1
  Al  Al8  1  0.76935416  0.10073145  0.79965793  1
  Al  Al9  1  0.88241830  0.20846856  0.54595134  1
  Al  Al10  1  0.45013286  0.09920684  0.30222677  1
  Al  Al11  1  0.55769893  0.20808076  0.04677315  1
  Al  Al12  1  0.22746524  0.21171484  0.54380743  1
  Al  Al13  1  0.77244742  0.09333257  0.29230787  1
  Al  Al14  1  0.88007404  0.20874892  0.04252112  1
  Al  Al15  1  0.44892630  0.09514131  0.78882988  1
  Al  Al16  1  0.55272970  0.20741177  0.54549634  1
  Al  Al17  1  0.11299307  0.43762272  0.29901856  1
  Al  Al18  1  0.21937909  0.53971150  0.04708527  1
  Al  Al19  1  0.78099488  0.42762521  0.79988160  1
  Al  Al20  1  0.89417482  0.53682712  0.54912760  1
  Al  Al21  1  0.44157886  0.42793576  0.29453357  1
  Al  Al22  1  0.55632964  0.53341427  0.03732102  1
  Al  Al23  1  0.11263832  0.43249799  0.79173982  1
  Al  Al24  1  0.22478704  0.53396000  0.54480036  1
  Al  Al25  1  0.89185861  0.54073743  0.04252623  1
  Al  Al26  1  0.43918769  0.42275625  0.79896726  1
  Al  Al27  1  0.10921667  0.75383006  0.29560032  1
  Al  Al28  1  0.77536908  0.75860804  0.79463464  1
  Al  Al29  1  0.44685518  0.75203299  0.29930138  1
  Al  Al30  1  0.11781631  0.75268474  0.79556068  1
  Al  Al31  1  0.22761911  0.86451962  0.54043382  1
  Al  Al32  1  0.78425786  0.76091472  0.29636156  1
  Al  Al33  1  0.88964474  0.86991008  0.04465726  1
  Al  Al34  1  0.44384384  0.76433247  0.79176426  1
  Al  Al35  1  0.55330885  0.87352866  0.54409296  1
  N  N36  1  0.23319855  0.22067922  0.35484982  1
  N  N37  1  0.09058776  0.10726824  0.10396074  1
  N  N38  1  0.87175211  0.21223326  0.85556283  1
  N  N39  1  0.76470200  0.11559286  0.61232808  1
  N  N40  1  0.55710550  0.20780033  0.35592066  1
  N  N41  1  0.45580434  0.10501276  0.11687288  1
  N  N42  1  0.23134837  0.21405250  0.83992004  1
  N  N43  1  0.11233655  0.09314997  0.57233481  1
  N  N44  1  0.86867418  0.20254416  0.36125556  1
  N  N45  1  0.77704574  0.09366153  0.10070915  1
  N  N46  1  0.55337498  0.20412908  0.85741682  1
  N  N47  1  0.44881443  0.09267030  0.59835234  1
  N  N48  1  0.22485600  0.53866936  0.35528765  1
  N  N49  1  0.10104114  0.44761573  0.11089269  1
  N  N50  1  0.89226734  0.53884139  0.85286987  1
  N  N51  1  0.80149979  0.41715091  0.60943356  1
  N  N52  1  0.54000685  0.54095345  0.35683189  1
  N  N53  1  0.44412684  0.42817414  0.10051578  1
  N  N54  1  0.22098613  0.53786872  0.85750731  1
  N  N55  1  0.11163433  0.43095445  0.60325626  1
  N  N56  1  0.89911045  0.54847827  0.36136490  1
  N  N57  1  0.77619416  0.43039811  0.08438851  1
  N  N58  1  0.55337210  0.53908751  0.84079768  1
  N  N59  1  0.43179892  0.41455525  0.61231188  1
  N  N60  1  0.23033198  0.84946592  0.35005508  1
  N  N61  1  0.10067165  0.75096390  0.10762079  1
  N  N62  1  0.88904275  0.87145027  0.84681834  1
  N  N63  1  0.76751718  0.75154347  0.60726240  1
  N  N64  1  0.55661384  0.87032681  0.34975084  1
  N  N65  1  0.45817305  0.73693587  0.11264976  1
  N  N66  1  0.22990174  0.85602144  0.84744978  1
  N  N67  1  0.13208082  0.74820959  0.60672238  1
  N  N68  1  0.88753131  0.87483139  0.34613582  1
  N  N69  1  0.79631996  0.75148044  0.10701760  1
  N  N70  1  0.55392702  0.87422549  0.84402987  1
  N  N71  1  0.43489791  0.78153473  0.60447145  1
