# generated using pymatgen
data_Sc2Al7N9
_symmetry_space_group_name_H-M   'P 1'
_cell_length_a   10.14910498
_cell_length_b   10.15656795
_cell_length_c   8.97752875
_cell_angle_alpha   89.93313915
_cell_angle_beta   89.97635453
_cell_angle_gamma   59.74724450
_symmetry_Int_Tables_number   1
_chemical_formula_structural   Sc2Al7N9
_chemical_formula_sum   'Sc8 Al28 N36'
_cell_volume   799.37413587
_cell_formula_units_Z   4
loop_
 _symmetry_equiv_pos_site_id
 _symmetry_equiv_pos_as_xyz
  1  'x, y, z'
loop_
 _atom_site_type_symbol
 _atom_site_label
 _atom_site_symmetry_multiplicity
 _atom_site_fract_x
 _atom_site_fract_y
 _atom_site_fract_z
 _atom_site_occupancy
  Sc  Sc0  1  0.10909819  0.09481582  0.35526408  1
  Sc  Sc1  1  0.22558935  0.21478940  0.09953103  1
  Sc  Sc2  1  0.10907938  0.09631372  0.84578819  1
  Sc  Sc3  1  0.77748637  0.43186874  0.34651125  1
  Sc  Sc4  1  0.55034903  0.53530373  0.60528289  1
  Sc  Sc5  1  0.22182915  0.86150155  0.10027094  1
  Sc  Sc6  1  0.88568311  0.87549401  0.60069953  1
  Sc  Sc7  1  0.55897125  0.87186879  0.10074204  1
  Al  Al8  1  0.76868444  0.10071609  0.84246150  1
  Al  Al9  1  0.88188405  0.20754947  0.59271711  1
  Al  Al10  1  0.45001722  0.09914616  0.34937612  1
  Al  Al11  1  0.55775408  0.20671151  0.08564225  1
  Al  Al12  1  0.22531723  0.21256921  0.59364879  1
  Al  Al13  1  0.77241771  0.09342359  0.32968796  1
  Al  Al14  1  0.87967805  0.20910152  0.08333096  1
  Al  Al15  1  0.45017139  0.09561642  0.82596906  1
  Al  Al16  1  0.55354824  0.20951844  0.58354517  1
  Al  Al17  1  0.11225359  0.43779958  0.34027217  1
  Al  Al18  1  0.21774241  0.54066410  0.08617217  1
  Al  Al19  1  0.77925653  0.42965050  0.84438760  1
  Al  Al20  1  0.89282484  0.53923520  0.59045282  1
  Al  Al21  1  0.44159747  0.42693155  0.32822845  1
  Al  Al22  1  0.55744269  0.53227441  0.08306296  1
  Al  Al23  1  0.11258099  0.43388024  0.83151062  1
  Al  Al24  1  0.22585145  0.53305383  0.58292305  1
  Al  Al25  1  0.89301204  0.54058784  0.08206510  1
  Al  Al26  1  0.43861709  0.42248156  0.84447425  1
  Al  Al27  1  0.11017958  0.75352741  0.34129195  1
  Al  Al28  1  0.77648334  0.75875602  0.83919131  1
  Al  Al29  1  0.44642211  0.75337643  0.34315141  1
  Al  Al30  1  0.11621486  0.75171852  0.83393902  1
  Al  Al31  1  0.22579866  0.86642549  0.59318467  1
  Al  Al32  1  0.78402978  0.76035431  0.33621908  1
  Al  Al33  1  0.89047049  0.86939497  0.08696234  1
  Al  Al34  1  0.44569613  0.76152967  0.83737455  1
  Al  Al35  1  0.55485226  0.87163393  0.58867260  1
  N  N36  1  0.22931036  0.21927525  0.36898138  1
  N  N37  1  0.09493286  0.10416229  0.10522665  1
  N  N38  1  0.86878882  0.21504813  0.86510071  1
  N  N39  1  0.76378743  0.11398477  0.62642366  1
  N  N40  1  0.55720252  0.21005902  0.36839143  1
  N  N41  1  0.45722809  0.10382749  0.13216765  1
  N  N42  1  0.23373574  0.21560250  0.85023423  1
  N  N43  1  0.11028092  0.09405969  0.60428834  1
  N  N44  1  0.87422942  0.19792027  0.37129477  1
  N  N45  1  0.77716367  0.09369942  0.11130485  1
  N  N46  1  0.55331811  0.20331736  0.87186621  1
  N  N47  1  0.45027057  0.09298898  0.60681388  1
  N  N48  1  0.22701839  0.53622853  0.36729302  1
  N  N49  1  0.10215585  0.44707882  0.12202676  1
  N  N50  1  0.89248512  0.53769347  0.86538934  1
  N  N51  1  0.79536405  0.42182146  0.61600072  1
  N  N52  1  0.54013679  0.53957758  0.36363186  1
  N  N53  1  0.44367596  0.42690217  0.10945605  1
  N  N54  1  0.21995461  0.53901498  0.87190259  1
  N  N55  1  0.11047200  0.43335297  0.61645978  1
  N  N56  1  0.89941157  0.54959551  0.37258599  1
  N  N57  1  0.77854306  0.42968696  0.10148077  1
  N  N58  1  0.55448112  0.53788521  0.86091959  1
  N  N59  1  0.43213465  0.41572180  0.62900055  1
  N  N60  1  0.22884123  0.85335857  0.36416958  1
  N  N61  1  0.10084862  0.75040097  0.12207942  1
  N  N62  1  0.89009818  0.87162683  0.86279725  1
  N  N63  1  0.76892553  0.75298761  0.62198629  1
  N  N64  1  0.55849151  0.86840122  0.36526946  1
  N  N65  1  0.45671100  0.73978457  0.11881785  1
  N  N66  1  0.22936618  0.85376491  0.85579365  1
  N  N67  1  0.12834261  0.74788296  0.61468474  1
  N  N68  1  0.88547578  0.87539767  0.35911928  1
  N  N69  1  0.79457991  0.75270609  0.11380225  1
  N  N70  1  0.55275074  0.87594668  0.85682921  1
  N  N71  1  0.43790762  0.77672541  0.61506523  1
