# generated using pymatgen
data_Sc2Al7N9
_symmetry_space_group_name_H-M   'P 1'
_cell_length_a   9.83414416
_cell_length_b   9.83588676
_cell_length_c   9.89601263
_cell_angle_alpha   89.92234776
_cell_angle_beta   89.93579724
_cell_angle_gamma   59.77532271
_symmetry_Int_Tables_number   1
_chemical_formula_structural   Sc2Al7N9
_chemical_formula_sum   'Sc8 Al28 N36'
_cell_volume   827.09007207
_cell_formula_units_Z   4
loop_
 _symmetry_equiv_pos_site_id
 _symmetry_equiv_pos_as_xyz
  1  'x, y, z'
loop_
 _atom_site_type_symbol
 _atom_site_label
 _atom_site_symmetry_multiplicity
 _atom_site_fract_x
 _atom_site_fract_y
 _atom_site_fract_z
 _atom_site_occupancy
  Sc  Sc0  1  0.10877262  0.09649318  0.34449175  1
  Sc  Sc1  1  0.22392587  0.21467056  0.08374575  1
  Sc  Sc2  1  0.11035556  0.09438140  0.82554627  1
  Sc  Sc3  1  0.77315209  0.43433473  0.33125752  1
  Sc  Sc4  1  0.55075038  0.53670226  0.59855269  1
  Sc  Sc5  1  0.22201375  0.86343498  0.08995761  1
  Sc  Sc6  1  0.88759327  0.87365405  0.59144303  1
  Sc  Sc7  1  0.56023852  0.87029357  0.08971419  1
  Al  Al8  1  0.76825149  0.10258648  0.82842226  1
  Al  Al9  1  0.88306040  0.20719239  0.57577838  1
  Al  Al10  1  0.45039225  0.10017505  0.33220257  1
  Al  Al11  1  0.55868333  0.20766506  0.07571583  1
  Al  Al12  1  0.22658380  0.21163493  0.57432254  1
  Al  Al13  1  0.77317138  0.09181901  0.32152677  1
  Al  Al14  1  0.87896994  0.20999593  0.07243554  1
  Al  Al15  1  0.44935165  0.09467283  0.81836552  1
  Al  Al16  1  0.55247371  0.20780415  0.57395021  1
  Al  Al17  1  0.11265792  0.43844828  0.32746249  1
  Al  Al18  1  0.21876861  0.54015426  0.07592225  1
  Al  Al19  1  0.78171121  0.42782202  0.82600326  1
  Al  Al20  1  0.89393362  0.53814663  0.57750199  1
  Al  Al21  1  0.44179726  0.42809358  0.32265927  1
  Al  Al22  1  0.55821860  0.53190544  0.06537944  1
  Al  Al23  1  0.11263472  0.43251407  0.82128091  1
  Al  Al24  1  0.22490274  0.53340067  0.57311834  1
  Al  Al25  1  0.89151034  0.54014220  0.07237127  1
  Al  Al26  1  0.43816284  0.42160988  0.82884006  1
  Al  Al27  1  0.10741554  0.75389385  0.32600955  1
  Al  Al28  1  0.77349686  0.75832026  0.82499222  1
  Al  Al29  1  0.44745075  0.74988066  0.32880174  1
  Al  Al30  1  0.12000154  0.75168632  0.82415418  1
  Al  Al31  1  0.22681368  0.86597469  0.56951353  1
  Al  Al32  1  0.78618138  0.76080930  0.32496609  1
  Al  Al33  1  0.88992410  0.86971218  0.07059415  1
  Al  Al34  1  0.44337878  0.76605737  0.82228889  1
  Al  Al35  1  0.55314211  0.87336598  0.57135721  1
  N  N36  1  0.23218991  0.22064313  0.37895673  1
  N  N37  1  0.09190861  0.10646912  0.12368021  1
  N  N38  1  0.86947013  0.21463317  0.88046768  1
  N  N39  1  0.76350066  0.11675828  0.63761053  1
  N  N40  1  0.55741592  0.20842297  0.38117065  1
  N  N41  1  0.45751197  0.10549550  0.14299253  1
  N  N42  1  0.23259925  0.21500533  0.86713458  1
  N  N43  1  0.11192587  0.09330028  0.60283164  1
  N  N44  1  0.87072853  0.19986300  0.38587266  1
  N  N45  1  0.77811919  0.09251568  0.12571231  1
  N  N46  1  0.55350766  0.20371736  0.88318465  1
  N  N47  1  0.44908067  0.09224533  0.62307712  1
  N  N48  1  0.22522763  0.53817541  0.38020034  1
  N  N49  1  0.10081390  0.44843693  0.13567014  1
  N  N50  1  0.89173102  0.53810943  0.87844362  1
  N  N51  1  0.80004218  0.41849891  0.63001632  1
  N  N52  1  0.53796127  0.54085302  0.38584602  1
  N  N53  1  0.44470073  0.42810428  0.12496786  1
  N  N54  1  0.22050832  0.53806577  0.88321999  1
  N  N55  1  0.11100538  0.43149514  0.62891716  1
  N  N56  1  0.89984015  0.54946357  0.38605386  1
  N  N57  1  0.77635998  0.43012021  0.11471714  1
  N  N58  1  0.55415118  0.53874819  0.86380624  1
  N  N59  1  0.43055598  0.41359282  0.63859855  1
  N  N60  1  0.22933249  0.85087865  0.37246924  1
  N  N61  1  0.09897738  0.75069922  0.13347102  1
  N  N62  1  0.88929253  0.87150478  0.86873993  1
  N  N63  1  0.76581422  0.75163023  0.63337212  1
  N  N64  1  0.55709807  0.86971538  0.37265306  1
  N  N65  1  0.45996705  0.73413187  0.13791439  1
  N  N66  1  0.23088603  0.85389595  0.87611353  1
  N  N67  1  0.13362003  0.74751486  0.63117568  1
  N  N68  1  0.88698533  0.87482849  0.37594630  1
  N  N69  1  0.79746009  0.75176381  0.13094516  1
  N  N70  1  0.55317014  0.87494779  0.87337777  1
  N  N71  1  0.43400651  0.78338382  0.62990185  1
