# generated using pymatgen
data_Sc2Al7N9
_symmetry_space_group_name_H-M   'P 1'
_cell_length_a   10.12405271
_cell_length_b   10.13216653
_cell_length_c   9.05655801
_cell_angle_alpha   90.02211189
_cell_angle_beta   90.01309644
_cell_angle_gamma   59.71113011
_symmetry_Int_Tables_number   1
_chemical_formula_structural   Sc2Al7N9
_chemical_formula_sum   'Sc8 Al28 N36'
_cell_volume   802.19315385
_cell_formula_units_Z   4
loop_
 _symmetry_equiv_pos_site_id
 _symmetry_equiv_pos_as_xyz
  1  'x, y, z'
loop_
 _atom_site_type_symbol
 _atom_site_label
 _atom_site_symmetry_multiplicity
 _atom_site_fract_x
 _atom_site_fract_y
 _atom_site_fract_z
 _atom_site_occupancy
  Sc  Sc0  1  0.10987698  0.09408539  0.36144402  1
  Sc  Sc1  1  0.22501111  0.21639094  0.10917953  1
  Sc  Sc2  1  0.10831711  0.09760113  0.85260218  1
  Sc  Sc3  1  0.78108806  0.43093950  0.35096670  1
  Sc  Sc4  1  0.55349741  0.53396067  0.60758689  1
  Sc  Sc5  1  0.22271888  0.86184597  0.10598048  1
  Sc  Sc6  1  0.88803263  0.87428091  0.60666058  1
  Sc  Sc7  1  0.55998338  0.87114311  0.10720832  1
  Al  Al8  1  0.77115091  0.09653936  0.87345164  1
  Al  Al9  1  0.88083826  0.21081923  0.62390616  1
  Al  Al10  1  0.45011408  0.09586269  0.37942487  1
  Al  Al11  1  0.55858441  0.20711320  0.12220687  1
  Al  Al12  1  0.22612914  0.21136488  0.61321446  1
  Al  Al13  1  0.76996535  0.09721667  0.36798163  1
  Al  Al14  1  0.88096094  0.20456792  0.11402033  1
  Al  Al15  1  0.45047793  0.09865520  0.86103911  1
  Al  Al16  1  0.55295586  0.20859224  0.62296912  1
  Al  Al17  1  0.11291663  0.43743808  0.37988006  1
  Al  Al18  1  0.21912312  0.53903017  0.12021689  1
  Al  Al19  1  0.77411708  0.43056511  0.87293339  1
  Al  Al20  1  0.88983960  0.53616891  0.62768757  1
  Al  Al21  1  0.43713964  0.42485236  0.36679081  1
  Al  Al22  1  0.55371046  0.53311950  0.11507221  1
  Al  Al23  1  0.11183487  0.43495499  0.86301871  1
  Al  Al24  1  0.22509973  0.53530574  0.62555655  1
  Al  Al25  1  0.89579133  0.54398682  0.11335518  1
  Al  Al26  1  0.44395320  0.42509923  0.87550069  1
  Al  Al27  1  0.11638295  0.75187416  0.37020861  1
  Al  Al28  1  0.78089359  0.75981319  0.86680174  1
  Al  Al29  1  0.44258264  0.76185169  0.37330296  1
  Al  Al30  1  0.10992953  0.75364647  0.86966146  1
  Al  Al31  1  0.22486228  0.86637470  0.61789550  1
  Al  Al32  1  0.77920096  0.75899254  0.37242703  1
  Al  Al33  1  0.88843439  0.87055669  0.11876304  1
  Al  Al34  1  0.44960414  0.75246641  0.86461774  1
  Al  Al35  1  0.55373982  0.87258035  0.61921527  1
  N  N36  1  0.23173083  0.21853581  0.35691081  1
  N  N37  1  0.09728712  0.10388066  0.09685877  1
  N  N38  1  0.86639749  0.21560606  0.84147453  1
  N  N39  1  0.76544141  0.11507729  0.58291355  1
  N  N40  1  0.55413556  0.20441194  0.33454474  1
  N  N41  1  0.45731167  0.10419373  0.07581403  1
  N  N42  1  0.23177577  0.21680993  0.83515924  1
  N  N43  1  0.10805111  0.09438699  0.60389497  1
  N  N44  1  0.87631191  0.19720161  0.32932917  1
  N  N45  1  0.77595181  0.09210371  0.08693344  1
  N  N46  1  0.55654509  0.20881665  0.83443832  1
  N  N47  1  0.45052185  0.09250359  0.59467789  1
  N  N48  1  0.22165878  0.53781087  0.33284021  1
  N  N49  1  0.10473387  0.44680554  0.07494526  1
  N  N50  1  0.88764656  0.53822302  0.84117734  1
  N  N51  1  0.79579675  0.42072352  0.59159908  1
  N  N52  1  0.53794213  0.54432657  0.34260596  1
  N  N53  1  0.44329042  0.42590901  0.08981873  1
  N  N54  1  0.22605830  0.53785409  0.83669178  1
  N  N55  1  0.10768792  0.43529196  0.59474234  1
  N  N56  1  0.90333083  0.54864408  0.32936923  1
  N  N57  1  0.77808060  0.42954275  0.09245870  1
  N  N58  1  0.55600772  0.53280266  0.84658956  1
  N  N59  1  0.43225582  0.41630923  0.58048982  1
  N  N60  1  0.22865278  0.85499219  0.34699667  1
  N  N61  1  0.10046745  0.75058702  0.08553250  1
  N  N62  1  0.88784675  0.87446912  0.84313687  1
  N  N63  1  0.77025318  0.75003345  0.58933606  1
  N  N64  1  0.55482485  0.87307132  0.34941753  1
  N  N65  1  0.45696120  0.74056401  0.08156475  1
  N  N66  1  0.22946862  0.85227214  0.84144316  1
  N  N67  1  0.12924017  0.74805977  0.58631104  1
  N  N68  1  0.88729980  0.87249473  0.34342353  1
  N  N69  1  0.79380783  0.75535218  0.08172082  1
  N  N70  1  0.55618730  0.87137234  0.83942378  1
  N  N71  1  0.43746310  0.77635184  0.59205636  1
