# generated using pymatgen
data_Sc2Al7N9
_symmetry_space_group_name_H-M   'P 1'
_cell_length_a   9.73927309
_cell_length_b   9.74070328
_cell_length_c   10.14029149
_cell_angle_alpha   90.04136331
_cell_angle_beta   89.92512105
_cell_angle_gamma   59.84287158
_symmetry_Int_Tables_number   1
_chemical_formula_structural   Sc2Al7N9
_chemical_formula_sum   'Sc8 Al28 N36'
_cell_volume   831.77755026
_cell_formula_units_Z   4
loop_
 _symmetry_equiv_pos_site_id
 _symmetry_equiv_pos_as_xyz
  1  'x, y, z'
loop_
 _atom_site_type_symbol
 _atom_site_label
 _atom_site_symmetry_multiplicity
 _atom_site_fract_x
 _atom_site_fract_y
 _atom_site_fract_z
 _atom_site_occupancy
  Sc  Sc0  1  0.10951701  0.09315478  0.41141086  1
  Sc  Sc1  1  0.22120507  0.21433557  0.14473714  1
  Sc  Sc2  1  0.10880776  0.09704481  0.87634886  1
  Sc  Sc3  1  0.77991122  0.42962728  0.38178817  1
  Sc  Sc4  1  0.55649267  0.53436628  0.64200801  1
  Sc  Sc5  1  0.21929527  0.86802103  0.14061654  1
  Sc  Sc6  1  0.88827836  0.87331396  0.63838098  1
  Sc  Sc7  1  0.56048175  0.87107585  0.14255127  1
  Al  Al8  1  0.77145366  0.09598605  0.90167123  1
  Al  Al9  1  0.87972711  0.21191621  0.65581052  1
  Al  Al10  1  0.44817025  0.09538666  0.40632841  1
  Al  Al11  1  0.55748151  0.20795223  0.14846940  1
  Al  Al12  1  0.22749306  0.21179585  0.65185781  1
  Al  Al13  1  0.77069823  0.09718253  0.39524387  1
  Al  Al14  1  0.88267590  0.20387323  0.14383636  1
  Al  Al15  1  0.45048588  0.09898739  0.89318729  1
  Al  Al16  1  0.55250641  0.20772774  0.64888901  1
  Al  Al17  1  0.11365820  0.43499977  0.40345306  1
  Al  Al18  1  0.21962083  0.53950117  0.14817897  1
  Al  Al19  1  0.77340087  0.43107093  0.90630034  1
  Al  Al20  1  0.89168676  0.53425399  0.65185876  1
  Al  Al21  1  0.43703400  0.42521497  0.39592733  1
  Al  Al22  1  0.55154418  0.53560101  0.14926752  1
  Al  Al23  1  0.11179550  0.43508867  0.89580872  1
  Al  Al24  1  0.22434427  0.53443204  0.65014865  1
  Al  Al25  1  0.89471758  0.54400593  0.14494066  1
  Al  Al26  1  0.44440900  0.42632097  0.90132073  1
  Al  Al27  1  0.11725641  0.75303565  0.39904687  1
  Al  Al28  1  0.78163926  0.75942726  0.89763308  1
  Al  Al29  1  0.44061801  0.76407650  0.40326024  1
  Al  Al30  1  0.11018976  0.75320622  0.89993908  1
  Al  Al31  1  0.22797137  0.86291345  0.65571972  1
  Al  Al32  1  0.77763958  0.76003102  0.40084357  1
  Al  Al33  1  0.88890033  0.87041870  0.14996630  1
  Al  Al34  1  0.45079163  0.75134433  0.89759007  1
  Al  Al35  1  0.55311449  0.87308392  0.65029312  1
  N  N36  1  0.22975446  0.21497283  0.35671034  1
  N  N37  1  0.09349123  0.10617268  0.08671717  1
  N  N38  1  0.86123121  0.21921765  0.84272241  1
  N  N39  1  0.76595231  0.11658534  0.58426900  1
  N  N40  1  0.55343526  0.20439919  0.33851456  1
  N  N41  1  0.45526811  0.10507639  0.07890507  1
  N  N42  1  0.23439818  0.21969026  0.83987617  1
  N  N43  1  0.11038233  0.09310795  0.62777548  1
  N  N44  1  0.88249043  0.19182834  0.32965137  1
  N  N45  1  0.77571637  0.09245417  0.09153346  1
  N  N46  1  0.55715261  0.20779572  0.83804354  1
  N  N47  1  0.44866770  0.09270089  0.59634977  1
  N  N48  1  0.22161772  0.53812399  0.33782245  1
  N  N49  1  0.10412292  0.44646386  0.08192106  1
  N  N50  1  0.88843968  0.53720840  0.84290132  1
  N  N51  1  0.79966877  0.41710656  0.59019322  1
  N  N52  1  0.53424310  0.54741079  0.34315902  1
  N  N53  1  0.44293869  0.42697154  0.09250678  1
  N  N54  1  0.22479259  0.53809030  0.83937426  1
  N  N55  1  0.10941408  0.43202341  0.59403803  1
  N  N56  1  0.90293324  0.55002883  0.33321813  1
  N  N57  1  0.77716465  0.43022169  0.10199387  1
  N  N58  1  0.55785143  0.53383264  0.85079405  1
  N  N59  1  0.43302581  0.41647717  0.58414506  1
  N  N60  1  0.22741445  0.85874632  0.34897739  1
  N  N61  1  0.10050654  0.75108426  0.08805999  1
  N  N62  1  0.88856197  0.87393622  0.84740067  1
  N  N63  1  0.76894954  0.74862405  0.58988567  1
  N  N64  1  0.55438177  0.87302778  0.35335466  1
  N  N65  1  0.45589019  0.74146519  0.08285717  1
  N  N66  1  0.23373540  0.84631313  0.84505348  1
  N  N67  1  0.13180137  0.74808504  0.58800664  1
  N  N68  1  0.88809102  0.87197873  0.34909618  1
  N  N69  1  0.79475045  0.75459053  0.08506399  1
  N  N70  1  0.55631864  0.87141646  0.84400591  1
  N  N71  1  0.43607687  0.77825830  0.59155164  1
