# generated using pymatgen
data_Sc2Al7N9
_symmetry_space_group_name_H-M   'P 1'
_cell_length_a   9.73930773
_cell_length_b   9.74076010
_cell_length_c   10.14006633
_cell_angle_alpha   90.04121125
_cell_angle_beta   89.92570235
_cell_angle_gamma   59.84369274
_symmetry_Int_Tables_number   1
_chemical_formula_structural   Sc2Al7N9
_chemical_formula_sum   'Sc8 Al28 N36'
_cell_volume   831.77384029
_cell_formula_units_Z   4
loop_
 _symmetry_equiv_pos_site_id
 _symmetry_equiv_pos_as_xyz
  1  'x, y, z'
loop_
 _atom_site_type_symbol
 _atom_site_label
 _atom_site_symmetry_multiplicity
 _atom_site_fract_x
 _atom_site_fract_y
 _atom_site_fract_z
 _atom_site_occupancy
  Sc  Sc0  1  0.10953579  0.09315153  0.40352738  1
  Sc  Sc1  1  0.22121356  0.21435026  0.13686180  1
  Sc  Sc2  1  0.10881366  0.09706309  0.86846773  1
  Sc  Sc3  1  0.77993502  0.42962869  0.37390167  1
  Sc  Sc4  1  0.55650538  0.53438020  0.63411191  1
  Sc  Sc5  1  0.21931359  0.86802818  0.13271850  1
  Sc  Sc6  1  0.88829216  0.87332417  0.63049108  1
  Sc  Sc7  1  0.56049481  0.87108594  0.13466398  1
  Al  Al8  1  0.77146316  0.09599663  0.89379003  1
  Al  Al9  1  0.87973525  0.21192946  0.64792952  1
  Al  Al10  1  0.44818045  0.09539695  0.39844882  1
  Al  Al11  1  0.55749268  0.20796250  0.14058937  1
  Al  Al12  1  0.22750009  0.21181180  0.64397450  1
  Al  Al13  1  0.77070822  0.09719307  0.38736680  1
  Al  Al14  1  0.88269004  0.20387845  0.13595628  1
  Al  Al15  1  0.45049088  0.09900348  0.88530938  1
  Al  Al16  1  0.55251528  0.20773981  0.64101322  1
  Al  Al17  1  0.11366835  0.43501304  0.39557601  1
  Al  Al18  1  0.21963390  0.53951168  0.14029911  1
  Al  Al19  1  0.77340714  0.43108400  0.89842072  1
  Al  Al20  1  0.89169509  0.53426734  0.64397975  1
  Al  Al21  1  0.43704645  0.42522106  0.38805084  1
  Al  Al22  1  0.55155904  0.53560668  0.14139591  1
  Al  Al23  1  0.11180401  0.43510278  0.88792915  1
  Al  Al24  1  0.22435561  0.53444602  0.64227107  1
  Al  Al25  1  0.89472949  0.54401943  0.13706002  1
  Al  Al26  1  0.44441997  0.42633518  0.89343907  1
  Al  Al27  1  0.11727555  0.75304285  0.39116338  1
  Al  Al28  1  0.78165008  0.75944114  0.88975078  1
  Al  Al29  1  0.44063113  0.76408763  0.39537686  1
  Al  Al30  1  0.11019522  0.75321943  0.89205962  1
  Al  Al31  1  0.22798234  0.86292638  0.64784724  1
  Al  Al32  1  0.77764748  0.76004175  0.39296455  1
  Al  Al33  1  0.88891272  0.87042907  0.14209272  1
  Al  Al34  1  0.45080722  0.75134957  0.88970770  1
  Al  Al35  1  0.55312208  0.87309964  0.64241665  1
  N  N36  1  0.22976153  0.21498576  0.34883897  1
  N  N37  1  0.09350214  0.10618562  0.07883925  1
  N  N38  1  0.86123840  0.21923254  0.83484514  1
  N  N39  1  0.76595834  0.11659821  0.57639347  1
  N  N40  1  0.55344678  0.20440950  0.33063673  1
  N  N41  1  0.45527349  0.10508994  0.07102985  1
  N  N42  1  0.23440521  0.21970735  0.83199662  1
  N  N43  1  0.11038979  0.09311871  0.61989738  1
  N  N44  1  0.88250796  0.19182984  0.32177420  1
  N  N45  1  0.77572722  0.09246150  0.08365563  1
  N  N46  1  0.55716061  0.20780928  0.83016918  1
  N  N47  1  0.44867563  0.09271389  0.58847266  1
  N  N48  1  0.22163281  0.53813202  0.32994423  1
  N  N49  1  0.10413292  0.44647583  0.07404390  1
  N  N50  1  0.88844702  0.53722243  0.83502472  1
  N  N51  1  0.79968317  0.41711601  0.58231028  1
  N  N52  1  0.53426249  0.54741552  0.33529314  1
  N  N53  1  0.44295179  0.42698176  0.08462916  1
  N  N54  1  0.22480128  0.53810591  0.83149829  1
  N  N55  1  0.10942102  0.43204093  0.58616185  1
  N  N56  1  0.90294536  0.55004388  0.32533977  1
  N  N57  1  0.77717686  0.43022862  0.09412037  1
  N  N58  1  0.55786227  0.53384421  0.84290344  1
  N  N59  1  0.43303459  0.41648689  0.57627017  1
  N  N60  1  0.22743401  0.85874879  0.34108290  1
  N  N61  1  0.10051448  0.75109476  0.08018350  1
  N  N62  1  0.88857170  0.87395019  0.83951533  1
  N  N63  1  0.76895458  0.74863690  0.58200958  1
  N  N64  1  0.55439226  0.87304095  0.34547146  1
  N  N65  1  0.45591279  0.74146308  0.07497791  1
  N  N66  1  0.23374448  0.84632921  0.83718604  1
  N  N67  1  0.13181773  0.74809656  0.58012727  1
  N  N68  1  0.88810374  0.87198878  0.34122553  1
  N  N69  1  0.79476322  0.75460246  0.07718494  1
  N  N70  1  0.55632713  0.87143135  0.83613189  1
  N  N71  1  0.43608143  0.77827772  0.58367263  1
