# generated using pymatgen
data_Sc2Al7N9
_symmetry_space_group_name_H-M   'P 1'
_cell_length_a   9.74077741
_cell_length_b   9.73932750
_cell_length_c   10.14157491
_cell_angle_alpha   89.90314925
_cell_angle_beta   89.92984621
_cell_angle_gamma   59.83104255
_symmetry_Int_Tables_number   1
_chemical_formula_structural   Sc2Al7N9
_chemical_formula_sum   'Sc8 Al28 N36'
_cell_volume   831.79449871
_cell_formula_units_Z   4
loop_
 _symmetry_equiv_pos_site_id
 _symmetry_equiv_pos_as_xyz
  1  'x, y, z'
loop_
 _atom_site_type_symbol
 _atom_site_label
 _atom_site_symmetry_multiplicity
 _atom_site_fract_x
 _atom_site_fract_y
 _atom_site_fract_z
 _atom_site_occupancy
  Sc  Sc0  1  0.10935031  0.09587127  0.33014354  1
  Sc  Sc1  1  0.22197764  0.21424763  0.06431148  1
  Sc  Sc2  1  0.10939878  0.09487482  0.80065506  1
  Sc  Sc3  1  0.77398535  0.43419244  0.30816944  1
  Sc  Sc4  1  0.55404526  0.53547753  0.57747348  1
  Sc  Sc5  1  0.22075079  0.86636748  0.06895500  1
  Sc  Sc6  1  0.88808982  0.87366638  0.56906820  1
  Sc  Sc7  1  0.56046631  0.87036403  0.06792818  1
  Al  Al8  1  0.76934199  0.10072037  0.81294099  1
  Al  Al9  1  0.88240630  0.20844679  0.55923652  1
  Al  Al10  1  0.45012053  0.09919677  0.31552294  1
  Al  Al11  1  0.55770536  0.20804976  0.06006504  1
  Al  Al12  1  0.22744454  0.21169451  0.55710786  1
  Al  Al13  1  0.77243917  0.09330083  0.30560257  1
  Al  Al14  1  0.88005854  0.20873747  0.05581933  1
  Al  Al15  1  0.44893013  0.09510405  0.80212691  1
  Al  Al16  1  0.55271497  0.20739041  0.55878329  1
  Al  Al17  1  0.11297107  0.43760685  0.31229729  1
  Al  Al18  1  0.21936088  0.53969131  0.06037465  1
  Al  Al19  1  0.78098722  0.42759730  0.81313171  1
  Al  Al20  1  0.89414866  0.53681632  0.56240386  1
  Al  Al21  1  0.44155300  0.42792679  0.30782910  1
  Al  Al22  1  0.55632850  0.53337932  0.05059878  1
  Al  Al23  1  0.11262296  0.43247079  0.80503157  1
  Al  Al24  1  0.22476376  0.53393817  0.55808741  1
  Al  Al25  1  0.89183813  0.54069787  0.05582801  1
  Al  Al26  1  0.43916788  0.42271498  0.81225953  1
  Al  Al27  1  0.10916943  0.75382563  0.30890474  1
  Al  Al28  1  0.77533912  0.75857175  0.80793729  1
  Al  Al29  1  0.44682229  0.75201289  0.31259904  1
  Al  Al30  1  0.11782917  0.75265202  0.80884836  1
  Al  Al31  1  0.22758316  0.86453865  0.55370913  1
  Al  Al32  1  0.78425100  0.76089715  0.30965154  1
  Al  Al33  1  0.88963074  0.86988067  0.05791565  1
  Al  Al34  1  0.44382060  0.76433433  0.80507201  1
  Al  Al35  1  0.55328641  0.87351280  0.55736696  1
  N  N36  1  0.23318260  0.22066610  0.36813083  1
  N  N37  1  0.09059059  0.10725035  0.11719995  1
  N  N38  1  0.87172969  0.21222686  0.86884281  1
  N  N39  1  0.76468241  0.11558480  0.62560598  1
  N  N40  1  0.55709296  0.20779029  0.36920275  1
  N  N41  1  0.45581519  0.10499386  0.13016528  1
  N  N42  1  0.23135459  0.21403181  0.85320787  1
  N  N43  1  0.11230791  0.09314931  0.58565201  1
  N  N44  1  0.86866354  0.20251950  0.37452611  1
  N  N45  1  0.77705409  0.09362098  0.11398811  1
  N  N46  1  0.55337491  0.20409700  0.87070205  1
  N  N47  1  0.44880577  0.09264587  0.61163290  1
  N  N48  1  0.22482681  0.53865736  0.36856660  1
  N  N49  1  0.10102758  0.44759443  0.12416645  1
  N  N50  1  0.89224985  0.53880000  0.86615525  1
  N  N51  1  0.80145761  0.41714849  0.62267267  1
  N  N52  1  0.53993731  0.54095708  0.37017119  1
  N  N53  1  0.44411767  0.42815176  0.11379425  1
  N  N54  1  0.22097050  0.53784252  0.87079069  1
  N  N55  1  0.11160359  0.43094353  0.61653905  1
  N  N56  1  0.89909465  0.54846152  0.37463516  1
  N  N57  1  0.77617292  0.43037223  0.09771625  1
  N  N58  1  0.55336324  0.53905955  0.85404792  1
  N  N59  1  0.43176246  0.41452154  0.62560100  1
  N  N60  1  0.23028155  0.84948604  0.36330841  1
  N  N61  1  0.10063540  0.75093671  0.12091191  1
  N  N62  1  0.88903648  0.87141816  0.86006338  1
  N  N63  1  0.76748056  0.75151817  0.62055290  1
  N  N64  1  0.55659554  0.87030442  0.36301320  1
  N  N65  1  0.45817157  0.73688052  0.12594241  1
  N  N66  1  0.22989559  0.85598080  0.86077210  1
  N  N67  1  0.13208826  0.74818878  0.61999836  1
  N  N68  1  0.88750251  0.87481420  0.35946474  1
  N  N69  1  0.79632252  0.75145118  0.12029317  1
  N  N70  1  0.55391365  0.87420154  0.85735373  1
  N  N71  1  0.43484846  0.78156365  0.61776419  1
