# generated using pymatgen
data_Sc2Al7N9
_symmetry_space_group_name_H-M   'P 1'
_cell_length_a   10.05417475
_cell_length_b   10.06004575
_cell_length_c   9.26280090
_cell_angle_alpha   89.93337513
_cell_angle_beta   89.96423829
_cell_angle_gamma   59.74837758
_symmetry_Int_Tables_number   1
_chemical_formula_structural   Sc2Al7N9
_chemical_formula_sum   'Sc8 Al28 N36'
_cell_volume   809.30513968
_cell_formula_units_Z   4
loop_
 _symmetry_equiv_pos_site_id
 _symmetry_equiv_pos_as_xyz
  1  'x, y, z'
loop_
 _atom_site_type_symbol
 _atom_site_label
 _atom_site_symmetry_multiplicity
 _atom_site_fract_x
 _atom_site_fract_y
 _atom_site_fract_z
 _atom_site_occupancy
  Sc  Sc0  1  0.10870196  0.09551071  0.35206754  1
  Sc  Sc1  1  0.22550411  0.21489735  0.09551638  1
  Sc  Sc2  1  0.10983116  0.09546811  0.84251369  1
  Sc  Sc3  1  0.77579757  0.43263732  0.34367242  1
  Sc  Sc4  1  0.54962707  0.53588079  0.60440808  1
  Sc  Sc5  1  0.22215421  0.86140669  0.09819222  1
  Sc  Sc6  1  0.88603284  0.87488533  0.59943878  1
  Sc  Sc7  1  0.55916318  0.87147216  0.09892783  1
  Al  Al8  1  0.76791223  0.10206139  0.83675081  1
  Al  Al9  1  0.88253093  0.20678427  0.58609316  1
  Al  Al10  1  0.45022487  0.10003677  0.34354076  1
  Al  Al11  1  0.55822401  0.20667260  0.08157738  1
  Al  Al12  1  0.22531151  0.21217797  0.58674104  1
  Al  Al13  1  0.77304164  0.09225562  0.32601918  1
  Al  Al14  1  0.87875923  0.21018483  0.07851679  1
  Al  Al15  1  0.45005179  0.09486531  0.82229062  1
  Al  Al16  1  0.55323841  0.20936285  0.57918437  1
  Al  Al17  1  0.11215085  0.43856070  0.33470288  1
  Al  Al18  1  0.21751330  0.54093250  0.08198076  1
  Al  Al19  1  0.78050728  0.42920580  0.83554663  1
  Al  Al20  1  0.89327842  0.53952466  0.58465478  1
  Al  Al21  1  0.44208120  0.42745951  0.32486912  1
  Al  Al22  1  0.55847935  0.53196844  0.07415058  1
  Al  Al23  1  0.11283130  0.43328384  0.82723977  1
  Al  Al24  1  0.22592142  0.53284257  0.57825933  1
  Al  Al25  1  0.89234568  0.54020458  0.07798775  1
  Al  Al26  1  0.43786257  0.42172551  0.83906543  1
  Al  Al27  1  0.10830595  0.75376541  0.33537440  1
  Al  Al28  1  0.77433700  0.75864656  0.83385181  1
  Al  Al29  1  0.44735515  0.75064331  0.33638628  1
  Al  Al30  1  0.11857155  0.75133780  0.82915717  1
  Al  Al31  1  0.22602442  0.86663581  0.58285079  1
  Al  Al32  1  0.78593391  0.76046086  0.33036821  1
  Al  Al33  1  0.89048692  0.86945843  0.07820945  1
  Al  Al34  1  0.44445995  0.76447329  0.83030248  1
  Al  Al35  1  0.55459812  0.87182575  0.57947329  1
  N  N36  1  0.22979894  0.21993890  0.37154564  1
  N  N37  1  0.09393118  0.10482445  0.10867080  1
  N  N38  1  0.86814577  0.21571101  0.87066648  1
  N  N39  1  0.76315652  0.11534953  0.63124823  1
  N  N40  1  0.55755068  0.20997088  0.37328743  1
  N  N41  1  0.45782074  0.10462481  0.13767020  1
  N  N42  1  0.23388518  0.21556640  0.85710265  1
  N  N43  1  0.11106387  0.09358424  0.60418995  1
  N  N44  1  0.87339799  0.19766733  0.37748899  1
  N  N45  1  0.77786528  0.09289805  0.11663400  1
  N  N46  1  0.55322733  0.20299881  0.87655620  1
  N  N47  1  0.45005410  0.09241706  0.61190923  1
  N  N48  1  0.22684639  0.53667037  0.37202696  1
  N  N49  1  0.10131252  0.44808711  0.12754655  1
  N  N50  1  0.89228970  0.53762094  0.87055346  1
  N  N51  1  0.79694407  0.42092481  0.61944885  1
  N  N52  1  0.53910140  0.53945707  0.37422675  1
  N  N53  1  0.44438971  0.42747483  0.11454692  1
  N  N54  1  0.21968291  0.53893546  0.87671933  1
  N  N55  1  0.11067969  0.43284077  0.62129091  1
  N  N56  1  0.89973027  0.55019286  0.37802113  1
  N  N57  1  0.77762130  0.42994795  0.10820961  1
  N  N58  1  0.55456857  0.53868334  0.86072925  1
  N  N59  1  0.43114300  0.41459416  0.63378385  1
  N  N60  1  0.22896010  0.85251846  0.36612965  1
  N  N61  1  0.09942306  0.75059452  0.12719259  1
  N  N62  1  0.88993369  0.87149125  0.86353968  1
  N  N63  1  0.76708669  0.75259182  0.62726291  1
  N  N64  1  0.55846092  0.86838436  0.36655577  1
  N  N65  1  0.45837227  0.73678836  0.12753902  1
  N  N66  1  0.23023816  0.85324205  0.86500802  1
  N  N67  1  0.13071980  0.74745829  0.62088255  1
  N  N68  1  0.88580189  0.87535919  0.36763570  1
  N  N69  1  0.79606142  0.75245056  0.12004141  1
  N  N70  1  0.55243217  0.87604954  0.86533301  1
  N  N71  1  0.43645759  0.77964778  0.62100360  1
