# generated using pymatgen
data_Sc2Al7N9
_symmetry_space_group_name_H-M   'P 1'
_cell_length_a   10.02039064
_cell_length_b   10.02569580
_cell_length_c   9.36352716
_cell_angle_alpha   89.93284732
_cell_angle_beta   89.95920479
_cell_angle_gamma   59.74886650
_symmetry_Int_Tables_number   1
_chemical_formula_structural   Sc2Al7N9
_chemical_formula_sum   'Sc8 Al28 N36'
_cell_volume   812.57674156
_cell_formula_units_Z   4
loop_
 _symmetry_equiv_pos_site_id
 _symmetry_equiv_pos_as_xyz
  1  'x, y, z'
loop_
 _atom_site_type_symbol
 _atom_site_label
 _atom_site_symmetry_multiplicity
 _atom_site_fract_x
 _atom_site_fract_y
 _atom_site_fract_z
 _atom_site_occupancy
  Sc  Sc0  1  0.10859885  0.09574749  0.35071887  1
  Sc  Sc1  1  0.22540086  0.21493927  0.09389007  1
  Sc  Sc2  1  0.11003963  0.09521706  0.84091319  1
  Sc  Sc3  1  0.77524813  0.43293465  0.34240477  1
  Sc  Sc4  1  0.54946232  0.53614467  0.60397818  1
  Sc  Sc5  1  0.22225168  0.86145483  0.09736359  1
  Sc  Sc6  1  0.88626162  0.87464278  0.59884909  1
  Sc  Sc7  1  0.55932389  0.87125538  0.09810450  1
  Al  Al8  1  0.76774976  0.10246029  0.83499841  1
  Al  Al9  1  0.88276902  0.20658829  0.58404829  1
  Al  Al10  1  0.45031322  0.10026289  0.34138477  1
  Al  Al11  1  0.55839337  0.20677938  0.08037729  1
  Al  Al12  1  0.22543253  0.21203407  0.58425676  1
  Al  Al13  1  0.77318634  0.09193378  0.32509269  1
  Al  Al14  1  0.87848843  0.21046892  0.07730648  1
  Al  Al15  1  0.44993822  0.09470373  0.82149292  1
  Al  Al16  1  0.55307830  0.20916782  0.57803554  1
  Al  Al17  1  0.11216769  0.43875989  0.33307781  1
  Al  Al18  1  0.21759977  0.54091234  0.08072364  1
  Al  Al19  1  0.78089264  0.42898614  0.83284904  1
  Al  Al20  1  0.89345253  0.53949125  0.58305555  1
  Al  Al21  1  0.44214413  0.42762397  0.32418912  1
  Al  Al22  1  0.55872702  0.53183693  0.07187785  1
  Al  Al23  1  0.11287846  0.43305922  0.82611134  1
  Al  Al24  1  0.22581799  0.53286283  0.57708765  1
  Al  Al25  1  0.89208609  0.54011766  0.07690302  1
  Al  Al26  1  0.43773743  0.42153187  0.83716618  1
  Al  Al27  1  0.10780473  0.75380012  0.33354349  1
  Al  Al28  1  0.77376682  0.75858502  0.83220566  1
  Al  Al29  1  0.44756967  0.74998925  0.33467600  1
  Al  Al30  1  0.11925152  0.75128709  0.82800868  1
  Al  Al31  1  0.22613677  0.86662414  0.57973600  1
  Al  Al32  1  0.78641187  0.76050506  0.32900656  1
  Al  Al33  1  0.89041820  0.86949598  0.07590305  1
  Al  Al34  1  0.44410893  0.76521922  0.82862807  1
  Al  Al35  1  0.55437575  0.87202923  0.57712417  1
  N  N36  1  0.23009454  0.22012360  0.37251986  1
  N  N37  1  0.09359250  0.10506369  0.11031284  1
  N  N38  1  0.86799878  0.21588468  0.87247317  1
  N  N39  1  0.76304904  0.11577183  0.63248912  1
  N  N40  1  0.55760287  0.20980713  0.37478357  1
  N  N41  1  0.45798341  0.10487112  0.13890562  1
  N  N42  1  0.23384162  0.21555684  0.85948350  1
  N  N43  1  0.11128563  0.09346653  0.60413380  1
  N  N44  1  0.87308722  0.19770725  0.37913156  1
  N  N45  1  0.77803680  0.09266986  0.11833539  1
  N  N46  1  0.55324836  0.20302520  0.87785617  1
  N  N47  1  0.44991195  0.09227873  0.61387033  1
  N  N48  1  0.22664996  0.53689868  0.37350949  1
  N  N49  1  0.10108555  0.44837369  0.12906193  1
  N  N50  1  0.89214024  0.53762375  0.87207301  1
  N  N51  1  0.79747485  0.42057217  0.62068115  1
  N  N52  1  0.53870940  0.53960125  0.37715266  1
  N  N53  1  0.44456213  0.42763930  0.11635976  1
  N  N54  1  0.21972910  0.53883718  0.87800657  1
  N  N55  1  0.11075119  0.43259382  0.62279242  1
  N  N56  1  0.89986248  0.55026944  0.37954421  1
  N  N57  1  0.77732691  0.43002130  0.11029762  1
  N  N58  1  0.55461533  0.53876910  0.86076371  1
  N  N59  1  0.43088094  0.41427321  0.63487547  1
  N  N60  1  0.22898967  0.85224110  0.36676388  1
  N  N61  1  0.09903092  0.75063452  0.12847492  1
  N  N62  1  0.88982148  0.87149465  0.86387211  1
  N  N63  1  0.76655362  0.75243799  0.62857104  1
  N  N64  1  0.55831956  0.86852633  0.36708381  1
  N  N65  1  0.45890068  0.73588414  0.12969288  1
  N  N66  1  0.23053169  0.85309854  0.86781446  1
  N  N67  1  0.13150652  0.74738395  0.62281208  1
  N  N68  1  0.88598284  0.87528304  0.36999656  1
  N  N69  1  0.79651564  0.75235917  0.12196710  1
  N  N70  1  0.55242798  0.87596798  0.86764255  1
  N  N71  1  0.43592057  0.78060963  0.62268724  1
