# generated using pymatgen
data_Sc2Al7N9
_symmetry_space_group_name_H-M   'P 1'
_cell_length_a   9.74075516
_cell_length_b   9.73927354
_cell_length_c   10.14165370
_cell_angle_alpha   89.90328891
_cell_angle_beta   89.92995472
_cell_angle_gamma   59.83113624
_symmetry_Int_Tables_number   1
_chemical_formula_structural   Sc2Al7N9
_chemical_formula_sum   'Sc8 Al28 N36'
_cell_volume   831.79524713
_cell_formula_units_Z   4
loop_
 _symmetry_equiv_pos_site_id
 _symmetry_equiv_pos_as_xyz
  1  'x, y, z'
loop_
 _atom_site_type_symbol
 _atom_site_label
 _atom_site_symmetry_multiplicity
 _atom_site_fract_x
 _atom_site_fract_y
 _atom_site_fract_z
 _atom_site_occupancy
  Sc  Sc0  1  0.10935109  0.09587658  0.32769769  1
  Sc  Sc1  1  0.22198119  0.21425059  0.06186383  1
  Sc  Sc2  1  0.10940431  0.09487635  0.79820761  1
  Sc  Sc3  1  0.77398624  0.43419661  0.30571980  1
  Sc  Sc4  1  0.55404785  0.53548164  0.57502966  1
  Sc  Sc5  1  0.22075466  0.86637059  0.06651278  1
  Sc  Sc6  1  0.88809394  0.87366955  0.56662810  1
  Sc  Sc7  1  0.56047108  0.87036611  0.06548677  1
  Al  Al8  1  0.76934420  0.10072494  0.81049334  1
  Al  Al9  1  0.88240898  0.20845150  0.55679298  1
  Al  Al10  1  0.45012302  0.09920099  0.31307762  1
  Al  Al11  1  0.55770953  0.20805297  0.05762277  1
  Al  Al12  1  0.22744811  0.21169792  0.55466067  1
  Al  Al13  1  0.77244328  0.09330426  0.30315724  1
  Al  Al14  1  0.88006285  0.20874041  0.05336879  1
  Al  Al15  1  0.44893422  0.09510672  0.79968468  1
  Al  Al16  1  0.55271734  0.20739369  0.55633827  1
  Al  Al17  1  0.11297356  0.43760991  0.30985077  1
  Al  Al18  1  0.21936439  0.53969461  0.05793328  1
  Al  Al19  1  0.78099134  0.42760093  0.81068343  1
  Al  Al20  1  0.89415119  0.53681996  0.55995647  1
  Al  Al21  1  0.44155636  0.42793099  0.30538306  1
  Al  Al22  1  0.55633219  0.53338252  0.04814897  1
  Al  Al23  1  0.11262673  0.43247444  0.80258364  1
  Al  Al24  1  0.22476693  0.53394196  0.55564130  1
  Al  Al25  1  0.89184188  0.54070126  0.05337949  1
  Al  Al26  1  0.43917037  0.42271785  0.80981338  1
  Al  Al27  1  0.10917106  0.75383080  0.30646282  1
  Al  Al28  1  0.77534123  0.75857524  0.80549159  1
  Al  Al29  1  0.44682495  0.75201578  0.31015313  1
  Al  Al30  1  0.11783487  0.75265422  0.80640615  1
  Al  Al31  1  0.22758638  0.86454310  0.55126496  1
  Al  Al32  1  0.78425540  0.76090068  0.30720923  1
  Al  Al33  1  0.88963451  0.86988377  0.05546767  1
  Al  Al34  1  0.44382422  0.76433886  0.80262568  1
  Al  Al35  1  0.55328901  0.87351731  0.55491865  1
  N  N36  1  0.23318597  0.22066927  0.36568576  1
  N  N37  1  0.09059277  0.10725503  0.11475581  1
  N  N38  1  0.87173490  0.21222944  0.86639425  1
  N  N39  1  0.76468404  0.11558973  0.62316090  1
  N  N40  1  0.55709620  0.20779397  0.36675783  1
  N  N41  1  0.45581747  0.10499801  0.12772147  1
  N  N42  1  0.23135791  0.21403533  0.85076206  1
  N  N43  1  0.11231055  0.09315379  0.58320707  1
  N  N44  1  0.86866532  0.20252533  0.37208339  1
  N  N45  1  0.77705883  0.09362399  0.11154304  1
  N  N46  1  0.55337898  0.20410043  0.86825967  1
  N  N47  1  0.44880858  0.09264926  0.60918970  1
  N  N48  1  0.22482976  0.53866083  0.36612121  1
  N  N49  1  0.10103047  0.44759688  0.12172181  1
  N  N50  1  0.89225397  0.53880349  0.86370869  1
  N  N51  1  0.80146002  0.41715346  0.62022779  1
  N  N52  1  0.53994020  0.54096103  0.36772867  1
  N  N53  1  0.44412180  0.42815574  0.11134978  1
  N  N54  1  0.22097438  0.53784500  0.86834894  1
  N  N55  1  0.11160614  0.43094773  0.61409278  1
  N  N56  1  0.89909741  0.54846356  0.37218977  1
  N  N57  1  0.77617612  0.43037549  0.09526700  1
  N  N58  1  0.55336702  0.53906273  0.85160030  1
  N  N59  1  0.43176456  0.41452488  0.62315644  1
  N  N60  1  0.23028476  0.84949062  0.36086516  1
  N  N61  1  0.10063748  0.75094125  0.11846999  1
  N  N62  1  0.88904035  0.87142144  0.85761661  1
  N  N63  1  0.76748202  0.75152212  0.61810788  1
  N  N64  1  0.55659876  0.87030794  0.36056713  1
  N  N65  1  0.45817591  0.73688184  0.12349849  1
  N  N66  1  0.22990098  0.85598358  0.85833090  1
  N  N67  1  0.13209357  0.74819194  0.61755646  1
  N  N68  1  0.88750571  0.87481842  0.35702512  1
  N  N69  1  0.79632756  0.75145408  0.11785040  1
  N  N70  1  0.55391780  0.87420444  0.85491226  1
  N  N71  1  0.43485117  0.78156921  0.61531973  1
