# generated using pymatgen
data_Sc2Al7N9
_symmetry_space_group_name_H-M   'P 1'
_cell_length_a   9.74086835
_cell_length_b   9.73940288
_cell_length_c   10.14138514
_cell_angle_alpha   89.90316957
_cell_angle_beta   89.93002504
_cell_angle_gamma   59.83078339
_symmetry_Int_Tables_number   1
_chemical_formula_structural   Sc2Al7N9
_chemical_formula_sum   'Sc8 Al28 N36'
_cell_volume   831.79095238
_cell_formula_units_Z   4
loop_
 _symmetry_equiv_pos_site_id
 _symmetry_equiv_pos_as_xyz
  1  'x, y, z'
loop_
 _atom_site_type_symbol
 _atom_site_label
 _atom_site_symmetry_multiplicity
 _atom_site_fract_x
 _atom_site_fract_y
 _atom_site_fract_z
 _atom_site_occupancy
  Sc  Sc0  1  0.10935495  0.09587258  0.32536163  1
  Sc  Sc1  1  0.22197682  0.21425575  0.05953099  1
  Sc  Sc2  1  0.10940506  0.09488652  0.79586263  1
  Sc  Sc3  1  0.77399713  0.43419594  0.30337305  1
  Sc  Sc4  1  0.55405831  0.53548015  0.57268311  1
  Sc  Sc5  1  0.22075420  0.86637730  0.06416273  1
  Sc  Sc6  1  0.88809749  0.87367302  0.56427798  1
  Sc  Sc7  1  0.56047180  0.87037207  0.06313396  1
  Al  Al8  1  0.76934656  0.10072800  0.80814867  1
  Al  Al9  1  0.88241073  0.20845373  0.55444826  1
  Al  Al10  1  0.45012742  0.09920271  0.31072584  1
  Al  Al11  1  0.55770850  0.20805902  0.05527246  1
  Al  Al12  1  0.22745329  0.21170060  0.55230965  1
  Al  Al13  1  0.77244460  0.09330762  0.30081059  1
  Al  Al14  1  0.88006229  0.20874356  0.05102563  1
  Al  Al15  1  0.44893372  0.09511452  0.79733690  1
  Al  Al16  1  0.55272051  0.20739782  0.55398903  1
  Al  Al17  1  0.11297601  0.43761518  0.30750739  1
  Al  Al18  1  0.21936571  0.53969921  0.05558415  1
  Al  Al19  1  0.78099411  0.42760527  0.80834610  1
  Al  Al20  1  0.89415761  0.53682049  0.55761520  1
  Al  Al21  1  0.44156206  0.42793375  0.30303290  1
  Al  Al22  1  0.55633163  0.53339020  0.04580347  1
  Al  Al23  1  0.11263251  0.43247685  0.80024118  1
  Al  Al24  1  0.22477342  0.53394314  0.55329240  1
  Al  Al25  1  0.89184385  0.54070854  0.05103296  1
  Al  Al26  1  0.43917363  0.42272405  0.80746782  1
  Al  Al27  1  0.10917766  0.75383146  0.30411157  1
  Al  Al28  1  0.77534571  0.75858037  0.80314079  1
  Al  Al29  1  0.44683114  0.75201813  0.30780664  1
  Al  Al30  1  0.11783511  0.75265982  0.80405547  1
  Al  Al31  1  0.22759340  0.86453955  0.54892218  1
  Al  Al32  1  0.78425812  0.76090322  0.30486042  1
  Al  Al33  1  0.88963526  0.86988890  0.05312214  1
  Al  Al34  1  0.44382755  0.76434274  0.80027796  1
  Al  Al35  1  0.55329363  0.87352001  0.55257219  1
  N  N36  1  0.23318819  0.22067056  0.36332969  1
  N  N37  1  0.09059021  0.10725705  0.11241242  1
  N  N38  1  0.87173625  0.21223219  0.86404723  1
  N  N39  1  0.76468707  0.11559150  0.62081150  1
  N  N40  1  0.55709764  0.20779684  0.36440597  1
  N  N41  1  0.45581970  0.10500203  0.12536631  1
  N  N42  1  0.23136042  0.21404002  0.84842225  1
  N  N43  1  0.11231648  0.09315419  0.58085562  1
  N  N44  1  0.86866694  0.20252638  0.36973461  1
  N  N45  1  0.77705682  0.09362971  0.10919355  1
  N  N46  1  0.55338000  0.20410618  0.86590736  1
  N  N47  1  0.44881088  0.09265396  0.60683820  1
  N  N48  1  0.22483601  0.53866190  0.36377003  1
  N  N49  1  0.10103064  0.44760585  0.11937394  1
  N  N50  1  0.89225760  0.53880916  0.86135923  1
  N  N51  1  0.80146844  0.41715322  0.61788422  1
  N  N52  1  0.53995022  0.54096043  0.36537421  1
  N  N53  1  0.44412312  0.42816118  0.10899798  1
  N  N54  1  0.22097708  0.53785088  0.86599726  1
  N  N55  1  0.11161475  0.43094707  0.61174469  1
  N  N56  1  0.89910146  0.54846724  0.36984327  1
  N  N57  1  0.77617799  0.43038147  0.09291552  1
  N  N58  1  0.55336853  0.53906872  0.84925289  1
  N  N59  1  0.43177128  0.41452917  0.62080587  1
  N  N60  1  0.23029222  0.84948658  0.35851710  1
  N  N61  1  0.10064076  0.75094578  0.11611561  1
  N  N62  1  0.88904209  0.87142591  0.85526730  1
  N  N63  1  0.76748846  0.75152502  0.61575487  1
  N  N64  1  0.55660220  0.87031185  0.35821679  1
  N  N65  1  0.45817531  0.73689131  0.12114549  1
  N  N66  1  0.22990100  0.85599112  0.85597376  1
  N  N67  1  0.13209566  0.74819270  0.61520363  1
  N  N68  1  0.88751027  0.87481996  0.35467056  1
  N  N69  1  0.79632748  0.75146006  0.11549843  1
  N  N70  1  0.55392094  0.87420935  0.85255604  1
  N  N71  1  0.43486054  0.78156632  0.61296755  1
