# generated using pymatgen
data_Sc2Al7N9
_symmetry_space_group_name_H-M   'P 1'
_cell_length_a   9.74065570
_cell_length_b   9.73922042
_cell_length_c   10.14184588
_cell_angle_alpha   89.90301870
_cell_angle_beta   89.92968562
_cell_angle_gamma   59.83116100
_symmetry_Int_Tables_number   1
_chemical_formula_structural   Sc2Al7N9
_chemical_formula_sum   'Sc8 Al28 N36'
_cell_volume   831.79818004
_cell_formula_units_Z   4
loop_
 _symmetry_equiv_pos_site_id
 _symmetry_equiv_pos_as_xyz
  1  'x, y, z'
loop_
 _atom_site_type_symbol
 _atom_site_label
 _atom_site_symmetry_multiplicity
 _atom_site_fract_x
 _atom_site_fract_y
 _atom_site_fract_z
 _atom_site_occupancy
  Sc  Sc0  1  0.10936622  0.09586757  0.32098379  1
  Sc  Sc1  1  0.22197411  0.21426384  0.05515032  1
  Sc  Sc2  1  0.10940469  0.09489859  0.79147133  1
  Sc  Sc3  1  0.77402065  0.43419180  0.29898228  1
  Sc  Sc4  1  0.55407707  0.53547973  0.56827670  1
  Sc  Sc5  1  0.22075338  0.86639119  0.05976538  1
  Sc  Sc6  1  0.88810466  0.87367928  0.55988018  1
  Sc  Sc7  1  0.56047476  0.87038595  0.05874295  1
  Al  Al8  1  0.76935185  0.10073081  0.80377191  1
  Al  Al9  1  0.88241997  0.20845624  0.55007085  1
  Al  Al10  1  0.45013222  0.09920717  0.30635228  1
  Al  Al11  1  0.55770610  0.20807067  0.05089359  1
  Al  Al12  1  0.22745914  0.21170423  0.54793023  1
  Al  Al13  1  0.77244798  0.09331673  0.29642988  1
  Al  Al14  1  0.88006353  0.20875218  0.04664429  1
  Al  Al15  1  0.44893455  0.09512424  0.79295974  1
  Al  Al16  1  0.55272758  0.20740215  0.54961716  1
  Al  Al17  1  0.11298510  0.43761968  0.30312824  1
  Al  Al18  1  0.21937123  0.53970695  0.05120394  1
  Al  Al19  1  0.78099425  0.42761506  0.80396822  1
  Al  Al20  1  0.89416770  0.53682477  0.55323714  1
  Al  Al21  1  0.44157047  0.42793651  0.29865548  1
  Al  Al22  1  0.55633298  0.53340283  0.04143160  1
  Al  Al23  1  0.11263803  0.43248364  0.79586297  1
  Al  Al24  1  0.22478089  0.53394844  0.54892003  1
  Al  Al25  1  0.89184668  0.54071928  0.04665112  1
  Al  Al26  1  0.43918271  0.42273740  0.80308633  1
  Al  Al27  1  0.10919184  0.75383343  0.29973260  1
  Al  Al28  1  0.77535416  0.75859032  0.79876393  1
  Al  Al29  1  0.44683961  0.75202721  0.30341947  1
  Al  Al30  1  0.11783173  0.75267102  0.79967867  1
  Al  Al31  1  0.22760459  0.86453786  0.54454549  1
  Al  Al32  1  0.78426043  0.76090950  0.30048186  1
  Al  Al33  1  0.88963834  0.86989824  0.04875473  1
  Al  Al34  1  0.44383579  0.76434290  0.79589239  1
  Al  Al35  1  0.55330272  0.87352411  0.54819914  1
  N  N36  1  0.23319197  0.22067580  0.35895988  1
  N  N37  1  0.09058785  0.10726380  0.10804791  1
  N  N38  1  0.87173999  0.21223931  0.85967500  1
  N  N39  1  0.76469656  0.11559141  0.61644151  1
  N  N40  1  0.55710371  0.20780131  0.36003879  1
  N  N41  1  0.45581734  0.10501194  0.12099821  1
  N  N42  1  0.23136108  0.21404721  0.84405205  1
  N  N43  1  0.11232666  0.09315446  0.57647762  1
  N  N44  1  0.86867428  0.20252976  0.36536681  1
  N  N45  1  0.77705406  0.09364281  0.10482148  1
  N  N46  1  0.55338111  0.20411702  0.86153403  1
  N  N47  1  0.44881417  0.09266025  0.60246907  1
  N  N48  1  0.22484547  0.53866569  0.35940201  1
  N  N49  1  0.10103349  0.44761405  0.11500164  1
  N  N50  1  0.89226223  0.53881884  0.85698529  1
  N  N51  1  0.80147937  0.41715484  0.61351596  1
  N  N52  1  0.53997084  0.54096234  0.36097965  1
  N  N53  1  0.44412466  0.42817012  0.10462731  1
  N  N54  1  0.22098299  0.53785961  0.86162304  1
  N  N55  1  0.11162489  0.43094795  0.60737382  1
  N  N56  1  0.89910945  0.54847409  0.36547306  1
  N  N57  1  0.77618259  0.43039069  0.08853687  1
  N  N58  1  0.55337249  0.53907823  0.84488996  1
  N  N59  1  0.43178413  0.41453920  0.61643098  1
  N  N60  1  0.23030696  0.84948254  0.35415339  1
  N  N61  1  0.10065000  0.75095313  0.11174422  1
  N  N62  1  0.88904494  0.87143504  0.85090808  1
  N  N63  1  0.76750097  0.75153096  0.61138419  1
  N  N64  1  0.55660875  0.87031881  0.35385026  1
  N  N65  1  0.45817126  0.73691187  0.11676680  1
  N  N66  1  0.22990277  0.85600453  0.85158766  1
  N  N67  1  0.13209528  0.74819906  0.61083412  1
  N  N68  1  0.88751860  0.87482570  0.35028492  1
  N  N69  1  0.79632665  0.75146769  0.11112865  1
  N  N70  1  0.55392505  0.87421707  0.84817522  1
  N  N71  1  0.43487545  0.78155867  0.60859123  1
