# generated using pymatgen
data_Sc2Al7N9
_symmetry_space_group_name_H-M   'P 1'
_cell_length_a   9.75719867
_cell_length_b   9.75962303
_cell_length_c   10.09520130
_cell_angle_alpha   90.03866561
_cell_angle_beta   89.94547321
_cell_angle_gamma   59.81609765
_symmetry_Int_Tables_number   1
_chemical_formula_structural   Sc2Al7N9
_chemical_formula_sum   'Sc8 Al28 N36'
_cell_volume   830.98930737
_cell_formula_units_Z   4
loop_
 _symmetry_equiv_pos_site_id
 _symmetry_equiv_pos_as_xyz
  1  'x, y, z'
loop_
 _atom_site_type_symbol
 _atom_site_label
 _atom_site_symmetry_multiplicity
 _atom_site_fract_x
 _atom_site_fract_y
 _atom_site_fract_z
 _atom_site_occupancy
  Sc  Sc0  1  0.11014671  0.09263115  0.39330491  1
  Sc  Sc1  1  0.22149897  0.21455899  0.12753602  1
  Sc  Sc2  1  0.10850957  0.09760676  0.85967452  1
  Sc  Sc3  1  0.78072254  0.42932014  0.36405534  1
  Sc  Sc4  1  0.55643812  0.53440969  0.62334720  1
  Sc  Sc5  1  0.21971592  0.86750680  0.12215911  1
  Sc  Sc6  1  0.88835248  0.87322998  0.62020268  1
  Sc  Sc7  1  0.56049159  0.87094887  0.12452695  1
  Al  Al8  1  0.77157178  0.09581549  0.88468105  1
  Al  Al9  1  0.87963263  0.21215033  0.63881502  1
  Al  Al10  1  0.44828923  0.09531553  0.38941332  1
  Al  Al11  1  0.55776104  0.20787762  0.13181446  1
  Al  Al12  1  0.22734759  0.21195582  0.63478670  1
  Al  Al13  1  0.77048576  0.09746905  0.37896133  1
  Al  Al14  1  0.88278276  0.20348716  0.12714060  1
  Al  Al15  1  0.45041292  0.09931337  0.87652447  1
  Al  Al16  1  0.55238380  0.20774825  0.63247716  1
  Al  Al17  1  0.11369991  0.43526009  0.38690529  1
  Al  Al18  1  0.21966466  0.53953299  0.13147628  1
  Al  Al19  1  0.77302006  0.43124620  0.88965956  1
  Al  Al20  1  0.89138479  0.53432863  0.63515696  1
  Al  Al21  1  0.43694164  0.42485778  0.37950144  1
  Al  Al22  1  0.55157463  0.53528062  0.13343404  1
  Al  Al23  1  0.11167201  0.43531972  0.87898066  1
  Al  Al24  1  0.22432820  0.53455349  0.63369051  1
  Al  Al25  1  0.89495061  0.54429887  0.12822980  1
  Al  Al26  1  0.44457013  0.42648948  0.88445360  1
  Al  Al27  1  0.11791306  0.75285519  0.38219968  1
  Al  Al28  1  0.78188928  0.75951375  0.88064768  1
  Al  Al29  1  0.44053640  0.76442681  0.38627840  1
  Al  Al30  1  0.10962872  0.75334439  0.88309865  1
  Al  Al31  1  0.22781633  0.86322618  0.63937654  1
  Al  Al32  1  0.77722823  0.76005762  0.38416526  1
  Al  Al33  1  0.88888999  0.87044176  0.13399130  1
  Al  Al34  1  0.45110604  0.75070406  0.88055413  1
  Al  Al35  1  0.55290092  0.87327047  0.63402652  1
  N  N36  1  0.22983958  0.21537644  0.34043049  1
  N  N37  1  0.09365947  0.10634859  0.07114264  1
  N  N38  1  0.86120600  0.21933846  0.82669869  1
  N  N39  1  0.76559578  0.11694636  0.56848741  1
  N  N40  1  0.55351923  0.20434629  0.32241694  1
  N  N41  1  0.45550596  0.10529179  0.06287657  1
  N  N42  1  0.23423985  0.21981893  0.82385425  1
  N  N43  1  0.11026895  0.09319281  0.61087870  1
  N  N44  1  0.88245406  0.19146547  0.31369471  1
  N  N45  1  0.77597192  0.09212989  0.07531641  1
  N  N46  1  0.55708206  0.20791039  0.82209382  1
  N  N47  1  0.44871287  0.09267213  0.58024956  1
  N  N48  1  0.22177030  0.53806902  0.32167036  1
  N  N49  1  0.10414978  0.44671572  0.06572820  1
  N  N50  1  0.88821036  0.53722244  0.82687933  1
  N  N51  1  0.79992931  0.41711007  0.57339283  1
  N  N52  1  0.53454467  0.54703830  0.32841597  1
  N  N53  1  0.44316833  0.42698844  0.07644691  1
  N  N54  1  0.22473275  0.53823802  0.82341379  1
  N  N55  1  0.10919754  0.43244011  0.57809975  1
  N  N56  1  0.90313941  0.55036148  0.31710597  1
  N  N57  1  0.77715744  0.43013840  0.08648737  1
  N  N58  1  0.55788221  0.53366388  0.83331681  1
  N  N59  1  0.43270844  0.41622158  0.56822478  1
  N  N60  1  0.22782569  0.85817387  0.33152415  1
  N  N61  1  0.10008073  0.75107865  0.07201309  1
  N  N62  1  0.88843677  0.87398421  0.83022131  1
  N  N63  1  0.76843274  0.74872768  0.57393152  1
  N  N64  1  0.55425102  0.87312352  0.33634624  1
  N  N65  1  0.45668617  0.74035682  0.06661235  1
  N  N66  1  0.23334324  0.84680377  0.82986884  1
  N  N67  1  0.13235853  0.74805719  0.57192413  1
  N  N68  1  0.88803997  0.87201573  0.33396020  1
  N  N69  1  0.79506108  0.75476744  0.06889098  1
  N  N70  1  0.55618390  0.87151260  0.82848008  1
  N  N71  1  0.43566083  0.77898542  0.57548251  1
