# generated using pymatgen
data_Sc2Al7N9
_symmetry_space_group_name_H-M   'P 1'
_cell_length_a   10.09254838
_cell_length_b   10.10013441
_cell_length_c   9.15144852
_cell_angle_alpha   90.02338191
_cell_angle_beta   90.01333071
_cell_angle_gamma   59.71231431
_symmetry_Int_Tables_number   1
_chemical_formula_structural   Sc2Al7N9
_chemical_formula_sum   'Sc8 Al28 N36'
_cell_volume   805.53077048
_cell_formula_units_Z   4
loop_
 _symmetry_equiv_pos_site_id
 _symmetry_equiv_pos_as_xyz
  1  'x, y, z'
loop_
 _atom_site_type_symbol
 _atom_site_label
 _atom_site_symmetry_multiplicity
 _atom_site_fract_x
 _atom_site_fract_y
 _atom_site_fract_z
 _atom_site_occupancy
  Sc  Sc0  1  0.11012549  0.09375682  0.36282414  1
  Sc  Sc1  1  0.22501232  0.21639282  0.11066046  1
  Sc  Sc2  1  0.10814075  0.09791560  0.85344074  1
  Sc  Sc3  1  0.78146687  0.43067009  0.35158310  1
  Sc  Sc4  1  0.55394496  0.53379764  0.60790432  1
  Sc  Sc5  1  0.22272221  0.86192245  0.10656882  1
  Sc  Sc6  1  0.88811792  0.87411765  0.60692427  1
  Sc  Sc7  1  0.56002342  0.87109024  0.10795396  1
  Al  Al8  1  0.77132904  0.09615161  0.87478206  1
  Al  Al9  1  0.88063504  0.21122881  0.62585677  1
  Al  Al10  1  0.45008028  0.09557222  0.38091281  1
  Al  Al11  1  0.55869908  0.20701530  0.12359208  1
  Al  Al12  1  0.22603753  0.21131839  0.61532537  1
  Al  Al13  1  0.76966879  0.09764246  0.37001802  1
  Al  Al14  1  0.88101781  0.20414411  0.11584291  1
  Al  Al15  1  0.45050935  0.09900628  0.86289829  1
  Al  Al16  1  0.55286356  0.20861862  0.62450891  1
  Al  Al17  1  0.11300274  0.43736962  0.38114885  1
  Al  Al18  1  0.21901814  0.53917068  0.12176977  1
  Al  Al19  1  0.77352772  0.43086533  0.87589566  1
  Al  Al20  1  0.88967178  0.53590854  0.62891322  1
  Al  Al21  1  0.43685862  0.42462203  0.36858764  1
  Al  Al22  1  0.55323184  0.53333953  0.11893296  1
  Al  Al23  1  0.11173204  0.43514220  0.86479222  1
  Al  Al24  1  0.22513067  0.53522656  0.62693351  1
  Al  Al25  1  0.89598848  0.54435843  0.11549196  1
  Al  Al26  1  0.44428253  0.42535977  0.87682904  1
  Al  Al27  1  0.11716583  0.75179452  0.37200139  1
  Al  Al28  1  0.78144412  0.75983016  0.86861361  1
  Al  Al29  1  0.44210897  0.76272798  0.37545656  1
  Al  Al30  1  0.10932846  0.75366835  0.87152613  1
  Al  Al31  1  0.22497208  0.86635722  0.62131202  1
  Al  Al32  1  0.77849198  0.75903738  0.37428245  1
  Al  Al33  1  0.88844033  0.87055211  0.12208537  1
  Al  Al34  1  0.45012593  0.75145849  0.86666014  1
  Al  Al35  1  0.55365997  0.87261108  0.62216341  1
  N  N36  1  0.23178520  0.21847758  0.35481424  1
  N  N37  1  0.09708183  0.10413149  0.09540231  1
  N  N38  1  0.86582392  0.21616685  0.83977596  1
  N  N39  1  0.76523998  0.11563856  0.58115919  1
  N  N40  1  0.55404283  0.20425344  0.33288827  1
  N  N41  1  0.45744698  0.10443333  0.07365329  1
  N  N42  1  0.23189437  0.21710456  0.83414841  1
  N  N43  1  0.10824626  0.09418575  0.60413818  1
  N  N44  1  0.87648348  0.19657371  0.32707044  1
  N  N45  1  0.77610578  0.09171267  0.08517188  1
  N  N46  1  0.55667604  0.20889864  0.83284136  1
  N  N47  1  0.45047634  0.09234358  0.59313755  1
  N  N48  1  0.22159276  0.53786602  0.33123835  1
  N  N49  1  0.10463011  0.44706965  0.07335789  1
  N  N50  1  0.88742432  0.53804164  0.83942309  1
  N  N51  1  0.79644556  0.42030277  0.58821220  1
  N  N52  1  0.53748758  0.54469811  0.34184457  1
  N  N53  1  0.44339505  0.42601733  0.08823401  1
  N  N54  1  0.22604929  0.53792205  0.83506447  1
  N  N55  1  0.10766463  0.43521894  0.59291647  1
  N  N56  1  0.90355206  0.54905699  0.32754112  1
  N  N57  1  0.77776751  0.42965977  0.09250706  1
  N  N58  1  0.55637132  0.53255234  0.84356812  1
  N  N59  1  0.43205006  0.41606138  0.57868785  1
  N  N60  1  0.22882784  0.85491244  0.34387654  1
  N  N61  1  0.09997640  0.75065265  0.08364351  1
  N  N62  1  0.88788529  0.87444169  0.84015040  1
  N  N63  1  0.76972677  0.74981918  0.58734100  1
  N  N64  1  0.55462399  0.87315637  0.34669109  1
  N  N65  1  0.45740290  0.73984615  0.07897767  1
  N  N66  1  0.22965453  0.85189098  0.84087153  1
  N  N67  1  0.13002418  0.74793211  0.58434818  1
  N  N68  1  0.88726502  0.87246925  0.34317623  1
  N  N69  1  0.79423810  0.75545755  0.07981469  1
  N  N70  1  0.55627272  0.87127882  0.83882587  1
  N  N71  1  0.43707485  0.77704181  0.59004188  1
