# generated using pymatgen
data_Sc2Al7N9
_symmetry_space_group_name_H-M   'P 1'
_cell_length_a   9.83775521
_cell_length_b   9.84165085
_cell_length_c   9.88445205
_cell_angle_alpha   90.03788040
_cell_angle_beta   89.98568087
_cell_angle_gamma   59.75979062
_symmetry_Int_Tables_number   1
_chemical_formula_structural   Sc2Al7N9
_chemical_formula_sum   'Sc8 Al28 N36'
_cell_volume   826.78138809
_cell_formula_units_Z   4
loop_
 _symmetry_equiv_pos_site_id
 _symmetry_equiv_pos_as_xyz
  1  'x, y, z'
loop_
 _atom_site_type_symbol
 _atom_site_label
 _atom_site_symmetry_multiplicity
 _atom_site_fract_x
 _atom_site_fract_y
 _atom_site_fract_z
 _atom_site_occupancy
  Sc  Sc0  1  0.11130576  0.09193103  0.38452818  1
  Sc  Sc1  1  0.22288077  0.21535622  0.12336718  1
  Sc  Sc2  1  0.10755838  0.09886375  0.85890362  1
  Sc  Sc3  1  0.78229825  0.42907242  0.35927500  1
  Sc  Sc4  1  0.55602817  0.53423762  0.61581069  1
  Sc  Sc5  1  0.22106482  0.86530327  0.11533243  1
  Sc  Sc6  1  0.88850407  0.87307261  0.61397202  1
  Sc  Sc7  1  0.56044009  0.87062084  0.11819608  1
  Al  Al8  1  0.77188344  0.09524739  0.88215732  1
  Al  Al9  1  0.87961635  0.21263653  0.63604320  1
  Al  Al10  1  0.44874198  0.09498138  0.38728742  1
  Al  Al11  1  0.55855033  0.20754536  0.13042576  1
  Al  Al12  1  0.22680049  0.21183507  0.63145795  1
  Al  Al13  1  0.76947690  0.09844748  0.37862751  1
  Al  Al14  1  0.88234568  0.20270621  0.12545839  1
  Al  Al15  1  0.45042182  0.10003806  0.87455803  1
  Al  Al16  1  0.55212135  0.20784357  0.63159467  1
  Al  Al17  1  0.11376050  0.43591621  0.38597730  1
  Al  Al18  1  0.21943340  0.53966599  0.12983584  1
  Al  Al19  1  0.77197952  0.43168720  0.88817993  1
  Al  Al20  1  0.89040771  0.53450400  0.63377123  1
  Al  Al21  1  0.43636141  0.42394203  0.37836983  1
  Al  Al22  1  0.55135037  0.53452499  0.13407699  1
  Al  Al23  1  0.11129160  0.43583576  0.87650987  1
  Al  Al24  1  0.22442659  0.53467259  0.63288092  1
  Al  Al25  1  0.89567123  0.54513226  0.12649929  1
  Al  Al26  1  0.44505506  0.42667822  0.88264454  1
  Al  Al27  1  0.11955971  0.75221567  0.38041805  1
  Al  Al28  1  0.78286369  0.75955896  0.87817957  1
  Al  Al29  1  0.44018271  0.76553662  0.38412421  1
  Al  Al30  1  0.10810208  0.75352665  0.88091576  1
  Al  Al31  1  0.22708700  0.86437980  0.63799338  1
  Al  Al32  1  0.77604561  0.75996103  0.38259694  1
  Al  Al33  1  0.88875466  0.87050838  0.13440500  1
  Al  Al34  1  0.45190943  0.74875802  0.87777128  1
  Al  Al35  1  0.55263339  0.87339400  0.63380085  1
  N  N36  1  0.23060914  0.21677025  0.34117609  1
  N  N37  1  0.09437710  0.10632459  0.07661777  1
  N  N38  1  0.86176488  0.21927486  0.82878421  1
  N  N39  1  0.76466098  0.11770458  0.57113785  1
  N  N40  1  0.55363925  0.20417313  0.32394546  1
  N  N41  1  0.45661497  0.10562453  0.06440260  1
  N  N42  1  0.23355650  0.21950276  0.82599375  1
  N  N43  1  0.10984354  0.09330447  0.60820249  1
  N  N44  1  0.88078683  0.19167034  0.31581282  1
  N  N45  1  0.77652420  0.09114170  0.07635426  1
  N  N46  1  0.55697887  0.20827169  0.82392962  1
  N  N47  1  0.44904905  0.09228194  0.58209161  1
  N  N48  1  0.22188455  0.53801568  0.32299061  1
  N  N49  1  0.10404315  0.44754677  0.06664649  1
  N  N50  1  0.88755831  0.53720617  0.82876305  1
  N  N51  1  0.80011976  0.41743317  0.57333131  1
  N  N52  1  0.53513340  0.54622376  0.33404124  1
  N  N53  1  0.44360700  0.42692457  0.07826361  1
  N  N54  1  0.22487217  0.53834130  0.82540509  1
  N  N55  1  0.10858686  0.43335335  0.58047088  1
  N  N56  1  0.90371835  0.55097295  0.31873659  1
  N  N57  1  0.77686033  0.43002760  0.08944930  1
  N  N58  1  0.55794826  0.53286693  0.83118063  1
  N  N59  1  0.43178808  0.41540941  0.57010310  1
  N  N60  1  0.22887330  0.85628138  0.32979281  1
  N  N61  1  0.09879114  0.75099740  0.07374476  1
  N  N62  1  0.88820112  0.87402630  0.82866479  1
  N  N63  1  0.76727274  0.74896883  0.57611719  1
  N  N64  1  0.55390899  0.87328807  0.33512467  1
  N  N65  1  0.45858536  0.73749885  0.06789619  1
  N  N66  1  0.23204631  0.84844004  0.83411829  1
  N  N67  1  0.13355878  0.74774696  0.57383413  1
  N  N68  1  0.88768881  0.87221397  0.33817557  1
  N  N69  1  0.79585631  0.75522360  0.07035832  1
  N  N70  1  0.55611505  0.87145487  0.83200352  1
  N  N71  1  0.43494256  0.78040056  0.57772055  1
