# generated using pymatgen
data_Sc2Al7N9
_symmetry_space_group_name_H-M   'P 1'
_cell_length_a   9.74245805
_cell_length_b   9.74112511
_cell_length_c   10.13746788
_cell_angle_alpha   89.90428815
_cell_angle_beta   89.93065267
_cell_angle_gamma   59.82761861
_symmetry_Int_Tables_number   1
_chemical_formula_structural   Sc2Al7N9
_chemical_formula_sum   'Sc8 Al28 N36'
_cell_volume   831.72572975
_cell_formula_units_Z   4
loop_
 _symmetry_equiv_pos_site_id
 _symmetry_equiv_pos_as_xyz
  1  'x, y, z'
loop_
 _atom_site_type_symbol
 _atom_site_label
 _atom_site_symmetry_multiplicity
 _atom_site_fract_x
 _atom_site_fract_y
 _atom_site_fract_z
 _atom_site_occupancy
  Sc  Sc0  1  0.10932245  0.09588363  0.34117011  1
  Sc  Sc1  1  0.22200256  0.21423144  0.07540128  1
  Sc  Sc2  1  0.10941641  0.09483771  0.81181796  1
  Sc  Sc3  1  0.77392467  0.43419624  0.31931871  1
  Sc  Sc4  1  0.55395967  0.53549162  0.58864774  1
  Sc  Sc5  1  0.22076452  0.86629609  0.08010725  1
  Sc  Sc6  1  0.88806565  0.87364622  0.58024001  1
  Sc  Sc7  1  0.56045228  0.87033542  0.07908223  1
  Al  Al8  1  0.76931584  0.10073781  0.82397238  1
  Al  Al9  1  0.88238745  0.20842518  0.57028312  1
  Al  Al10  1  0.45011107  0.09920081  0.32656897  1
  Al  Al11  1  0.55772028  0.20802396  0.07111069  1
  Al  Al12  1  0.22741956  0.21168706  0.56817117  1
  Al  Al13  1  0.77244023  0.09325810  0.31665335  1
  Al  Al14  1  0.88004673  0.20872579  0.06687519  1
  Al  Al15  1  0.44893033  0.09508177  0.81318559  1
  Al  Al16  1  0.55269250  0.20738001  0.56981165  1
  Al  Al17  1  0.11294910  0.43760382  0.32332893  1
  Al  Al18  1  0.21934286  0.53967539  0.07141998  1
  Al  Al19  1  0.78099702  0.42757581  0.82413406  1
  Al  Al20  1  0.89411824  0.53682012  0.57343127  1
  Al  Al21  1  0.44153820  0.42791891  0.31886831  1
  Al  Al22  1  0.55634732  0.53332970  0.06161193  1
  Al  Al23  1  0.11260571  0.43246035  0.81607946  1
  Al  Al24  1  0.22474239  0.53391765  0.56911461  1
  Al  Al25  1  0.89182577  0.54066968  0.06688599  1
  Al  Al26  1  0.43913307  0.42267354  0.82331053  1
  Al  Al27  1  0.10911636  0.75381443  0.31996922  1
  Al  Al28  1  0.77529411  0.75854794  0.81899640  1
  Al  Al29  1  0.44681260  0.75195964  0.32366242  1
  Al  Al30  1  0.11786075  0.75261635  0.81989094  1
  Al  Al31  1  0.22754868  0.86455121  0.56474272  1
  Al  Al32  1  0.78426756  0.76087887  0.32069665  1
  Al  Al33  1  0.88962338  0.86985617  0.06889841  1
  Al  Al34  1  0.44379469  0.76435632  0.81614824  1
  Al  Al35  1  0.55325867  0.87350351  0.56837932  1
  N  N36  1  0.23315884  0.22065417  0.37909899  1
  N  N37  1  0.09061217  0.10722329  0.12811733  1
  N  N38  1  0.87169409  0.21223685  0.87981748  1
  N  N39  1  0.76464494  0.11560058  0.63658367  1
  N  N40  1  0.55708111  0.20778249  0.38018341  1
  N  N41  1  0.45583906  0.10498732  0.14115118  1
  N  N42  1  0.23135879  0.21403310  0.86421439  1
  N  N43  1  0.11228085  0.09314673  0.59670616  1
  N  N44  1  0.86867198  0.20247282  0.38549036  1
  N  N45  1  0.77707437  0.09357697  0.12496996  1
  N  N46  1  0.55337118  0.20407490  0.88169638  1
  N  N47  1  0.44880041  0.09262605  0.62261651  1
  N  N48  1  0.22480718  0.53863808  0.37954350  1
  N  N49  1  0.10102038  0.44758595  0.13514100  1
  N  N50  1  0.89222655  0.53877338  0.87714682  1
  N  N51  1  0.80141919  0.41715834  0.63359329  1
  N  N52  1  0.53986855  0.54094816  0.38125465  1
  N  N53  1  0.44412277  0.42813330  0.12477386  1
  N  N54  1  0.22094995  0.53782542  0.88178521  1
  N  N55  1  0.11156845  0.43094972  0.62752645  1
  N  N56  1  0.89908481  0.54845315  0.38560312  1
  N  N57  1  0.77616750  0.43034414  0.10876936  1
  N  N58  1  0.55336034  0.53903222  0.86497616  1
  N  N59  1  0.43171626  0.41448430  0.63659872  1
  N  N60  1  0.23023636  0.84950267  0.37423836  1
  N  N61  1  0.10059263  0.75091283  0.13190296  1
  N  N62  1  0.88902670  0.87140045  0.87098071  1
  N  N63  1  0.76742827  0.75150252  0.63154501  1
  N  N64  1  0.55657901  0.87028329  0.37395775  1
  N  N65  1  0.45820722  0.73679397  0.13693817  1
  N  N66  1  0.22989900  0.85592631  0.87183330  1
  N  N67  1  0.13211249  0.74816237  0.63097442  1
  N  N68  1  0.88747440  0.87479657  0.37054183  1
  N  N69  1  0.79633928  0.75143858  0.13126228  1
  N  N70  1  0.55388964  0.87419593  0.86841705  1
  N  N71  1  0.43480272  0.78160646  0.62876030  1
