# generated using pymatgen
data_Sc2Al7N9
_symmetry_space_group_name_H-M   'P 1'
_cell_length_a   9.91165473
_cell_length_b   9.91503229
_cell_length_c   9.67981514
_cell_angle_alpha   89.92849814
_cell_angle_beta   89.94369255
_cell_angle_gamma   59.75952904
_symmetry_Int_Tables_number   1
_chemical_formula_structural   Sc2Al7N9
_chemical_formula_sum   'Sc8 Al28 N36'
_cell_volume   821.82652019
_cell_formula_units_Z   4
loop_
 _symmetry_equiv_pos_site_id
 _symmetry_equiv_pos_as_xyz
  1  'x, y, z'
loop_
 _atom_site_type_symbol
 _atom_site_label
 _atom_site_symmetry_multiplicity
 _atom_site_fract_x
 _atom_site_fract_y
 _atom_site_fract_z
 _atom_site_occupancy
  Sc  Sc0  1  0.10853076  0.09632886  0.34642202  1
  Sc  Sc1  1  0.22478194  0.21493465  0.08821066  1
  Sc  Sc2  1  0.11042276  0.09461292  0.83334729  1
  Sc  Sc3  1  0.77377436  0.43384593  0.33693964  1
  Sc  Sc4  1  0.54963925  0.53677492  0.60162388  1
  Sc  Sc5  1  0.22233800  0.86214182  0.09378667  1
  Sc  Sc6  1  0.88707998  0.87395484  0.59562969  1
  Sc  Sc7  1  0.55989736  0.87059673  0.09413873  1
  Al  Al8  1  0.76772915  0.10307186  0.83049345  1
  Al  Al9  1  0.88325824  0.20652488  0.57860332  1
  Al  Al10  1  0.45048177  0.10050509  0.33528564  1
  Al  Al11  1  0.55876629  0.20731402  0.07725980  1
  Al  Al12  1  0.22603866  0.21168278  0.57755411  1
  Al  Al13  1  0.77334931  0.09145669  0.32281028  1
  Al  Al14  1  0.87828663  0.21066828  0.07429032  1
  Al  Al15  1  0.44954645  0.09453843  0.81963505  1
  Al  Al16  1  0.55261140  0.20835018  0.57526142  1
  Al  Al17  1  0.11238937  0.43890032  0.32912015  1
  Al  Al18  1  0.21820269  0.54057170  0.07747635  1
  Al  Al19  1  0.78167472  0.42825695  0.82714405  1
  Al  Al20  1  0.89386939  0.53893723  0.57919114  1
  Al  Al21  1  0.44204603  0.42799544  0.32299617  1
  Al  Al22  1  0.55888035  0.53160211  0.06705908  1
  Al  Al23  1  0.11282329  0.43256791  0.82311541  1
  Al  Al24  1  0.22529392  0.53310072  0.57434259  1
  Al  Al25  1  0.89151742  0.54002180  0.07408268  1
  Al  Al26  1  0.43776508  0.42131047  0.83173550  1
  Al  Al27  1  0.10703937  0.75385021  0.32867082  1
  Al  Al28  1  0.77296626  0.75837147  0.82764320  1
  Al  Al29  1  0.44776655  0.74918409  0.33064274  1
  Al  Al30  1  0.12040741  0.75134972  0.82536119  1
  Al  Al31  1  0.22650547  0.86642853  0.57245629  1
  Al  Al32  1  0.78690426  0.76067959  0.32610938  1
  Al  Al33  1  0.89011739  0.86963632  0.07137227  1
  Al  Al34  1  0.44342991  0.76638096  0.82457747  1
  Al  Al35  1  0.55355019  0.87286734  0.57248904  1
  N  N36  1  0.23127316  0.22051499  0.37599302  1
  N  N37  1  0.09258696  0.10585869  0.11731226  1
  N  N38  1  0.86827167  0.21574745  0.87756582  1
  N  N39  1  0.76308337  0.11671064  0.63566501  1
  N  N40  1  0.55757830  0.20903829  0.37885086  1
  N  N41  1  0.45808937  0.10543124  0.14157906  1
  N  N42  1  0.23333680  0.21541150  0.86529006  1
  N  N43  1  0.11176834  0.09329581  0.60379000  1
  N  N44  1  0.87192644  0.19847130  0.38334159  1
  N  N45  1  0.77827828  0.09231881  0.12302454  1
  N  N46  1  0.55340041  0.20338607  0.88124385  1
  N  N47  1  0.44937524  0.09212132  0.61973140  1
  N  N48  1  0.22583489  0.53767026  0.37767942  1
  N  N49  1  0.10070617  0.44879039  0.13314264  1
  N  N50  1  0.89173720  0.53777859  0.87613773  1
  N  N51  1  0.79902359  0.41939593  0.62536497  1
  N  N52  1  0.53782616  0.54034160  0.38372734  1
  N  N53  1  0.44480448  0.42800207  0.12172215  1
  N  N54  1  0.22013451  0.53839728  0.88130932  1
  N  N55  1  0.11092554  0.43183520  0.62678545  1
  N  N56  1  0.90008660  0.55006232  0.38360596  1
  N  N57  1  0.77661305  0.43013436  0.11449767  1
  N  N58  1  0.55452667  0.53877028  0.86178820  1
  N  N59  1  0.43041675  0.41360173  0.63730833  1
  N  N60  1  0.22911085  0.85146310  0.36940745  1
  N  N61  1  0.09849702  0.75067106  0.13165482  1
  N  N62  1  0.88947663  0.87153380  0.86588591  1
  N  N63  1  0.76559583  0.75192859  0.63171421  1
  N  N64  1  0.55764454  0.86920142  0.36967595  1
  N  N65  1  0.46002227  0.73403569  0.13500671  1
  N  N66  1  0.23107443  0.85312891  0.87418181  1
  N  N67  1  0.13334977  0.74732794  0.62808143  1
  N  N68  1  0.88659600  0.87498869  0.37493860  1
  N  N69  1  0.79745577  0.75202967  0.12746479  1
  N  N70  1  0.55271732  0.87546312  0.87239243  1
  N  N71  1  0.43448152  0.78290041  0.62724831  1
