
#======================================================================
# CRYSTAL DATA
#----------------------------------------------------------------------
data_VESTA_phase_1

_chemical_name_common                  'Al   Hf   Mg   N                      '
_cell_length_a                         9.829720
_cell_length_b                         9.820970
_cell_length_c                         9.452525
_cell_angle_alpha                      89.921494
_cell_angle_beta                       90.011299
_cell_angle_gamma                      60.092560
_cell_volume                           791.002188
_space_group_name_H-M_alt              'P 1'
_space_group_IT_number                 1

loop_
_space_group_symop_operation_xyz
   'x, y, z'

loop_
   _atom_site_label
   _atom_site_occupancy
   _atom_site_fract_x
   _atom_site_fract_y
   _atom_site_fract_z
   _atom_site_adp_type
   _atom_site_U_iso_or_equiv
   _atom_site_type_symbol
   Al1        1.0     0.117632     0.088197     0.378152    Uiso  ? Al
   Al2        1.0     0.217472     0.211044     0.127940    Uiso  ? Al
   Al3        1.0     0.895246     0.208793     0.622756    Uiso  ? Al
   Al4        1.0     0.439611     0.098251     0.384434    Uiso  ? Al
   Al5        1.0     0.550137     0.210532     0.133846    Uiso  ? Al
   Al6        1.0     0.116260     0.094161     0.879335    Uiso  ? Al
   Al7        1.0     0.217557     0.208034     0.626915    Uiso  ? Al
   Al8        1.0     0.777719     0.088579     0.384512    Uiso  ? Al
   Al9        1.0     0.896392     0.195705     0.126971    Uiso  ? Al
   Al10       1.0     0.435852     0.100949     0.866809    Uiso  ? Al
   Al11       1.0     0.545471     0.214078     0.618417    Uiso  ? Al
   Al12       1.0     0.114239     0.428684     0.382627    Uiso  ? Al
   Al13       1.0     0.222087     0.536361     0.125112    Uiso  ? Al
   Al14       1.0     0.781181     0.429631     0.886289    Uiso  ? Al
   Al15       1.0     0.893300     0.534166     0.632211    Uiso  ? Al
   Al16       1.0     0.439886     0.432556     0.377435    Uiso  ? Al
   Al17       1.0     0.115204     0.426825     0.875005    Uiso  ? Al
   Al18       1.0     0.902799     0.537068     0.119676    Uiso  ? Al
   Al19       1.0     0.435697     0.430324     0.881745    Uiso  ? Al
   Al20       1.0     0.555225     0.535048     0.631579    Uiso  ? Al
   Al21       1.0     0.113125     0.761650     0.377499    Uiso  ? Al
   Al22       1.0     0.218147     0.873405     0.127559    Uiso  ? Al
   Al23       1.0     0.784929     0.753747     0.866514    Uiso  ? Al
   Al24       1.0     0.899091     0.861984     0.621874    Uiso  ? Al
   Al25       1.0     0.436477     0.763005     0.390299    Uiso  ? Al
   Al26       1.0     0.116545     0.755178     0.880536    Uiso  ? Al
   Al27       1.0     0.215931     0.874088     0.629058    Uiso  ? Al
   Al28       1.0     0.782559     0.761766     0.386693    Uiso  ? Al
   Al29       1.0     0.894734     0.868417     0.132087    Uiso  ? Al
   Al30       1.0     0.438201     0.762911     0.862986    Uiso  ? Al
   Hf1        1.0     0.776027     0.094416     0.856876    Uiso  ? Hf
   Hf2        1.0     0.775014     0.431789     0.354558    Uiso  ? Hf
   Hf3        1.0     0.555304     0.872571     0.108774    Uiso  ? Hf
   Mg1        1.0     0.545483     0.541712     0.109259    Uiso  ? Mg
   Mg2        1.0     0.222620     0.540324     0.621643    Uiso  ? Mg
   Mg3        1.0     0.556358     0.872621     0.621616    Uiso  ? Mg
   N1         1.0     0.220280     0.206396     0.329339    Uiso  ? N
   N2         1.0     0.111795     0.093976     0.081138    Uiso  ? N
   N3         1.0     0.898258     0.215016     0.828719    Uiso  ? N
   N4         1.0     0.778352     0.093991     0.593916    Uiso  ? N
   N5         1.0     0.557725     0.203069     0.336037    Uiso  ? N
   N6         1.0     0.433583     0.112718     0.076547    Uiso  ? N
   N7         1.0     0.219267     0.205859     0.829712    Uiso  ? N
   N8         1.0     0.112385     0.093839     0.578939    Uiso  ? N
   N9         1.0     0.897161     0.185072     0.331594    Uiso  ? N
   N10        1.0     0.776159     0.092745     0.082098    Uiso  ? N
   N11        1.0     0.537035     0.215879     0.823546    Uiso  ? N
   N12        1.0     0.433334     0.109779     0.582601    Uiso  ? N
   N13        1.0     0.220689     0.539564     0.331299    Uiso  ? N
   N14        1.0     0.114790     0.424868     0.077669    Uiso  ? N
   N15        1.0     0.890924     0.534560     0.835007    Uiso  ? N
   N16        1.0     0.777872     0.429350     0.580918    Uiso  ? N
   N17        1.0     0.537320     0.552465     0.332509    Uiso  ? N
   N18        1.0     0.436717     0.418388     0.081572    Uiso  ? N
   N19        1.0     0.220907     0.540643     0.841713    Uiso  ? N
   N20        1.0     0.102790     0.420168     0.580418    Uiso  ? N
   N21        1.0     0.898470     0.550754     0.323237    Uiso  ? N
   N22        1.0     0.795145     0.418445     0.094044    Uiso  ? N
   N23        1.0     0.559859     0.533175     0.838899    Uiso  ? N
   N24        1.0     0.458413     0.423225     0.575805    Uiso  ? N
   N25        1.0     0.223700     0.872877     0.328990    Uiso  ? N
   N26        1.0     0.109864     0.762695     0.084532    Uiso  ? N
   N27        1.0     0.901120     0.854656     0.825758    Uiso  ? N
   N28        1.0     0.794322     0.749969     0.585573    Uiso  ? N
   N29        1.0     0.555887     0.870927     0.340621    Uiso  ? N
   N30        1.0     0.423701     0.772147     0.065929    Uiso  ? N
   N31        1.0     0.213994     0.876826     0.830181    Uiso  ? N
   N32        1.0     0.106051     0.775543     0.574116    Uiso  ? N
   N33        1.0     0.886963     0.873446     0.333476    Uiso  ? N
   N34        1.0     0.798785     0.752228     0.072140    Uiso  ? N
   N35        1.0     0.558549     0.874021     0.850347    Uiso  ? N
   N36        1.0     0.435196     0.754302     0.593002    Uiso  ? N
