
#======================================================================
# CRYSTAL DATA
#----------------------------------------------------------------------
data_VESTA_phase_1

_chemical_name_common                  'Al   Hf   Mg   N                      '
_cell_length_a                         9.606647
_cell_length_b                         9.587828
_cell_length_c                         10.099123
_cell_angle_alpha                      89.973358
_cell_angle_beta                       89.974648
_cell_angle_gamma                      60.061676
_cell_volume                           806.075719
_space_group_name_H-M_alt              'P 1'
_space_group_IT_number                 1

loop_
_space_group_symop_operation_xyz
   'x, y, z'

loop_
   _atom_site_label
   _atom_site_occupancy
   _atom_site_fract_x
   _atom_site_fract_y
   _atom_site_fract_z
   _atom_site_adp_type
   _atom_site_U_iso_or_equiv
   _atom_site_type_symbol
   Al1        1.0     0.117099     0.088576     0.321601    Uiso  ? Al
   Al2        1.0     0.216789     0.210392     0.071705    Uiso  ? Al
   Al3        1.0     0.895178     0.199244     0.572910    Uiso  ? Al
   Al4        1.0     0.440427     0.099752     0.325923    Uiso  ? Al
   Al5        1.0     0.545842     0.215063     0.076629    Uiso  ? Al
   Al6        1.0     0.117926     0.093465     0.820232    Uiso  ? Al
   Al7        1.0     0.219877     0.208608     0.573234    Uiso  ? Al
   Al8        1.0     0.777212     0.089452     0.319968    Uiso  ? Al
   Al9        1.0     0.894552     0.206590     0.073499    Uiso  ? Al
   Al10       1.0     0.436108     0.099281     0.815555    Uiso  ? Al
   Al11       1.0     0.550528     0.209562     0.568612    Uiso  ? Al
   Al12       1.0     0.117219     0.429014     0.319553    Uiso  ? Al
   Al13       1.0     0.223409     0.538044     0.073217    Uiso  ? Al
   Al14       1.0     0.777133     0.433915     0.814266    Uiso  ? Al
   Al15       1.0     0.897142     0.539619     0.577678    Uiso  ? Al
   Al16       1.0     0.435048     0.430551     0.320054    Uiso  ? Al
   Al17       1.0     0.112468     0.425949     0.820993    Uiso  ? Al
   Al18       1.0     0.898567     0.532317     0.068005    Uiso  ? Al
   Al19       1.0     0.440660     0.432328     0.818094    Uiso  ? Al
   Al20       1.0     0.547120     0.541009     0.579569    Uiso  ? Al
   Al21       1.0     0.113680     0.759157     0.321831    Uiso  ? Al
   Al22       1.0     0.216491     0.873349     0.070797    Uiso  ? Al
   Al23       1.0     0.782084     0.754115     0.816809    Uiso  ? Al
   Al24       1.0     0.893679     0.868147     0.569525    Uiso  ? Al
   Al25       1.0     0.433668     0.765306     0.325069    Uiso  ? Al
   Al26       1.0     0.115781     0.757349     0.819709    Uiso  ? Al
   Al27       1.0     0.219210     0.872835     0.573808    Uiso  ? Al
   Al28       1.0     0.785115     0.761953     0.325146    Uiso  ? Al
   Al29       1.0     0.898690     0.864645     0.076048    Uiso  ? Al
   Al30       1.0     0.442043     0.758913     0.815027    Uiso  ? Al
   Hf1        1.0     0.776016     0.094071     0.828567    Uiso  ? Hf
   Hf2        1.0     0.777308     0.429706     0.334870    Uiso  ? Hf
   Hf3        1.0     0.555631     0.871527     0.084920    Uiso  ? Hf
   Mg1        1.0     0.553513     0.534772     0.067214    Uiso  ? Mg
   Mg2        1.0     0.221183     0.539408     0.574972    Uiso  ? Mg
   Mg3        1.0     0.555785     0.871942     0.569968    Uiso  ? Mg
   N1         1.0     0.219224     0.207041     0.380185    Uiso  ? N
   N2         1.0     0.111685     0.093871     0.130832    Uiso  ? N
   N3         1.0     0.897451     0.214512     0.881356    Uiso  ? N
   N4         1.0     0.776393     0.093675     0.622823    Uiso  ? N
   N5         1.0     0.556996     0.205763     0.377421    Uiso  ? N
   N6         1.0     0.432041     0.112504     0.135302    Uiso  ? N
   N7         1.0     0.222351     0.204414     0.882833    Uiso  ? N
   N8         1.0     0.112157     0.094385     0.631015    Uiso  ? N
   N9         1.0     0.898210     0.186225     0.382180    Uiso  ? N
   N10        1.0     0.777145     0.094260     0.122400    Uiso  ? N
   N11        1.0     0.537718     0.213167     0.886735    Uiso  ? N
   N12        1.0     0.436605     0.109097     0.629402    Uiso  ? N
   N13        1.0     0.219821     0.541032     0.369920    Uiso  ? N
   N14        1.0     0.111815     0.427065     0.128091    Uiso  ? N
   N15        1.0     0.889026     0.537873     0.878953    Uiso  ? N
   N16        1.0     0.779510     0.426920     0.616991    Uiso  ? N
   N17        1.0     0.535990     0.547805     0.385018    Uiso  ? N
   N18        1.0     0.436492     0.423971     0.134007    Uiso  ? N
   N19        1.0     0.222257     0.539056     0.879982    Uiso  ? N
   N20        1.0     0.105754     0.418563     0.636804    Uiso  ? N
   N21        1.0     0.900927     0.546768     0.386423    Uiso  ? N
   N22        1.0     0.792853     0.422337     0.130902    Uiso  ? N
   N23        1.0     0.558737     0.537630     0.864254    Uiso  ? N
   N24        1.0     0.458329     0.417441     0.633478    Uiso  ? N
   N25        1.0     0.218334     0.874212     0.382539    Uiso  ? N
   N26        1.0     0.112498     0.761351     0.130553    Uiso  ? N
   N27        1.0     0.896946     0.855070     0.887294    Uiso  ? N
   N28        1.0     0.792356     0.755639     0.631646    Uiso  ? N
   N29        1.0     0.557921     0.870789     0.354001    Uiso  ? N
   N30        1.0     0.425774     0.766099     0.136902    Uiso  ? N
   N31        1.0     0.221298     0.873556     0.881269    Uiso  ? N
   N32        1.0     0.101618     0.778473     0.635123    Uiso  ? N
   N33        1.0     0.890736     0.873207     0.378019    Uiso  ? N
   N34        1.0     0.800043     0.747397     0.134871    Uiso  ? N
   N35        1.0     0.555948     0.872890     0.872918    Uiso  ? N
   N36        1.0     0.434048     0.758002     0.629571    Uiso  ? N
