
#======================================================================
# CRYSTAL DATA
#----------------------------------------------------------------------
data_VESTA_phase_1

_chemical_name_common                  'Al   Hf   Mg   N                      '
_cell_length_a                         9.836200
_cell_length_b                         9.819192
_cell_length_c                         9.446532
_cell_angle_alpha                      89.896179
_cell_angle_beta                       89.917686
_cell_angle_gamma                      60.107277
_cell_volume                           790.995099
_space_group_name_H-M_alt              'P 1'
_space_group_IT_number                 1

loop_
_space_group_symop_operation_xyz
   'x, y, z'

loop_
   _atom_site_label
   _atom_site_occupancy
   _atom_site_fract_x
   _atom_site_fract_y
   _atom_site_fract_z
   _atom_site_adp_type
   _atom_site_U_iso_or_equiv
   _atom_site_type_symbol
   Al1        1.0     0.115753     0.088610     0.328135    Uiso  ? Al
   Al2        1.0     0.218563     0.209618     0.081687    Uiso  ? Al
   Al3        1.0     0.895728     0.195970     0.584305    Uiso  ? Al
   Al4        1.0     0.439888     0.099491     0.344792    Uiso  ? Al
   Al5        1.0     0.541193     0.215282     0.089133    Uiso  ? Al
   Al6        1.0     0.118602     0.093504     0.828945    Uiso  ? Al
   Al7        1.0     0.216472     0.209722     0.577060    Uiso  ? Al
   Al8        1.0     0.778412     0.090620     0.323024    Uiso  ? Al
   Al9        1.0     0.896732     0.208926     0.080492    Uiso  ? Al
   Al10       1.0     0.435908     0.100295     0.817185    Uiso  ? Al
   Al11       1.0     0.554427     0.209972     0.573517    Uiso  ? Al
   Al12       1.0     0.116055     0.429625     0.327292    Uiso  ? Al
   Al13       1.0     0.221631     0.539340     0.081928    Uiso  ? Al
   Al14       1.0     0.777616     0.433290     0.823153    Uiso  ? Al
   Al15       1.0     0.899635     0.538199     0.586493    Uiso  ? Al
   Al16       1.0     0.435324     0.432425     0.327148    Uiso  ? Al
   Al17       1.0     0.114032     0.424704     0.829119    Uiso  ? Al
   Al18       1.0     0.897345     0.533837     0.074791    Uiso  ? Al
   Al19       1.0     0.440262     0.430214     0.828859    Uiso  ? Al
   Al20       1.0     0.547215     0.539924     0.593910    Uiso  ? Al
   Al21       1.0     0.115296     0.758395     0.332183    Uiso  ? Al
   Al22       1.0     0.216604     0.873085     0.078315    Uiso  ? Al
   Al23       1.0     0.782656     0.755594     0.820977    Uiso  ? Al
   Al24       1.0     0.892975     0.871939     0.573865    Uiso  ? Al
   Al25       1.0     0.434275     0.764712     0.338907    Uiso  ? Al
   Al26       1.0     0.113966     0.757780     0.825212    Uiso  ? Al
   Al27       1.0     0.217634     0.874435     0.580629    Uiso  ? Al
   Al28       1.0     0.784507     0.760534     0.340614    Uiso  ? Al
   Al29       1.0     0.900339     0.859637     0.089233    Uiso  ? Al
   Al30       1.0     0.440575     0.760633     0.822675    Uiso  ? Al
   Hf1        1.0     0.775160     0.092941     0.850263    Uiso  ? Hf
   Hf2        1.0     0.777689     0.428650     0.349781    Uiso  ? Hf
   Hf3        1.0     0.555081     0.873493     0.098666    Uiso  ? Hf
   Mg1        1.0     0.553435     0.537349     0.079218    Uiso  ? Mg
   Mg2        1.0     0.222374     0.538140     0.586270    Uiso  ? Mg
   Mg3        1.0     0.556148     0.871193     0.585363    Uiso  ? Mg
   N1         1.0     0.215875     0.208045     0.374766    Uiso  ? N
   N2         1.0     0.111728     0.093652     0.126110    Uiso  ? N
   N3         1.0     0.897914     0.214924     0.875262    Uiso  ? N
   N4         1.0     0.776234     0.092651     0.626395    Uiso  ? N
   N5         1.0     0.559992     0.206210     0.370244    Uiso  ? N
   N6         1.0     0.431156     0.111981     0.138586    Uiso  ? N
   N7         1.0     0.224416     0.203094     0.879906    Uiso  ? N
   N8         1.0     0.112805     0.094161     0.628052    Uiso  ? N
   N9         1.0     0.898176     0.184767     0.378990    Uiso  ? N
   N10        1.0     0.778145     0.094789     0.113168    Uiso  ? N
   N11        1.0     0.535359     0.211748     0.884489    Uiso  ? N
   N12        1.0     0.435517     0.111024     0.615777    Uiso  ? N
   N13        1.0     0.220349     0.540028     0.366604    Uiso  ? N
   N14        1.0     0.110926     0.427449     0.123287    Uiso  ? N
   N15        1.0     0.888422     0.539097     0.872445    Uiso  ? N
   N16        1.0     0.781175     0.425296     0.612576    Uiso  ? N
   N17        1.0     0.537410     0.546965     0.381238    Uiso  ? N
   N18        1.0     0.435393     0.425539     0.127351    Uiso  ? N
   N19        1.0     0.221025     0.540184     0.875324    Uiso  ? N
   N20        1.0     0.107401     0.417445     0.632471    Uiso  ? N
   N21        1.0     0.901638     0.544952     0.383363    Uiso  ? N
   N22        1.0     0.793361     0.422443     0.128362    Uiso  ? N
   N23        1.0     0.558545     0.538296     0.858313    Uiso  ? N
   N24        1.0     0.458329     0.416339     0.630247    Uiso  ? N
   N25        1.0     0.217811     0.875194     0.378783    Uiso  ? N
   N26        1.0     0.113728     0.760776     0.128870    Uiso  ? N
   N27        1.0     0.897859     0.852510     0.885623    Uiso  ? N
   N28        1.0     0.794173     0.755736     0.621993    Uiso  ? N
   N29        1.0     0.558065     0.870442     0.356352    Uiso  ? N
   N30        1.0     0.425702     0.768354     0.133401    Uiso  ? N
   N31        1.0     0.220193     0.873362     0.876840    Uiso  ? N
   N32        1.0     0.101245     0.778217     0.627412    Uiso  ? N
   N33        1.0     0.889983     0.875148     0.370079    Uiso  ? N
   N34        1.0     0.798310     0.746476     0.134627    Uiso  ? N
   N35        1.0     0.556232     0.874488     0.866788    Uiso  ? N
   N36        1.0     0.432776     0.758297     0.623199    Uiso  ? N
