
#======================================================================
# CRYSTAL DATA
#----------------------------------------------------------------------
data_VESTA_phase_1

_chemical_name_common                  'Al   Hf   Mg   N                      '
_cell_length_a                         9.691530
_cell_length_b                         9.674406
_cell_length_c                         9.864361
_cell_angle_alpha                      89.922752
_cell_angle_beta                       89.930664
_cell_angle_gamma                      60.093887
_cell_volume                           801.725810
_space_group_name_H-M_alt              'P 1'
_space_group_IT_number                 1

loop_
_space_group_symop_operation_xyz
   'x, y, z'

loop_
   _atom_site_label
   _atom_site_occupancy
   _atom_site_fract_x
   _atom_site_fract_y
   _atom_site_fract_z
   _atom_site_adp_type
   _atom_site_U_iso_or_equiv
   _atom_site_type_symbol
   Al1        1.0     0.116501     0.088462     0.325396    Uiso  ? Al
   Al2        1.0     0.217255     0.210290     0.076387    Uiso  ? Al
   Al3        1.0     0.895535     0.196493     0.578696    Uiso  ? Al
   Al4        1.0     0.440073     0.100275     0.333717    Uiso  ? Al
   Al5        1.0     0.542748     0.216072     0.081534    Uiso  ? Al
   Al6        1.0     0.118242     0.093536     0.824454    Uiso  ? Al
   Al7        1.0     0.218676     0.209000     0.575865    Uiso  ? Al
   Al8        1.0     0.777689     0.089582     0.320774    Uiso  ? Al
   Al9        1.0     0.895600     0.208626     0.077545    Uiso  ? Al
   Al10       1.0     0.435927     0.099442     0.817566    Uiso  ? Al
   Al11       1.0     0.552609     0.209205     0.572599    Uiso  ? Al
   Al12       1.0     0.117003     0.429417     0.323238    Uiso  ? Al
   Al13       1.0     0.222826     0.538615     0.076931    Uiso  ? Al
   Al14       1.0     0.777237     0.433908     0.817158    Uiso  ? Al
   Al15       1.0     0.898681     0.539615     0.581499    Uiso  ? Al
   Al16       1.0     0.434943     0.431242     0.324153    Uiso  ? Al
   Al17       1.0     0.112701     0.425421     0.825417    Uiso  ? Al
   Al18       1.0     0.897779     0.532534     0.072442    Uiso  ? Al
   Al19       1.0     0.440702     0.431797     0.822841    Uiso  ? Al
   Al20       1.0     0.546180     0.541201     0.584920    Uiso  ? Al
   Al21       1.0     0.114150     0.758689     0.326973    Uiso  ? Al
   Al22       1.0     0.216341     0.873410     0.074812    Uiso  ? Al
   Al23       1.0     0.782114     0.754359     0.820147    Uiso  ? Al
   Al24       1.0     0.893050     0.870004     0.573314    Uiso  ? Al
   Al25       1.0     0.433578     0.765095     0.330493    Uiso  ? Al
   Al26       1.0     0.115277     0.757520     0.822637    Uiso  ? Al
   Al27       1.0     0.218788     0.873279     0.577316    Uiso  ? Al
   Al28       1.0     0.785313     0.761504     0.331374    Uiso  ? Al
   Al29       1.0     0.899992     0.861633     0.081126    Uiso  ? Al
   Al30       1.0     0.441755     0.759367     0.819689    Uiso  ? Al
   Hf1        1.0     0.775788     0.093880     0.841053    Uiso  ? Hf
   Hf2        1.0     0.777853     0.428785     0.344736    Uiso  ? Hf
   Hf3        1.0     0.555283     0.872689     0.092565    Uiso  ? Hf
   Mg1        1.0     0.554445     0.535348     0.073572    Uiso  ? Mg
   Mg2        1.0     0.221582     0.538778     0.580690    Uiso  ? Mg
   Mg3        1.0     0.555995     0.871553     0.576311    Uiso  ? Mg
   N1         1.0     0.217753     0.207628     0.380313    Uiso  ? N
   N2         1.0     0.111708     0.093864     0.131318    Uiso  ? N
   N3         1.0     0.898000     0.215917     0.881315    Uiso  ? N
   N4         1.0     0.776318     0.093082     0.629263    Uiso  ? N
   N5         1.0     0.558798     0.205705     0.377270    Uiso  ? N
   N6         1.0     0.431101     0.113188     0.138584    Uiso  ? N
   N7         1.0     0.223088     0.203830     0.883644    Uiso  ? N
   N8         1.0     0.112548     0.094055     0.631726    Uiso  ? N
   N9         1.0     0.898320     0.184177     0.383247    Uiso  ? N
   N10        1.0     0.777355     0.094358     0.118321    Uiso  ? N
   N11        1.0     0.535543     0.213430     0.887567    Uiso  ? N
   N12        1.0     0.436128     0.109687     0.626694    Uiso  ? N
   N13        1.0     0.220030     0.540589     0.371262    Uiso  ? N
   N14        1.0     0.111509     0.427365     0.128045    Uiso  ? N
   N15        1.0     0.888442     0.538031     0.879009    Uiso  ? N
   N16        1.0     0.780152     0.426253     0.614938    Uiso  ? N
   N17        1.0     0.535807     0.547985     0.385558    Uiso  ? N
   N18        1.0     0.435751     0.424943     0.133860    Uiso  ? N
   N19        1.0     0.221880     0.539505     0.879794    Uiso  ? N
   N20        1.0     0.106248     0.417882     0.637393    Uiso  ? N
   N21        1.0     0.901759     0.546601     0.387055    Uiso  ? N
   N22        1.0     0.793421     0.422220     0.134860    Uiso  ? N
   N23        1.0     0.559189     0.537522     0.864664    Uiso  ? N
   N24        1.0     0.458497     0.416958     0.634001    Uiso  ? N
   N25        1.0     0.218191     0.874442     0.383023    Uiso  ? N
   N26        1.0     0.113056     0.760968     0.132007    Uiso  ? N
   N27        1.0     0.897986     0.852928     0.888283    Uiso  ? N
   N28        1.0     0.792984     0.755551     0.630626    Uiso  ? N
   N29        1.0     0.557944     0.870848     0.355542    Uiso  ? N
   N30        1.0     0.425427     0.766979     0.137464    Uiso  ? N
   N31        1.0     0.220713     0.873609     0.881728    Uiso  ? N
   N32        1.0     0.101542     0.778436     0.634045    Uiso  ? N
   N33        1.0     0.890156     0.874436     0.377605    Uiso  ? N
   N34        1.0     0.799791     0.746814     0.136653    Uiso  ? N
   N35        1.0     0.556031     0.873555     0.873953    Uiso  ? N
   N36        1.0     0.433497     0.758183     0.629746    Uiso  ? N
