
#======================================================================
# CRYSTAL DATA
#----------------------------------------------------------------------
data_VESTA_phase_1

_chemical_name_common                  'Al   Hf   Mg   N                      '
_cell_length_a                         9.741140
_cell_length_b                         9.724215
_cell_length_c                         9.724032
_cell_angle_alpha                      89.910286
_cell_angle_beta                       89.923889
_cell_angle_gamma                      60.100033
_cell_volume                           798.504981
_space_group_name_H-M_alt              'P 1'
_space_group_IT_number                 1

loop_
_space_group_symop_operation_xyz
   'x, y, z'

loop_
   _atom_site_label
   _atom_site_occupancy
   _atom_site_fract_x
   _atom_site_fract_y
   _atom_site_fract_z
   _atom_site_adp_type
   _atom_site_U_iso_or_equiv
   _atom_site_type_symbol
   Al1        1.0     0.116181     0.088517     0.326186    Uiso  ? Al
   Al2        1.0     0.217695     0.210073     0.077949    Uiso  ? Al
   Al3        1.0     0.895635     0.195891     0.580476    Uiso  ? Al
   Al4        1.0     0.439999     0.100124     0.337270    Uiso  ? Al
   Al5        1.0     0.541807     0.216019     0.083662    Uiso  ? Al
   Al6        1.0     0.118394     0.093519     0.825737    Uiso  ? Al
   Al7        1.0     0.217915     0.209266     0.576089    Uiso  ? Al
   Al8        1.0     0.777960     0.089885     0.320856    Uiso  ? Al
   Al9        1.0     0.896081     0.209099     0.078363    Uiso  ? Al
   Al10       1.0     0.435900     0.099694     0.817245    Uiso  ? Al
   Al11       1.0     0.553458     0.209329     0.572943    Uiso  ? Al
   Al12       1.0     0.116742     0.429536     0.324313    Uiso  ? Al
   Al13       1.0     0.222440     0.538854     0.078193    Uiso  ? Al
   Al14       1.0     0.777344     0.433756     0.818457    Uiso  ? Al
   Al15       1.0     0.899211     0.539278     0.582788    Uiso  ? Al
   Al16       1.0     0.434998     0.431655     0.325070    Uiso  ? Al
   Al17       1.0     0.113054     0.425141     0.826563    Uiso  ? Al
   Al18       1.0     0.897524     0.532891     0.073234    Uiso  ? Al
   Al19       1.0     0.440636     0.431276     0.824555    Uiso  ? Al
   Al20       1.0     0.546273     0.540896     0.587431    Uiso  ? Al
   Al21       1.0     0.114517     0.758507     0.328538    Uiso  ? Al
   Al22       1.0     0.216425     0.873322     0.075889    Uiso  ? Al
   Al23       1.0     0.782286     0.754700     0.820379    Uiso  ? Al
   Al24       1.0     0.892939     0.870839     0.573544    Uiso  ? Al
   Al25       1.0     0.433729     0.764952     0.332943    Uiso  ? Al
   Al26       1.0     0.114849     0.757658     0.823306    Uiso  ? Al
   Al27       1.0     0.218373     0.873669     0.578152    Uiso  ? Al
   Al28       1.0     0.785149     0.761189     0.334121    Uiso  ? Al
   Al29       1.0     0.900293     0.860598     0.083401    Uiso  ? Al
   Al30       1.0     0.441390     0.759760     0.820597    Uiso  ? Al
   Hf1        1.0     0.775594     0.093609     0.844984    Uiso  ? Hf
   Hf2        1.0     0.777862     0.428628     0.347086    Uiso  ? Hf
   Hf3        1.0     0.555159     0.873046     0.094843    Uiso  ? Hf
   Mg1        1.0     0.554300     0.535972     0.075396    Uiso  ? Mg
   Mg2        1.0     0.221835     0.538550     0.582565    Uiso  ? Mg
   Mg3        1.0     0.556092     0.871384     0.579148    Uiso  ? Mg
   N1         1.0     0.217019     0.207838     0.378619    Uiso  ? N
   N2         1.0     0.111717     0.093820     0.129759    Uiso  ? N
   N3         1.0     0.898059     0.215890     0.879436    Uiso  ? N
   N4         1.0     0.776293     0.092890     0.629260    Uiso  ? N
   N5         1.0     0.559423     0.205822     0.375151    Uiso  ? N
   N6         1.0     0.430978     0.112953     0.138836    Uiso  ? N
   N7         1.0     0.223566     0.203525     0.882485    Uiso  ? N
   N8         1.0     0.112666     0.094041     0.630557    Uiso  ? N
   N9         1.0     0.898262     0.184056     0.381984    Uiso  ? N
   N10        1.0     0.777608     0.094476     0.115903    Uiso  ? N
   N11        1.0     0.535158     0.213018     0.886599    Uiso  ? N
   N12        1.0     0.435902     0.110168     0.623160    Uiso  ? N
   N13        1.0     0.220135     0.540378     0.370056    Uiso  ? N
   N14        1.0     0.111312     0.427427     0.126496    Uiso  ? N
   N15        1.0     0.888337     0.538326     0.877062    Uiso  ? N
   N16        1.0     0.780542     0.425905     0.613660    Uiso  ? N
   N17        1.0     0.536187     0.547712     0.384339    Uiso  ? N
   N18        1.0     0.435535     0.425260     0.131906    Uiso  ? N
   N19        1.0     0.221616     0.539732     0.878273    Uiso  ? N
   N20        1.0     0.106626     0.417657     0.635934    Uiso  ? N
   N21        1.0     0.901865     0.546121     0.385859    Uiso  ? N
   N22        1.0     0.793467     0.422291     0.133541    Uiso  ? N
   N23        1.0     0.559081     0.537722     0.862793    Uiso  ? N
   N24        1.0     0.458514     0.416668     0.632815    Uiso  ? N
   N25        1.0     0.218008     0.874690     0.381665    Uiso  ? N
   N26        1.0     0.113343     0.760820     0.131082    Uiso  ? N
   N27        1.0     0.898099     0.852489     0.887453    Uiso  ? N
   N28        1.0     0.793454     0.755594     0.627978    Uiso  ? N
   N29        1.0     0.558001     0.870728     0.355663    Uiso  ? N
   N30        1.0     0.425455     0.767445     0.136360    Uiso  ? N
   N31        1.0     0.220539     0.873542     0.880305    Uiso  ? N
   N32        1.0     0.101412     0.778458     0.631946    Uiso  ? N
   N33        1.0     0.890045     0.874830     0.375318    Uiso  ? N
   N34        1.0     0.799361     0.746629     0.136124    Uiso  ? N
   N35        1.0     0.556085     0.873882     0.871959    Uiso  ? N
   N36        1.0     0.433163     0.758273     0.627764    Uiso  ? N
