
#======================================================================
# CRYSTAL DATA
#----------------------------------------------------------------------
data_VESTA_phase_1

_chemical_name_common                  'Al   Hf   Mg   N                      '
_cell_length_a                         9.602975
_cell_length_b                         9.591665
_cell_length_c                         10.099178
_cell_angle_alpha                      90.015167
_cell_angle_beta                       90.101974
_cell_angle_gamma                      60.057522
_cell_volume                           806.059530
_space_group_name_H-M_alt              'P 1'
_space_group_IT_number                 1

loop_
_space_group_symop_operation_xyz
   'x, y, z'

loop_
   _atom_site_label
   _atom_site_occupancy
   _atom_site_fract_x
   _atom_site_fract_y
   _atom_site_fract_z
   _atom_site_adp_type
   _atom_site_U_iso_or_equiv
   _atom_site_type_symbol
   Al1        1.0     0.117351     0.088433     0.401968    Uiso  ? Al
   Al2        1.0     0.216155     0.210838     0.150795    Uiso  ? Al
   Al3        1.0     0.894408     0.205506     0.648770    Uiso  ? Al
   Al4        1.0     0.440481     0.098707     0.404829    Uiso  ? Al
   Al5        1.0     0.549489     0.213106     0.155369    Uiso  ? Al
   Al6        1.0     0.117347     0.093445     0.900359    Uiso  ? Al
   Al7        1.0     0.219653     0.208051     0.648034    Uiso  ? Al
   Al8        1.0     0.777120     0.089381     0.405223    Uiso  ? Al
   Al9        1.0     0.894745     0.201243     0.149199    Uiso  ? Al
   Al10       1.0     0.435251     0.100829     0.897916    Uiso  ? Al
   Al11       1.0     0.547012     0.211534     0.643789    Uiso  ? Al
   Al12       1.0     0.115503     0.427781     0.402457    Uiso  ? Al
   Al13       1.0     0.223612     0.536564     0.149164    Uiso  ? Al
   Al14       1.0     0.780049     0.432081     0.903931    Uiso  ? Al
   Al15       1.0     0.893759     0.538040     0.652706    Uiso  ? Al
   Al16       1.0     0.440582     0.430222     0.403862    Uiso  ? Al
   Al17       1.0     0.113858     0.427768     0.900627    Uiso  ? Al
   Al18       1.0     0.901189     0.534075     0.145676    Uiso  ? Al
   Al19       1.0     0.435202     0.432406     0.902986    Uiso  ? Al
   Al20       1.0     0.550747     0.539174     0.653626    Uiso  ? Al
   Al21       1.0     0.112249     0.762064     0.401272    Uiso  ? Al
   Al22       1.0     0.216936     0.873508     0.151229    Uiso  ? Al
   Al23       1.0     0.785023     0.752823     0.896795    Uiso  ? Al
   Al24       1.0     0.896000     0.864361     0.644043    Uiso  ? Al
   Al25       1.0     0.436654     0.763397     0.409157    Uiso  ? Al
   Al26       1.0     0.117299     0.754617     0.902165    Uiso  ? Al
   Al27       1.0     0.218950     0.872197     0.649246    Uiso  ? Al
   Al28       1.0     0.781992     0.763632     0.405663    Uiso  ? Al
   Al29       1.0     0.896696     0.868152     0.155047    Uiso  ? Al
   Al30       1.0     0.439117     0.761628     0.896156    Uiso  ? Al
   Hf1        1.0     0.775932     0.094058     0.889443    Uiso  ? Hf
   Hf2        1.0     0.777398     0.430190     0.394280    Uiso  ? Hf
   Hf3        1.0     0.556111     0.871089     0.138097    Uiso  ? Hf
   Mg1        1.0     0.550339     0.536629     0.142684    Uiso  ? Mg
   Mg2        1.0     0.221106     0.539745     0.647159    Uiso  ? Mg
   Mg3        1.0     0.555482     0.873246     0.652085    Uiso  ? Mg
   N1         1.0     0.220367     0.205511     0.339998    Uiso  ? N
   N2         1.0     0.111676     0.093540     0.091080    Uiso  ? N
   N3         1.0     0.898109     0.213496     0.839606    Uiso  ? N
   N4         1.0     0.777395     0.094388     0.601516    Uiso  ? N
   N5         1.0     0.556711     0.204799     0.344481    Uiso  ? N
   N6         1.0     0.433524     0.112750     0.089924    Uiso  ? N
   N7         1.0     0.219953     0.206627     0.840780    Uiso  ? N
   N8         1.0     0.111822     0.094189     0.591180    Uiso  ? N
   N9         1.0     0.896989     0.187233     0.340494    Uiso  ? N
   N10        1.0     0.776340     0.093153     0.097415    Uiso  ? N
   N11        1.0     0.537042     0.214770     0.835868    Uiso  ? N
   N12        1.0     0.434529     0.109115     0.589631    Uiso  ? N
   N13        1.0     0.222127     0.539402     0.342243    Uiso  ? N
   N14        1.0     0.114342     0.425584     0.091246    Uiso  ? N
   N15        1.0     0.891607     0.536391     0.843161    Uiso  ? N
   N16        1.0     0.776825     0.429498     0.600885    Uiso  ? N
   N17        1.0     0.540020     0.548809     0.347458    Uiso  ? N
   N18        1.0     0.436912     0.419271     0.089149    Uiso  ? N
   N19        1.0     0.220069     0.539946     0.852425    Uiso  ? N
   N20        1.0     0.101968     0.419838     0.587078    Uiso  ? N
   N21        1.0     0.897582     0.549527     0.334792    Uiso  ? N
   N22        1.0     0.794307     0.420070     0.096144    Uiso  ? N
   N23        1.0     0.556904     0.536258     0.847382    Uiso  ? N
   N24        1.0     0.458345     0.421995     0.588613    Uiso  ? N
   N25        1.0     0.222223     0.873192     0.340445    Uiso  ? N
   N26        1.0     0.110447     0.762142     0.094157    Uiso  ? N
   N27        1.0     0.899597     0.854681     0.836437    Uiso  ? N
   N28        1.0     0.792116     0.752197     0.590806    Uiso  ? N
   N29        1.0     0.555461     0.871680     0.349883    Uiso  ? N
   N30        1.0     0.424464     0.768904     0.083209    Uiso  ? N
   N31        1.0     0.217628     0.874498     0.840854    Uiso  ? N
   N32        1.0     0.104751     0.776218     0.585461    Uiso  ? N
   N33        1.0     0.888060     0.873586     0.342999    Uiso  ? N
   N34        1.0     0.800292     0.751049     0.086924    Uiso  ? N
   N35        1.0     0.557907     0.873192     0.867886    Uiso  ? N
   N36        1.0     0.435724     0.755471     0.596038    Uiso  ? N
