
#======================================================================
# CRYSTAL DATA
#----------------------------------------------------------------------
data_VESTA_phase_1

_chemical_name_common                  'Al   Hf   Mg   N                      '
_cell_length_a                         9.881470
_cell_length_b                         9.864333
_cell_length_c                         9.311047
_cell_angle_alpha                      89.892303
_cell_angle_beta                       89.916122
_cell_angle_gamma                      60.109898
_cell_volume                           786.859938
_space_group_name_H-M_alt              'P 1'
_space_group_IT_number                 1

loop_
_space_group_symop_operation_xyz
   'x, y, z'

loop_
   _atom_site_label
   _atom_site_occupancy
   _atom_site_fract_x
   _atom_site_fract_y
   _atom_site_fract_z
   _atom_site_adp_type
   _atom_site_U_iso_or_equiv
   _atom_site_type_symbol
   Al1        1.0     0.115671     0.088609     0.329360    Uiso  ? Al
   Al2        1.0     0.218916     0.209438     0.083821    Uiso  ? Al
   Al3        1.0     0.895723     0.196482     0.586438    Uiso  ? Al
   Al4        1.0     0.439822     0.099125     0.348346    Uiso  ? Al
   Al5        1.0     0.541334     0.214773     0.092299    Uiso  ? Al
   Al6        1.0     0.118631     0.093544     0.830822    Uiso  ? Al
   Al7        1.0     0.215908     0.209860     0.577837    Uiso  ? Al
   Al8        1.0     0.778585     0.090975     0.325031    Uiso  ? Al
   Al9        1.0     0.896936     0.208399     0.081891    Uiso  ? Al
   Al10       1.0     0.435934     0.100581     0.817598    Uiso  ? Al
   Al11       1.0     0.554568     0.210372     0.573962    Uiso  ? Al
   Al12       1.0     0.115681     0.429616     0.329235    Uiso  ? Al
   Al13       1.0     0.221241     0.539576     0.084336    Uiso  ? Al
   Al14       1.0     0.777736     0.433017     0.826613    Uiso  ? Al
   Al15       1.0     0.899570     0.537574     0.588862    Uiso  ? Al
   Al16       1.0     0.435552     0.432740     0.328434    Uiso  ? Al
   Al17       1.0     0.114593     0.424548     0.830514    Uiso  ? Al
   Al18       1.0     0.897426     0.534350     0.075668    Uiso  ? Al
   Al19       1.0     0.439989     0.429769     0.831408    Uiso  ? Al
   Al20       1.0     0.547913     0.539374     0.597635    Uiso  ? Al
   Al21       1.0     0.115667     0.758449     0.334341    Uiso  ? Al
   Al22       1.0     0.216614     0.872982     0.079623    Uiso  ? Al
   Al23       1.0     0.782806     0.756075     0.821500    Uiso  ? Al
   Al24       1.0     0.893052     0.872219     0.574167    Uiso  ? Al
   Al25       1.0     0.434636     0.764639     0.342493    Uiso  ? Al
   Al26       1.0     0.113561     0.757738     0.826385    Uiso  ? Al
   Al27       1.0     0.217368     0.874769     0.582364    Uiso  ? Al
   Al28       1.0     0.784111     0.760224     0.344187    Uiso  ? Al
   Al29       1.0     0.900200     0.859552     0.092598    Uiso  ? Al
   Al30       1.0     0.440220     0.761019     0.824206    Uiso  ? Al
   Hf1        1.0     0.774940     0.092600     0.851983    Uiso  ? Hf
   Hf2        1.0     0.777576     0.428767     0.350518    Uiso  ? Hf
   Hf3        1.0     0.555113     0.873611     0.100247    Uiso  ? Hf
   Mg1        1.0     0.552822     0.537989     0.081427    Uiso  ? Mg
   Mg2        1.0     0.222647     0.537947     0.588126    Uiso  ? Mg
   Mg3        1.0     0.556114     0.871194     0.588522    Uiso  ? Mg
   N1         1.0     0.215531     0.208036     0.372617    Uiso  ? N
   N2         1.0     0.111741     0.093542     0.124038    Uiso  ? N
   N3         1.0     0.897785     0.214168     0.872946    Uiso  ? N
   N4         1.0     0.776212     0.092593     0.623906    Uiso  ? N
   N5         1.0     0.560001     0.206407     0.367570    Uiso  ? N
   N6         1.0     0.431388     0.111383     0.137899    Uiso  ? N
   N7         1.0     0.224735     0.202983     0.878443    Uiso  ? N
   N8         1.0     0.112836     0.094288     0.626621    Uiso  ? N
   N9         1.0     0.898170     0.185391     0.377195    Uiso  ? N
   N10        1.0     0.778387     0.094956     0.112475    Uiso  ? N
   N11        1.0     0.535749     0.211081     0.883174    Uiso  ? N
   N12        1.0     0.435351     0.111365     0.612254    Uiso  ? N
   N13        1.0     0.220448     0.539891     0.364408    Uiso  ? N
   N14        1.0     0.110764     0.427423     0.121604    Uiso  ? N
   N15        1.0     0.888581     0.539498     0.869809    Uiso  ? N
   N16        1.0     0.781354     0.425079     0.612396    Uiso  ? N
   N17        1.0     0.538128     0.546619     0.379079    Uiso  ? N
   N18        1.0     0.435399     0.425508     0.124796    Uiso  ? N
   N19        1.0     0.220724     0.540402     0.873816    Uiso  ? N
   N20        1.0     0.107746     0.417443     0.630394    Uiso  ? N
   N21        1.0     0.901357     0.544398     0.381941    Uiso  ? N
   N22        1.0     0.793273     0.422486     0.124743    Uiso  ? N
   N23        1.0     0.558221     0.538555     0.855946    Uiso  ? N
   N24        1.0     0.458167     0.416365     0.628700    Uiso  ? N
   N25        1.0     0.217875     0.875389     0.377242    Uiso  ? N
   N26        1.0     0.113809     0.760859     0.127578    Uiso  ? N
   N27        1.0     0.897640     0.852791     0.884417    Uiso  ? N
   N28        1.0     0.794389     0.755801     0.618811    Uiso  ? N
   N29        1.0     0.558037     0.870316     0.356785    Uiso  ? N
   N30        1.0     0.425872     0.768802     0.131087    Uiso  ? N
   N31        1.0     0.219910     0.873314     0.874687    Uiso  ? N
   N32        1.0     0.101247     0.777932     0.624864    Uiso  ? N
   N33        1.0     0.889965     0.875123     0.367250    Uiso  ? N
   N34        1.0     0.797762     0.746503     0.133482    Uiso  ? N
   N35        1.0     0.556364     0.874782     0.863929    Uiso  ? N
   N36        1.0     0.432780     0.758186     0.620765    Uiso  ? N
