
#======================================================================
# CRYSTAL DATA
#----------------------------------------------------------------------
data_VESTA_phase_1

_chemical_name_common                  'Al   Hf   Mg   N                      '
_cell_length_a                         9.999965
_cell_length_b                         9.988382
_cell_length_c                         8.944919
_cell_angle_alpha                      89.890472
_cell_angle_beta                       89.990860
_cell_angle_gamma                      60.099297
_cell_volume                           774.521277
_space_group_name_H-M_alt              'P 1'
_space_group_IT_number                 1

loop_
_space_group_symop_operation_xyz
   'x, y, z'

loop_
   _atom_site_label
   _atom_site_occupancy
   _atom_site_fract_x
   _atom_site_fract_y
   _atom_site_fract_z
   _atom_site_adp_type
   _atom_site_U_iso_or_equiv
   _atom_site_type_symbol
   Al1        1.0     0.117330     0.088001     0.369806    Uiso  ? Al
   Al2        1.0     0.217828     0.211380     0.121926    Uiso  ? Al
   Al3        1.0     0.895408     0.205793     0.614206    Uiso  ? Al
   Al4        1.0     0.439133     0.097813     0.373021    Uiso  ? Al
   Al5        1.0     0.548357     0.210911     0.128535    Uiso  ? Al
   Al6        1.0     0.116484     0.094155     0.872970    Uiso  ? Al
   Al7        1.0     0.215571     0.208256     0.616014    Uiso  ? Al
   Al8        1.0     0.778659     0.088944     0.369460    Uiso  ? Al
   Al9        1.0     0.896863     0.198120     0.119115    Uiso  ? Al
   Al10       1.0     0.437365     0.098931     0.837206    Uiso  ? Al
   Al11       1.0     0.549149     0.213315     0.601982    Uiso  ? Al
   Al12       1.0     0.113103     0.430461     0.376880    Uiso  ? Al
   Al13       1.0     0.220848     0.536795     0.113917    Uiso  ? Al
   Al14       1.0     0.779678     0.429064     0.873994    Uiso  ? Al
   Al15       1.0     0.893933     0.533751     0.629277    Uiso  ? Al
   Al16       1.0     0.438179     0.434278     0.367031    Uiso  ? Al
   Al17       1.0     0.116573     0.425038     0.864815    Uiso  ? Al
   Al18       1.0     0.901407     0.537129     0.106174    Uiso  ? Al
   Al19       1.0     0.437568     0.429578     0.873640    Uiso  ? Al
   Al20       1.0     0.554018     0.535203     0.623790    Uiso  ? Al
   Al21       1.0     0.114757     0.760171     0.371257    Uiso  ? Al
   Al22       1.0     0.218598     0.873087     0.118569    Uiso  ? Al
   Al23       1.0     0.783576     0.756064     0.853191    Uiso  ? Al
   Al24       1.0     0.898222     0.864820     0.611976    Uiso  ? Al
   Al25       1.0     0.436308     0.763321     0.385325    Uiso  ? Al
   Al26       1.0     0.115162     0.756622     0.871356    Uiso  ? Al
   Al27       1.0     0.215076     0.875003     0.624395    Uiso  ? Al
   Al28       1.0     0.782839     0.759907     0.382601    Uiso  ? Al
   Al29       1.0     0.895486     0.865818     0.126726    Uiso  ? Al
   Al30       1.0     0.438474     0.762544     0.852497    Uiso  ? Al
   Hf1        1.0     0.774949     0.094350     0.854626    Uiso  ? Hf
   Hf2        1.0     0.775497     0.432720     0.350755    Uiso  ? Hf
   Hf3        1.0     0.554951     0.873959     0.102989    Uiso  ? Hf
   Mg1        1.0     0.546422     0.542365     0.101235    Uiso  ? Mg
   Mg2        1.0     0.223196     0.540375     0.614419    Uiso  ? Mg
   Mg3        1.0     0.556773     0.870943     0.609205    Uiso  ? Mg
   N1         1.0     0.217867     0.208186     0.341053    Uiso  ? N
   N2         1.0     0.112173     0.094495     0.090175    Uiso  ? N
   N3         1.0     0.898068     0.211991     0.837938    Uiso  ? N
   N4         1.0     0.778849     0.093903     0.595034    Uiso  ? N
   N5         1.0     0.557659     0.203887     0.348149    Uiso  ? N
   N6         1.0     0.434046     0.110847     0.100172    Uiso  ? N
   N7         1.0     0.220892     0.204154     0.837049    Uiso  ? N
   N8         1.0     0.112077     0.093152     0.586060    Uiso  ? N
   N9         1.0     0.896973     0.188367     0.341073    Uiso  ? N
   N10        1.0     0.776700     0.092661     0.096969    Uiso  ? N
   N11        1.0     0.538834     0.213925     0.834574    Uiso  ? N
   N12        1.0     0.433893     0.109451     0.593256    Uiso  ? N
   N13        1.0     0.219508     0.540192     0.337410    Uiso  ? N
   N14        1.0     0.114315     0.424394     0.083819    Uiso  ? N
   N15        1.0     0.890744     0.535364     0.845531    Uiso  ? N
   N16        1.0     0.779379     0.428181     0.593368    Uiso  ? N
   N17        1.0     0.539632     0.551892     0.343577    Uiso  ? N
   N18        1.0     0.437502     0.419908     0.092982    Uiso  ? N
   N19        1.0     0.221453     0.540715     0.852146    Uiso  ? N
   N20        1.0     0.103402     0.421611     0.591908    Uiso  ? N
   N21        1.0     0.897768     0.549526     0.330721    Uiso  ? N
   N22        1.0     0.794008     0.418524     0.096074    Uiso  ? N
   N23        1.0     0.559210     0.533345     0.843349    Uiso  ? N
   N24        1.0     0.456445     0.423632     0.584065    Uiso  ? N
   N25        1.0     0.224005     0.872357     0.335696    Uiso  ? N
   N26        1.0     0.109452     0.763221     0.091769    Uiso  ? N
   N27        1.0     0.899385     0.857757     0.833644    Uiso  ? N
   N28        1.0     0.794961     0.749608     0.597270    Uiso  ? N
   N29        1.0     0.557327     0.868601     0.351352    Uiso  ? N
   N30        1.0     0.426016     0.771722     0.073066    Uiso  ? N
   N31        1.0     0.213872     0.877257     0.839230    Uiso  ? N
   N32        1.0     0.106773     0.774421     0.583722    Uiso  ? N
   N33        1.0     0.887853     0.871535     0.343430    Uiso  ? N
   N34        1.0     0.796277     0.753545     0.079038    Uiso  ? N
   N35        1.0     0.557802     0.875675     0.848637    Uiso  ? N
   N36        1.0     0.434011     0.755171     0.603308    Uiso  ? N
