
#======================================================================
# CRYSTAL DATA
#----------------------------------------------------------------------
data_VESTA_phase_1

_chemical_name_common                  'Al   Hf   Mg   N                      '
_cell_length_a                         10.107538
_cell_length_b                         10.092046
_cell_length_c                         8.629025
_cell_angle_alpha                      89.900368
_cell_angle_beta                       89.987701
_cell_angle_gamma                      60.108204
_cell_volume                           763.112735
_space_group_name_H-M_alt              'P 1'
_space_group_IT_number                 1

loop_
_space_group_symop_operation_xyz
   'x, y, z'

loop_
   _atom_site_label
   _atom_site_occupancy
   _atom_site_fract_x
   _atom_site_fract_y
   _atom_site_fract_z
   _atom_site_adp_type
   _atom_site_U_iso_or_equiv
   _atom_site_type_symbol
   Al1        1.0     0.117091     0.088477     0.359890    Uiso  ? Al
   Al2        1.0     0.218173     0.210700     0.109801    Uiso  ? Al
   Al3        1.0     0.895570     0.202969     0.606015    Uiso  ? Al
   Al4        1.0     0.438900     0.098769     0.362320    Uiso  ? Al
   Al5        1.0     0.545324     0.212374     0.113948    Uiso  ? Al
   Al6        1.0     0.117037     0.093622     0.861821    Uiso  ? Al
   Al7        1.0     0.216437     0.208414     0.603423    Uiso  ? Al
   Al8        1.0     0.778477     0.089831     0.354380    Uiso  ? Al
   Al9        1.0     0.897392     0.200836     0.108501    Uiso  ? Al
   Al10       1.0     0.437535     0.099435     0.829455    Uiso  ? Al
   Al11       1.0     0.551255     0.211881     0.587524    Uiso  ? Al
   Al12       1.0     0.113791     0.430099     0.366128    Uiso  ? Al
   Al13       1.0     0.220581     0.537932     0.105524    Uiso  ? Al
   Al14       1.0     0.778466     0.430022     0.860346    Uiso  ? Al
   Al15       1.0     0.895081     0.535032     0.620526    Uiso  ? Al
   Al16       1.0     0.437264     0.433495     0.352754    Uiso  ? Al
   Al17       1.0     0.116466     0.425136     0.854299    Uiso  ? Al
   Al18       1.0     0.900369     0.536163     0.097321    Uiso  ? Al
   Al19       1.0     0.438544     0.430179     0.856448    Uiso  ? Al
   Al20       1.0     0.551712     0.537160     0.614969    Uiso  ? Al
   Al21       1.0     0.114985     0.759565     0.364589    Uiso  ? Al
   Al22       1.0     0.217836     0.872930     0.109438    Uiso  ? Al
   Al23       1.0     0.782851     0.756747     0.845750    Uiso  ? Al
   Al24       1.0     0.896048     0.867176     0.601976    Uiso  ? Al
   Al25       1.0     0.436467     0.763703     0.377349    Uiso  ? Al
   Al26       1.0     0.114893     0.756748     0.858007    Uiso  ? Al
   Al27       1.0     0.216405     0.874878     0.616388    Uiso  ? Al
   Al28       1.0     0.782407     0.760044     0.374700    Uiso  ? Al
   Al29       1.0     0.897391     0.863694     0.118430    Uiso  ? Al
   Al30       1.0     0.439029     0.761569     0.848745    Uiso  ? Al
   Hf1        1.0     0.774386     0.093855     0.854462    Uiso  ? Hf
   Hf2        1.0     0.776205     0.431922     0.351021    Uiso  ? Hf
   Hf3        1.0     0.555194     0.873666     0.102872    Uiso  ? Hf
   Mg1        1.0     0.547561     0.541033     0.096737    Uiso  ? Mg
   Mg2        1.0     0.222999     0.539597     0.606545    Uiso  ? Mg
   Mg3        1.0     0.556256     0.871414     0.604873    Uiso  ? Mg
   N1         1.0     0.216933     0.208228     0.351221    Uiso  ? N
   N2         1.0     0.112358     0.094242     0.098876    Uiso  ? N
   N3         1.0     0.897618     0.209914     0.848208    Uiso  ? N
   N4         1.0     0.777406     0.094198     0.597111    Uiso  ? N
   N5         1.0     0.557783     0.205180     0.352665    Uiso  ? N
   N6         1.0     0.433837     0.108881     0.117159    Uiso  ? N
   N7         1.0     0.223405     0.203289     0.849876    Uiso  ? N
   N8         1.0     0.112291     0.093452     0.596925    Uiso  ? N
   N9         1.0     0.897074     0.190334     0.350838    Uiso  ? N
   N10        1.0     0.778509     0.092561     0.108407    Uiso  ? N
   N11        1.0     0.539279     0.211125     0.857461    Uiso  ? N
   N12        1.0     0.434896     0.110854     0.597434    Uiso  ? N
   N13        1.0     0.219175     0.540848     0.344468    Uiso  ? N
   N14        1.0     0.113200     0.425345     0.094223    Uiso  ? N
   N15        1.0     0.890707     0.537000     0.851253    Uiso  ? N
   N16        1.0     0.780769     0.426533     0.605212    Uiso  ? N
   N17        1.0     0.541099     0.549440     0.356224    Uiso  ? N
   N18        1.0     0.436595     0.422806     0.104850    Uiso  ? N
   N19        1.0     0.221474     0.540268     0.859047    Uiso  ? N
   N20        1.0     0.105138     0.421140     0.601764    Uiso  ? N
   N21        1.0     0.897160     0.547307     0.343860    Uiso  ? N
   N22        1.0     0.792694     0.419888     0.096975    Uiso  ? N
   N23        1.0     0.558181     0.535541     0.845148    Uiso  ? N
   N24        1.0     0.456115     0.421072     0.600118    Uiso  ? N
   N25        1.0     0.222798     0.872594     0.344614    Uiso  ? N
   N26        1.0     0.110359     0.762499     0.099177    Uiso  ? N
   N27        1.0     0.897341     0.859116     0.845567    Uiso  ? N
   N28        1.0     0.794539     0.751183     0.602917    Uiso  ? N
   N29        1.0     0.557976     0.867927     0.356413    Uiso  ? N
   N30        1.0     0.427960     0.770301     0.084880    Uiso  ? N
   N31        1.0     0.215826     0.876103     0.847789    Uiso  ? N
   N32        1.0     0.105904     0.774238     0.595598    Uiso  ? N
   N33        1.0     0.888886     0.871213     0.350610    Uiso  ? N
   N34        1.0     0.794787     0.752667     0.091453    Uiso  ? N
   N35        1.0     0.556994     0.877224     0.848944    Uiso  ? N
   N36        1.0     0.433429     0.756578     0.606868    Uiso  ? N
