
#======================================================================
# CRYSTAL DATA
#----------------------------------------------------------------------
data_VESTA_phase_1

_chemical_name_common                  'Al   Hf   Mg   N                      '
_cell_length_a                         10.038028
_cell_length_b                         10.025328
_cell_length_c                         8.831421
_cell_angle_alpha                      89.889145
_cell_angle_beta                       89.989403
_cell_angle_gamma                      60.101639
_cell_volume                           770.461747
_space_group_name_H-M_alt              'P 1'
_space_group_IT_number                 1

loop_
_space_group_symop_operation_xyz
   'x, y, z'

loop_
   _atom_site_label
   _atom_site_occupancy
   _atom_site_fract_x
   _atom_site_fract_y
   _atom_site_fract_z
   _atom_site_adp_type
   _atom_site_U_iso_or_equiv
   _atom_site_type_symbol
   Al1        1.0     0.117231     0.088057     0.367192    Uiso  ? Al
   Al2        1.0     0.217745     0.211363     0.119164    Uiso  ? Al
   Al3        1.0     0.895437     0.204794     0.611556    Uiso  ? Al
   Al4        1.0     0.439044     0.098053     0.368140    Uiso  ? Al
   Al5        1.0     0.547637     0.211302     0.124653    Uiso  ? Al
   Al6        1.0     0.116678     0.094043     0.870217    Uiso  ? Al
   Al7        1.0     0.215680     0.208239     0.612092    Uiso  ? Al
   Al8        1.0     0.778704     0.089184     0.364057    Uiso  ? Al
   Al9        1.0     0.897030     0.199045     0.116123    Uiso  ? Al
   Al10       1.0     0.437512     0.098891     0.831791    Uiso  ? Al
   Al11       1.0     0.550107     0.212728     0.596548    Uiso  ? Al
   Al12       1.0     0.113086     0.430601     0.374492    Uiso  ? Al
   Al13       1.0     0.220617     0.537090     0.111066    Uiso  ? Al
   Al14       1.0     0.779228     0.429228     0.869556    Uiso  ? Al
   Al15       1.0     0.894195     0.534068     0.627428    Uiso  ? Al
   Al16       1.0     0.437862     0.434197     0.363313    Uiso  ? Al
   Al17       1.0     0.116732     0.424840     0.861618    Uiso  ? Al
   Al18       1.0     0.901066     0.536855     0.102937    Uiso  ? Al
   Al19       1.0     0.437882     0.429793     0.869592    Uiso  ? Al
   Al20       1.0     0.553322     0.535718     0.620961    Uiso  ? Al
   Al21       1.0     0.114982     0.759902     0.369493    Uiso  ? Al
   Al22       1.0     0.218476     0.872999     0.115824    Uiso  ? Al
   Al23       1.0     0.783269     0.756488     0.850503    Uiso  ? Al
   Al24       1.0     0.897605     0.865662     0.608890    Uiso  ? Al
   Al25       1.0     0.436344     0.763486     0.383226    Uiso  ? Al
   Al26       1.0     0.114961     0.756790     0.867754    Uiso  ? Al
   Al27       1.0     0.215337     0.875041     0.622520    Uiso  ? Al
   Al28       1.0     0.782708     0.759762     0.380666    Uiso  ? Al
   Al29       1.0     0.896045     0.865007     0.124628    Uiso  ? Al
   Al30       1.0     0.438627     0.762301     0.850945    Uiso  ? Al
   Hf1        1.0     0.774676     0.094236     0.854401    Uiso  ? Hf
   Hf2        1.0     0.775772     0.432647     0.350644    Uiso  ? Hf
   Hf3        1.0     0.555027     0.873928     0.102602    Uiso  ? Hf
   Mg1        1.0     0.546846     0.542095     0.099748    Uiso  ? Mg
   Mg2        1.0     0.223222     0.540232     0.612122    Uiso  ? Mg
   Mg3        1.0     0.556655     0.870964     0.607168    Uiso  ? Mg
   N1         1.0     0.217078     0.208575     0.344511    Uiso  ? N
   N2         1.0     0.112287     0.094485     0.092713    Uiso  ? N
   N3         1.0     0.897973     0.211194     0.841058    Uiso  ? N
   N4         1.0     0.778578     0.093975     0.595530    Uiso  ? N
   N5         1.0     0.557808     0.204362     0.350377    Uiso  ? N
   N6         1.0     0.434023     0.110136     0.108496    Uiso  ? N
   N7         1.0     0.221900     0.203620     0.840231    Uiso  ? N
   N8         1.0     0.112092     0.093076     0.588864    Uiso  ? N
   N9         1.0     0.896999     0.189169     0.344017    Uiso  ? N
   N10        1.0     0.777221     0.092534     0.101358    Uiso  ? N
   N11        1.0     0.538979     0.212899     0.841234    Uiso  ? N
   N12        1.0     0.434244     0.109715     0.594646    Uiso  ? N
   N13        1.0     0.219270     0.540403     0.339482    Uiso  ? N
   N14        1.0     0.114061     0.424532     0.086211    Uiso  ? N
   N15        1.0     0.890672     0.535842     0.847793    Uiso  ? N
   N16        1.0     0.779845     0.427709     0.597383    Uiso  ? N
   N17        1.0     0.540230     0.551313     0.347502    Uiso  ? N
   N18        1.0     0.437315     0.420815     0.096440    Uiso  ? N
   N19        1.0     0.221481     0.540661     0.854624    Uiso  ? N
   N20        1.0     0.103802     0.421702     0.595179    Uiso  ? N
   N21        1.0     0.897599     0.548946     0.333946    Uiso  ? N
   N22        1.0     0.793558     0.418848     0.096301    Uiso  ? N
   N23        1.0     0.558858     0.533856     0.844000    Uiso  ? N
   N24        1.0     0.456162     0.423050     0.587917    Uiso  ? N
   N25        1.0     0.223796     0.872321     0.337950    Uiso  ? N
   N26        1.0     0.109585     0.763108     0.093781    Uiso  ? N
   N27        1.0     0.898729     0.858388     0.836671    Uiso  ? N
   N28        1.0     0.794863     0.749911     0.599567    Uiso  ? N
   N29        1.0     0.557746     0.867962     0.353325    Uiso  ? N
   N30        1.0     0.426730     0.771311     0.076142    Uiso  ? N
   N31        1.0     0.214330     0.877030     0.841905    Uiso  ? N
   N32        1.0     0.106673     0.774282     0.587115    Uiso  ? N
   N33        1.0     0.888195     0.871191     0.345987    Uiso  ? N
   N34        1.0     0.795692     0.753490     0.082108    Uiso  ? N
   N35        1.0     0.557393     0.876489     0.848580    Uiso  ? N
   N36        1.0     0.433755     0.755625     0.604907    Uiso  ? N
