
#======================================================================
# CRYSTAL DATA
#----------------------------------------------------------------------
data_VESTA_phase_1

_chemical_name_common                  'Al   Hf   Mg   N                      '
_cell_length_a                         10.132752
_cell_length_b                         10.116362
_cell_length_c                         8.560010
_cell_angle_alpha                      89.910103
_cell_angle_beta                       89.970345
_cell_angle_gamma                      60.111710
_cell_volume                           760.753381
_space_group_name_H-M_alt              'P 1'
_space_group_IT_number                 1

loop_
_space_group_symop_operation_xyz
   'x, y, z'

loop_
   _atom_site_label
   _atom_site_occupancy
   _atom_site_fract_x
   _atom_site_fract_y
   _atom_site_fract_z
   _atom_site_adp_type
   _atom_site_U_iso_or_equiv
   _atom_site_type_symbol
   Al1        1.0     0.116935     0.088845     0.353968    Uiso  ? Al
   Al2        1.0     0.218576     0.210237     0.103865    Uiso  ? Al
   Al3        1.0     0.895751     0.202319     0.603969    Uiso  ? Al
   Al4        1.0     0.439081     0.098735     0.361702    Uiso  ? Al
   Al5        1.0     0.544756     0.212833     0.112687    Uiso  ? Al
   Al6        1.0     0.117246     0.093400     0.855165    Uiso  ? Al
   Al7        1.0     0.216721     0.208625     0.598037    Uiso  ? Al
   Al8        1.0     0.778422     0.090311     0.351936    Uiso  ? Al
   Al9        1.0     0.897514     0.201739     0.104180    Uiso  ? Al
   Al10       1.0     0.437204     0.099831     0.830492    Uiso  ? Al
   Al11       1.0     0.551045     0.211817     0.587786    Uiso  ? Al
   Al12       1.0     0.114652     0.429358     0.358560    Uiso  ? Al
   Al13       1.0     0.220734     0.538386     0.103705    Uiso  ? Al
   Al14       1.0     0.778147     0.430762     0.856341    Uiso  ? Al
   Al15       1.0     0.895869     0.535716     0.612988    Uiso  ? Al
   Al16       1.0     0.437258     0.433174     0.351121    Uiso  ? Al
   Al17       1.0     0.116009     0.425522     0.848747    Uiso  ? Al
   Al18       1.0     0.899991     0.535708     0.093512    Uiso  ? Al
   Al19       1.0     0.438518     0.430277     0.853708    Uiso  ? Al
   Al20       1.0     0.550794     0.537850     0.613381    Uiso  ? Al
   Al21       1.0     0.115024     0.759350     0.359562    Uiso  ? Al
   Al22       1.0     0.217248     0.873100     0.104674    Uiso  ? Al
   Al23       1.0     0.782722     0.756625     0.840999    Uiso  ? Al
   Al24       1.0     0.895215     0.867971     0.595786    Uiso  ? Al
   Al25       1.0     0.436638     0.763729     0.373096    Uiso  ? Al
   Al26       1.0     0.114733     0.756650     0.850922    Uiso  ? Al
   Al27       1.0     0.217047     0.874671     0.610254    Uiso  ? Al
   Al28       1.0     0.782407     0.760292     0.368171    Uiso  ? Al
   Al29       1.0     0.898082     0.863156     0.113531    Uiso  ? Al
   Al30       1.0     0.439057     0.761117     0.847556    Uiso  ? Al
   Hf1        1.0     0.774308     0.093445     0.854743    Uiso  ? Hf
   Hf2        1.0     0.776243     0.431195     0.351569    Uiso  ? Hf
   Hf3        1.0     0.555235     0.873690     0.103261    Uiso  ? Hf
   Mg1        1.0     0.547850     0.540541     0.096263    Uiso  ? Mg
   Mg2        1.0     0.222879     0.539089     0.603851    Uiso  ? Mg
   Mg3        1.0     0.556090     0.871499     0.603796    Uiso  ? Mg
   N1         1.0     0.217538     0.207360     0.354271    Uiso  ? N
   N2         1.0     0.112280     0.094005     0.103053    Uiso  ? N
   N3         1.0     0.897322     0.209593     0.851804    Uiso  ? N
   N4         1.0     0.777265     0.093857     0.598124    Uiso  ? N
   N5         1.0     0.557666     0.205398     0.353431    Uiso  ? N
   N6         1.0     0.434032     0.108721     0.117953    Uiso  ? N
   N7         1.0     0.223531     0.203702     0.856330    Uiso  ? N
   N8         1.0     0.112432     0.094000     0.602875    Uiso  ? N
   N9         1.0     0.897272     0.190550     0.354407    Uiso  ? N
   N10        1.0     0.778461     0.093451     0.110409    Uiso  ? N
   N11        1.0     0.539573     0.210801     0.859597    Uiso  ? N
   N12        1.0     0.434690     0.111160     0.598998    Uiso  ? N
   N13        1.0     0.219810     0.540688     0.346556    Uiso  ? N
   N14        1.0     0.112388     0.425998     0.101336    Uiso  ? N
   N15        1.0     0.890662     0.538107     0.852719    Uiso  ? N
   N16        1.0     0.780860     0.425963     0.608430    Uiso  ? N
   N17        1.0     0.541372     0.548554     0.358734    Uiso  ? N
   N18        1.0     0.436470     0.423057     0.106287    Uiso  ? N
   N19        1.0     0.221014     0.540171     0.860925    Uiso  ? N
   N20        1.0     0.106366     0.420313     0.605672    Uiso  ? N
   N21        1.0     0.897242     0.545671     0.353412    Uiso  ? N
   N22        1.0     0.792630     0.420630     0.097602    Uiso  ? N
   N23        1.0     0.557604     0.536435     0.845930    Uiso  ? N
   N24        1.0     0.456006     0.420667     0.603530    Uiso  ? N
   N25        1.0     0.221987     0.873153     0.350528    Uiso  ? N
   N26        1.0     0.111255     0.762013     0.104439    Uiso  ? N
   N27        1.0     0.896621     0.858642     0.854223    Uiso  ? N
   N28        1.0     0.794364     0.752635     0.603801    Uiso  ? N
   N29        1.0     0.557382     0.868860     0.357505    Uiso  ? N
   N30        1.0     0.428172     0.770058     0.090950    Uiso  ? N
   N31        1.0     0.216616     0.875383     0.851388    Uiso  ? N
   N32        1.0     0.105008     0.774327     0.600832    Uiso  ? N
   N33        1.0     0.889400     0.871883     0.352549    Uiso  ? N
   N34        1.0     0.794555     0.751403     0.101863    Uiso  ? N
   N35        1.0     0.557464     0.876671     0.849463    Uiso  ? N
   N36        1.0     0.433561     0.756710     0.607398    Uiso  ? N
