
#======================================================================
# CRYSTAL DATA
#----------------------------------------------------------------------
data_VESTA_phase_1

_chemical_name_common                  'Al   Hf   Mg   N                      '
_cell_length_a                         9.925122
_cell_length_b                         9.907816
_cell_length_c                         9.178868
_cell_angle_alpha                      89.889877
_cell_angle_beta                       89.914986
_cell_angle_gamma                      60.112297
_cell_volume                           782.569667
_space_group_name_H-M_alt              'P 1'
_space_group_IT_number                 1

loop_
_space_group_symop_operation_xyz
   'x, y, z'

loop_
   _atom_site_label
   _atom_site_occupancy
   _atom_site_fract_x
   _atom_site_fract_y
   _atom_site_fract_z
   _atom_site_adp_type
   _atom_site_U_iso_or_equiv
   _atom_site_type_symbol
   Al1        1.0     0.115689     0.088568     0.330820    Uiso  ? Al
   Al2        1.0     0.219191     0.209314     0.086098    Uiso  ? Al
   Al3        1.0     0.895686     0.197227     0.588746    Uiso  ? Al
   Al4        1.0     0.439740     0.098784     0.351490    Uiso  ? Al
   Al5        1.0     0.541667     0.214257     0.095607    Uiso  ? Al
   Al6        1.0     0.118587     0.093634     0.832863    Uiso  ? Al
   Al7        1.0     0.215511     0.209918     0.578851    Uiso  ? Al
   Al8        1.0     0.778718     0.091272     0.327650    Uiso  ? Al
   Al9        1.0     0.897083     0.207645     0.083589    Uiso  ? Al
   Al10       1.0     0.435985     0.100815     0.818364    Uiso  ? Al
   Al11       1.0     0.554495     0.210761     0.574635    Uiso  ? Al
   Al12       1.0     0.115327     0.429581     0.331534    Uiso  ? Al
   Al13       1.0     0.220892     0.539780     0.087040    Uiso  ? Al
   Al14       1.0     0.777823     0.432741     0.830874    Uiso  ? Al
   Al15       1.0     0.899343     0.536967     0.591528    Uiso  ? Al
   Al16       1.0     0.435796     0.432988     0.330011    Uiso  ? Al
   Al17       1.0     0.115149     0.424442     0.831987    Uiso  ? Al
   Al18       1.0     0.897625     0.534842     0.076693    Uiso  ? Al
   Al19       1.0     0.439693     0.429431     0.834191    Uiso  ? Al
   Al20       1.0     0.548687     0.538826     0.601488    Uiso  ? Al
   Al21       1.0     0.115994     0.758556     0.336763    Uiso  ? Al
   Al22       1.0     0.216529     0.872918     0.081007    Uiso  ? Al
   Al23       1.0     0.782908     0.756534     0.822285    Uiso  ? Al
   Al24       1.0     0.893143     0.872308     0.574703    Uiso  ? Al
   Al25       1.0     0.435068     0.764586     0.346808    Uiso  ? Al
   Al26       1.0     0.113205     0.757628     0.827710    Uiso  ? Al
   Al27       1.0     0.217164     0.875058     0.584547    Uiso  ? Al
   Al28       1.0     0.783716     0.759941     0.347786    Uiso  ? Al
   Al29       1.0     0.900005     0.859655     0.096080    Uiso  ? Al
   Al30       1.0     0.439950     0.761316     0.826429    Uiso  ? Al
   Hf1        1.0     0.774729     0.092295     0.853253    Uiso  ? Hf
   Hf2        1.0     0.777462     0.428937     0.351011    Uiso  ? Hf
   Hf3        1.0     0.555170     0.873670     0.101579    Uiso  ? Hf
   Mg1        1.0     0.552132     0.538540     0.083884    Uiso  ? Mg
   Mg2        1.0     0.222901     0.537775     0.590010    Uiso  ? Mg
   Mg3        1.0     0.556069     0.871262     0.591603    Uiso  ? Mg
   N1         1.0     0.215367     0.207954     0.370341    Uiso  ? N
   N2         1.0     0.111766     0.093430     0.121816    Uiso  ? N
   N3         1.0     0.897641     0.213320     0.870452    Uiso  ? N
   N4         1.0     0.776212     0.092578     0.620845    Uiso  ? N
   N5         1.0     0.559864     0.206567     0.364865    Uiso  ? N
   N6         1.0     0.431689     0.110775     0.136768    Uiso  ? N
   N7         1.0     0.224958     0.202945     0.876824    Uiso  ? N
   N8         1.0     0.112832     0.094462     0.624989    Uiso  ? N
   N9         1.0     0.898184     0.186120     0.375113    Uiso  ? N
   N10        1.0     0.778588     0.095098     0.112063    Uiso  ? N
   N11        1.0     0.536254     0.210487     0.881556    Uiso  ? N
   N12        1.0     0.435195     0.111646     0.609066    Uiso  ? N
   N13        1.0     0.220533     0.539786     0.361961    Uiso  ? N
   N14        1.0     0.110649     0.427374     0.119860    Uiso  ? N
   N15        1.0     0.888800     0.539856     0.867012    Uiso  ? N
   N16        1.0     0.781412     0.424947     0.612264    Uiso  ? N
   N17        1.0     0.538850     0.546371     0.376381    Uiso  ? N
   N18        1.0     0.435433     0.425366     0.122117    Uiso  ? N
   N19        1.0     0.220445     0.540599     0.872239    Uiso  ? N
   N20        1.0     0.108022     0.417515     0.628036    Uiso  ? N
   N21        1.0     0.900973     0.543929     0.380285    Uiso  ? N
   N22        1.0     0.793177     0.422495     0.120531    Uiso  ? N
   N23        1.0     0.557918     0.538709     0.853674    Uiso  ? N
   N24        1.0     0.457976     0.416549     0.626837    Uiso  ? N
   N25        1.0     0.218106     0.875495     0.375573    Uiso  ? N
   N26        1.0     0.113802     0.760991     0.126135    Uiso  ? N
   N27        1.0     0.897409     0.853200     0.882866    Uiso  ? N
   N28        1.0     0.794519     0.755828     0.615658    Uiso  ? N
   N29        1.0     0.557943     0.870189     0.357228    Uiso  ? N
   N30        1.0     0.426078     0.769226     0.127626    Uiso  ? N
   N31        1.0     0.219468     0.873350     0.872162    Uiso  ? N
   N32        1.0     0.101319     0.777536     0.622086    Uiso  ? N
   N33        1.0     0.889929     0.874996     0.364409    Uiso  ? N
   N34        1.0     0.797228     0.746617     0.131947    Uiso  ? N
   N35        1.0     0.556573     0.875096     0.861078    Uiso  ? N
   N36        1.0     0.432930     0.757978     0.618305    Uiso  ? N
