
#======================================================================
# CRYSTAL DATA
#----------------------------------------------------------------------
data_VESTA_phase_1

_chemical_name_common                  'Al   Hf   Mg   N                      '
_cell_length_a                         9.605426
_cell_length_b                         9.586514
_cell_length_c                         10.102585
_cell_angle_alpha                      89.975357
_cell_angle_beta                       89.976929
_cell_angle_gamma                      60.060101
_cell_volume                           806.126390
_space_group_name_H-M_alt              'P 1'
_space_group_IT_number                 1

loop_
_space_group_symop_operation_xyz
   'x, y, z'

loop_
   _atom_site_label
   _atom_site_occupancy
   _atom_site_fract_x
   _atom_site_fract_y
   _atom_site_fract_z
   _atom_site_adp_type
   _atom_site_U_iso_or_equiv
   _atom_site_type_symbol
   Al1        1.0     0.117117     0.088578     0.313987    Uiso  ? Al
   Al2        1.0     0.216801     0.210376     0.064084    Uiso  ? Al
   Al3        1.0     0.895178     0.199314     0.565257    Uiso  ? Al
   Al4        1.0     0.440452     0.099714     0.318258    Uiso  ? Al
   Al5        1.0     0.545924     0.215015     0.069015    Uiso  ? Al
   Al6        1.0     0.117933     0.093453     0.812616    Uiso  ? Al
   Al7        1.0     0.219908     0.208596     0.565639    Uiso  ? Al
   Al8        1.0     0.777217     0.089452     0.312424    Uiso  ? Al
   Al9        1.0     0.894546     0.206533     0.065869    Uiso  ? Al
   Al10       1.0     0.436125     0.099276     0.807965    Uiso  ? Al
   Al11       1.0     0.550500     0.209568     0.560976    Uiso  ? Al
   Al12       1.0     0.117230     0.428996     0.311953    Uiso  ? Al
   Al13       1.0     0.223427     0.538019     0.065616    Uiso  ? Al
   Al14       1.0     0.777142     0.433905     0.806695    Uiso  ? Al
   Al15       1.0     0.897121     0.539603     0.570074    Uiso  ? Al
   Al16       1.0     0.435060     0.430531     0.312438    Uiso  ? Al
   Al17       1.0     0.112482     0.425947     0.813367    Uiso  ? Al
   Al18       1.0     0.898596     0.532312     0.060367    Uiso  ? Al
   Al19       1.0     0.440670     0.432319     0.810475    Uiso  ? Al
   Al20       1.0     0.547164     0.540984     0.571950    Uiso  ? Al
   Al21       1.0     0.113686     0.759156     0.314194    Uiso  ? Al
   Al22       1.0     0.216510     0.873334     0.063189    Uiso  ? Al
   Al23       1.0     0.782104     0.754109     0.809190    Uiso  ? Al
   Al24       1.0     0.893708     0.868110     0.561892    Uiso  ? Al
   Al25       1.0     0.433685     0.765301     0.317456    Uiso  ? Al
   Al26       1.0     0.115795     0.757342     0.812124    Uiso  ? Al
   Al27       1.0     0.219218     0.872829     0.566203    Uiso  ? Al
   Al28       1.0     0.785114     0.761951     0.317510    Uiso  ? Al
   Al29       1.0     0.898668     0.864700     0.068433    Uiso  ? Al
   Al30       1.0     0.442050     0.758900     0.807385    Uiso  ? Al
   Hf1        1.0     0.776029     0.094061     0.820768    Uiso  ? Hf
   Hf2        1.0     0.777296     0.429729     0.327097    Uiso  ? Hf
   Hf3        1.0     0.555650     0.871483     0.077219    Uiso  ? Hf
   Mg1        1.0     0.553478     0.534764     0.059544    Uiso  ? Mg
   Mg2        1.0     0.221188     0.539419     0.567335    Uiso  ? Mg
   Mg3        1.0     0.555794     0.871941     0.562339    Uiso  ? Mg
   N1         1.0     0.219265     0.207017     0.372621    Uiso  ? N
   N2         1.0     0.111695     0.093863     0.123260    Uiso  ? N
   N3         1.0     0.897448     0.214456     0.873787    Uiso  ? N
   N4         1.0     0.776408     0.093686     0.615103    Uiso  ? N
   N5         1.0     0.556969     0.205756     0.369853    Uiso  ? N
   N6         1.0     0.432085     0.112456     0.127693    Uiso  ? N
   N7         1.0     0.222354     0.204413     0.875262    Uiso  ? N
   N8         1.0     0.112160     0.094392     0.623445    Uiso  ? N
   N9         1.0     0.898211     0.186290     0.374593    Uiso  ? N
   N10        1.0     0.777160     0.094253     0.114940    Uiso  ? N
   N11        1.0     0.537789     0.213136     0.879169    Uiso  ? N
   N12        1.0     0.436628     0.109088     0.621878    Uiso  ? N
   N13        1.0     0.219826     0.541032     0.362339    Uiso  ? N
   N14        1.0     0.111831     0.427047     0.120538    Uiso  ? N
   N15        1.0     0.889054     0.537869     0.871383    Uiso  ? N
   N16        1.0     0.779512     0.426929     0.609511    Uiso  ? N
   N17        1.0     0.536017     0.547779     0.377457    Uiso  ? N
   N18        1.0     0.436518     0.423936     0.126449    Uiso  ? N
   N19        1.0     0.222274     0.539037     0.872432    Uiso  ? N
   N20        1.0     0.105762     0.418571     0.629230    Uiso  ? N
   N21        1.0     0.900913     0.546748     0.378854    Uiso  ? N
   N22        1.0     0.792842     0.422339     0.123214    Uiso  ? N
   N23        1.0     0.558728     0.537631     0.856679    Uiso  ? N
   N24        1.0     0.458340     0.417438     0.625916    Uiso  ? N
   N25        1.0     0.218338     0.874206     0.374973    Uiso  ? N
   N26        1.0     0.112501     0.761346     0.122968    Uiso  ? N
   N27        1.0     0.896927     0.855118     0.879727    Uiso  ? N
   N28        1.0     0.792367     0.755638     0.624090    Uiso  ? N
   N29        1.0     0.557934     0.870770     0.346456    Uiso  ? N
   N30        1.0     0.425796     0.766075     0.129350    Uiso  ? N
   N31        1.0     0.221325     0.873544     0.873707    Uiso  ? N
   N32        1.0     0.101626     0.778476     0.627592    Uiso  ? N
   N33        1.0     0.890764     0.873173     0.370453    Uiso  ? N
   N34        1.0     0.800047     0.747403     0.127288    Uiso  ? N
   N35        1.0     0.555960     0.872866     0.865312    Uiso  ? N
   N36        1.0     0.434064     0.757992     0.621995    Uiso  ? N
