
#======================================================================
# CRYSTAL DATA
#----------------------------------------------------------------------
data_VESTA_phase_1

_chemical_name_common                  'Al   Hf   Mg   N                      '
_cell_length_a                         9.966933
_cell_length_b                         9.949406
_cell_length_c                         9.051606
_cell_angle_alpha                      89.888596
_cell_angle_beta                       89.914047
_cell_angle_gamma                      60.114491
_cell_volume                           778.240720
_space_group_name_H-M_alt              'P 1'
_space_group_IT_number                 1

loop_
_space_group_symop_operation_xyz
   'x, y, z'

loop_
   _atom_site_label
   _atom_site_occupancy
   _atom_site_fract_x
   _atom_site_fract_y
   _atom_site_fract_z
   _atom_site_adp_type
   _atom_site_U_iso_or_equiv
   _atom_site_type_symbol
   Al1        1.0     0.115812     0.088496     0.332583    Uiso  ? Al
   Al2        1.0     0.219384     0.209255     0.088476    Uiso  ? Al
   Al3        1.0     0.895623     0.198144     0.591217    Uiso  ? Al
   Al4        1.0     0.439638     0.098502     0.354103    Uiso  ? Al
   Al5        1.0     0.542119     0.213783     0.098912    Uiso  ? Al
   Al6        1.0     0.118448     0.093776     0.835061    Uiso  ? Al
   Al7        1.0     0.215305     0.209891     0.580145    Uiso  ? Al
   Al8        1.0     0.778802     0.091486     0.330865    Uiso  ? Al
   Al9        1.0     0.897188     0.206718     0.085656    Uiso  ? Al
   Al10       1.0     0.436078     0.100967     0.819482    Uiso  ? Al
   Al11       1.0     0.554228     0.211102     0.575612    Uiso  ? Al
   Al12       1.0     0.115024     0.429525     0.334228    Uiso  ? Al
   Al13       1.0     0.220614     0.539922     0.089947    Uiso  ? Al
   Al14       1.0     0.777873     0.432468     0.835844    Uiso  ? Al
   Al15       1.0     0.898975     0.536433     0.594405    Uiso  ? Al
   Al16       1.0     0.436042     0.433163     0.332001    Uiso  ? Al
   Al17       1.0     0.115649     0.424399     0.833551    Uiso  ? Al
   Al18       1.0     0.897932     0.535283     0.077938    Uiso  ? Al
   Al19       1.0     0.439404     0.429226     0.837165    Uiso  ? Al
   Al20       1.0     0.549486     0.538304     0.605307    Uiso  ? Al
   Al21       1.0     0.116253     0.758694     0.339449    Uiso  ? Al
   Al22       1.0     0.216340     0.872914     0.082535    Uiso  ? Al
   Al23       1.0     0.782950     0.756942     0.823403    Uiso  ? Al
   Al24       1.0     0.893242     0.872190     0.575572    Uiso  ? Al
   Al25       1.0     0.435592     0.764514     0.352404    Uiso  ? Al
   Al26       1.0     0.112915     0.757464     0.829228    Uiso  ? Al
   Al27       1.0     0.216993     0.875297     0.587304    Uiso  ? Al
   Al28       1.0     0.783360     0.759696     0.351212    Uiso  ? Al
   Al29       1.0     0.899782     0.859902     0.099478    Uiso  ? Al
   Al30       1.0     0.439775     0.761500     0.829778    Uiso  ? Al
   Hf1        1.0     0.774540     0.092057     0.854155    Uiso  ? Hf
   Hf2        1.0     0.777343     0.429154     0.351350    Uiso  ? Hf
   Hf3        1.0     0.555224     0.873674     0.102631    Uiso  ? Hf
   Mg1        1.0     0.551390     0.538981     0.086539    Uiso  ? Mg
   Mg2        1.0     0.223115     0.537643     0.591929    Uiso  ? Mg
   Mg3        1.0     0.556050     0.871386     0.594569    Uiso  ? Mg
   N1         1.0     0.215380     0.207816     0.367976    Uiso  ? N
   N2         1.0     0.111812     0.093331     0.119460    Uiso  ? N
   N3         1.0     0.897482     0.212452     0.867783    Uiso  ? N
   N4         1.0     0.776251     0.092610     0.617302    Uiso  ? N
   N5         1.0     0.559620     0.206666     0.362256    Uiso  ? N
   N6         1.0     0.432049     0.110193     0.135195    Uiso  ? N
   N7         1.0     0.225079     0.202976     0.875005    Uiso  ? N
   N8         1.0     0.112783     0.094682     0.623074    Uiso  ? N
   N9         1.0     0.898205     0.186916     0.372676    Uiso  ? N
   N10        1.0     0.778731     0.095184     0.111844    Uiso  ? N
   N11        1.0     0.536828     0.210025     0.879538    Uiso  ? N
   N12        1.0     0.435042     0.111865     0.606323    Uiso  ? N
   N13        1.0     0.220594     0.539723     0.359356    Uiso  ? N
   N14        1.0     0.110599     0.427301     0.118043    Uiso  ? N
   N15        1.0     0.889057     0.540134     0.864150    Uiso  ? N
   N16        1.0     0.781350     0.424910     0.612056    Uiso  ? N
   N17        1.0     0.539516     0.546301     0.373142    Uiso  ? N
   N18        1.0     0.435486     0.425118     0.119391    Uiso  ? N
   N19        1.0     0.220212     0.540759     0.870577    Uiso  ? N
   N20        1.0     0.108199     0.417668     0.625373    Uiso  ? N
   N21        1.0     0.900493     0.543579     0.378294    Uiso  ? N
   N22        1.0     0.793085     0.422457     0.115867    Uiso  ? N
   N23        1.0     0.557689     0.538676     0.851613    Uiso  ? N
   N24        1.0     0.457756     0.416907     0.624535    Uiso  ? N
   N25        1.0     0.218576     0.875458     0.373655    Uiso  ? N
   N26        1.0     0.113697     0.761153     0.124500    Uiso  ? N
   N27        1.0     0.897187     0.853713     0.880869    Uiso  ? N
   N28        1.0     0.794583     0.755784     0.612679    Uiso  ? N
   N29        1.0     0.557746     0.870022     0.357646    Uiso  ? N
   N30        1.0     0.426347     0.769595     0.122179    Uiso  ? N
   N31        1.0     0.218785     0.873523     0.869178    Uiso  ? N
   N32        1.0     0.101469     0.777039     0.619075    Uiso  ? N
   N33        1.0     0.889865     0.874779     0.361702    Uiso  ? N
   N34        1.0     0.796718     0.746840     0.129958    Uiso  ? N
   N35        1.0     0.556903     0.875465     0.858345    Uiso  ? N
   N36        1.0     0.433207     0.757683     0.615857    Uiso  ? N
