
#======================================================================
# CRYSTAL DATA
#----------------------------------------------------------------------
data_VESTA_phase_1

_chemical_name_common                  'Al   Hf   Mg   N                      '
_cell_length_a                         9.602966
_cell_length_b                         9.591663
_cell_length_c                         10.099189
_cell_angle_alpha                      90.015175
_cell_angle_beta                       90.101982
_cell_angle_gamma                      60.057537
_cell_volume                           806.059610
_space_group_name_H-M_alt              'P 1'
_space_group_IT_number                 1

loop_
_space_group_symop_operation_xyz
   'x, y, z'

loop_
   _atom_site_label
   _atom_site_occupancy
   _atom_site_fract_x
   _atom_site_fract_y
   _atom_site_fract_z
   _atom_site_adp_type
   _atom_site_U_iso_or_equiv
   _atom_site_type_symbol
   Al1        1.0     0.117356     0.088429     0.398286    Uiso  ? Al
   Al2        1.0     0.216160     0.210835     0.147111    Uiso  ? Al
   Al3        1.0     0.894412     0.205502     0.645087    Uiso  ? Al
   Al4        1.0     0.440487     0.098703     0.401153    Uiso  ? Al
   Al5        1.0     0.549493     0.213103     0.151691    Uiso  ? Al
   Al6        1.0     0.117353     0.093441     0.896674    Uiso  ? Al
   Al7        1.0     0.219658     0.208047     0.644352    Uiso  ? Al
   Al8        1.0     0.777126     0.089377     0.401542    Uiso  ? Al
   Al9        1.0     0.894751     0.201239     0.145516    Uiso  ? Al
   Al10       1.0     0.435257     0.100824     0.894234    Uiso  ? Al
   Al11       1.0     0.547019     0.211530     0.640112    Uiso  ? Al
   Al12       1.0     0.115508     0.427777     0.398777    Uiso  ? Al
   Al13       1.0     0.223618     0.536559     0.145482    Uiso  ? Al
   Al14       1.0     0.780055     0.432077     0.900254    Uiso  ? Al
   Al15       1.0     0.893764     0.538036     0.649029    Uiso  ? Al
   Al16       1.0     0.440587     0.430218     0.400186    Uiso  ? Al
   Al17       1.0     0.113864     0.427764     0.896946    Uiso  ? Al
   Al18       1.0     0.901195     0.534071     0.142001    Uiso  ? Al
   Al19       1.0     0.435208     0.432402     0.899308    Uiso  ? Al
   Al20       1.0     0.550752     0.539171     0.649950    Uiso  ? Al
   Al21       1.0     0.112255     0.762060     0.397589    Uiso  ? Al
   Al22       1.0     0.216940     0.873505     0.147548    Uiso  ? Al
   Al23       1.0     0.785029     0.752820     0.893120    Uiso  ? Al
   Al24       1.0     0.896006     0.864357     0.640366    Uiso  ? Al
   Al25       1.0     0.436660     0.763392     0.405474    Uiso  ? Al
   Al26       1.0     0.117305     0.754613     0.898488    Uiso  ? Al
   Al27       1.0     0.218957     0.872191     0.645562    Uiso  ? Al
   Al28       1.0     0.781997     0.763628     0.401989    Uiso  ? Al
   Al29       1.0     0.896701     0.868148     0.151370    Uiso  ? Al
   Al30       1.0     0.439123     0.761625     0.892481    Uiso  ? Al
   Hf1        1.0     0.775938     0.094054     0.885765    Uiso  ? Hf
   Hf2        1.0     0.777403     0.430185     0.390602    Uiso  ? Hf
   Hf3        1.0     0.556116     0.871087     0.134421    Uiso  ? Hf
   Mg1        1.0     0.550345     0.536625     0.139006    Uiso  ? Mg
   Mg2        1.0     0.221111     0.539742     0.643480    Uiso  ? Mg
   Mg3        1.0     0.555487     0.873241     0.648406    Uiso  ? Mg
   N1         1.0     0.220373     0.205506     0.336316    Uiso  ? N
   N2         1.0     0.111682     0.093536     0.087396    Uiso  ? N
   N3         1.0     0.898114     0.213493     0.835924    Uiso  ? N
   N4         1.0     0.777400     0.094384     0.597835    Uiso  ? N
   N5         1.0     0.556716     0.204796     0.340803    Uiso  ? N
   N6         1.0     0.433530     0.112746     0.086242    Uiso  ? N
   N7         1.0     0.219959     0.206624     0.837097    Uiso  ? N
   N8         1.0     0.111827     0.094185     0.587498    Uiso  ? N
   N9         1.0     0.896995     0.187228     0.336812    Uiso  ? N
   N10        1.0     0.776345     0.093149     0.093737    Uiso  ? N
   N11        1.0     0.537048     0.214766     0.832190    Uiso  ? N
   N12        1.0     0.434535     0.109110     0.585954    Uiso  ? N
   N13        1.0     0.222133     0.539397     0.338562    Uiso  ? N
   N14        1.0     0.114346     0.425581     0.087565    Uiso  ? N
   N15        1.0     0.891613     0.536388     0.839484    Uiso  ? N
   N16        1.0     0.776830     0.429494     0.597206    Uiso  ? N
   N17        1.0     0.540025     0.548803     0.343779    Uiso  ? N
   N18        1.0     0.436918     0.419267     0.085470    Uiso  ? N
   N19        1.0     0.220074     0.539942     0.848747    Uiso  ? N
   N20        1.0     0.101973     0.419834     0.583398    Uiso  ? N
   N21        1.0     0.897587     0.549523     0.331115    Uiso  ? N
   N22        1.0     0.794312     0.420067     0.092466    Uiso  ? N
   N23        1.0     0.556910     0.536255     0.843706    Uiso  ? N
   N24        1.0     0.458351     0.421991     0.584936    Uiso  ? N
   N25        1.0     0.222228     0.873189     0.336763    Uiso  ? N
   N26        1.0     0.110451     0.762139     0.090478    Uiso  ? N
   N27        1.0     0.899603     0.854677     0.832760    Uiso  ? N
   N28        1.0     0.792122     0.752193     0.587130    Uiso  ? N
   N29        1.0     0.555467     0.871676     0.346206    Uiso  ? N
   N30        1.0     0.424470     0.768900     0.079533    Uiso  ? N
   N31        1.0     0.217635     0.874492     0.837172    Uiso  ? N
   N32        1.0     0.104755     0.776214     0.581779    Uiso  ? N
   N33        1.0     0.888065     0.873581     0.339320    Uiso  ? N
   N34        1.0     0.800297     0.751045     0.083247    Uiso  ? N
   N35        1.0     0.557913     0.873188     0.864207    Uiso  ? N
   N36        1.0     0.435730     0.755466     0.592355    Uiso  ? N
