
#======================================================================
# CRYSTAL DATA
#----------------------------------------------------------------------
data_VESTA_phase_1

_chemical_name_common                  'Al   Hf   Mg   N                      '
_cell_length_a                         9.602973
_cell_length_b                         9.591666
_cell_length_c                         10.099181
_cell_angle_alpha                      90.015160
_cell_angle_beta                       90.101936
_cell_angle_gamma                      60.057518
_cell_volume                           806.059648
_space_group_name_H-M_alt              'P 1'
_space_group_IT_number                 1

loop_
_space_group_symop_operation_xyz
   'x, y, z'

loop_
   _atom_site_label
   _atom_site_occupancy
   _atom_site_fract_x
   _atom_site_fract_y
   _atom_site_fract_z
   _atom_site_adp_type
   _atom_site_U_iso_or_equiv
   _atom_site_type_symbol
   Al1        1.0     0.117345     0.088437     0.405614    Uiso  ? Al
   Al2        1.0     0.216149     0.210842     0.154440    Uiso  ? Al
   Al3        1.0     0.894401     0.205510     0.652416    Uiso  ? Al
   Al4        1.0     0.440475     0.098711     0.408482    Uiso  ? Al
   Al5        1.0     0.549482     0.213110     0.159021    Uiso  ? Al
   Al6        1.0     0.117342     0.093449     0.904002    Uiso  ? Al
   Al7        1.0     0.219647     0.208055     0.651681    Uiso  ? Al
   Al8        1.0     0.777115     0.089385     0.408872    Uiso  ? Al
   Al9        1.0     0.894740     0.201246     0.152845    Uiso  ? Al
   Al10       1.0     0.435246     0.100832     0.901563    Uiso  ? Al
   Al11       1.0     0.547007     0.211538     0.647440    Uiso  ? Al
   Al12       1.0     0.115498     0.427784     0.406105    Uiso  ? Al
   Al13       1.0     0.223607     0.536567     0.152810    Uiso  ? Al
   Al14       1.0     0.780044     0.432085     0.907584    Uiso  ? Al
   Al15       1.0     0.893753     0.538043     0.656358    Uiso  ? Al
   Al16       1.0     0.440575     0.430226     0.407515    Uiso  ? Al
   Al17       1.0     0.113853     0.427772     0.904274    Uiso  ? Al
   Al18       1.0     0.901184     0.534079     0.149330    Uiso  ? Al
   Al19       1.0     0.435197     0.432409     0.906637    Uiso  ? Al
   Al20       1.0     0.550741     0.539178     0.657279    Uiso  ? Al
   Al21       1.0     0.112244     0.762067     0.404918    Uiso  ? Al
   Al22       1.0     0.216929     0.873513     0.154875    Uiso  ? Al
   Al23       1.0     0.785018     0.752827     0.900449    Uiso  ? Al
   Al24       1.0     0.895996     0.864365     0.647695    Uiso  ? Al
   Al25       1.0     0.436649     0.763400     0.412802    Uiso  ? Al
   Al26       1.0     0.117293     0.754621     0.905816    Uiso  ? Al
   Al27       1.0     0.218946     0.872199     0.652890    Uiso  ? Al
   Al28       1.0     0.781986     0.763636     0.409318    Uiso  ? Al
   Al29       1.0     0.896689     0.868156     0.158699    Uiso  ? Al
   Al30       1.0     0.439112     0.761632     0.899810    Uiso  ? Al
   Hf1        1.0     0.775927     0.094062     0.893094    Uiso  ? Hf
   Hf2        1.0     0.777392     0.430193     0.397930    Uiso  ? Hf
   Hf3        1.0     0.556105     0.871095     0.141749    Uiso  ? Hf
   Mg1        1.0     0.550333     0.536633     0.146334    Uiso  ? Mg
   Mg2        1.0     0.221100     0.539750     0.650808    Uiso  ? Mg
   Mg3        1.0     0.555476     0.873248     0.655736    Uiso  ? Mg
   N1         1.0     0.220362     0.205514     0.343644    Uiso  ? N
   N2         1.0     0.111671     0.093544     0.094725    Uiso  ? N
   N3         1.0     0.898103     0.213501     0.843253    Uiso  ? N
   N4         1.0     0.777389     0.094391     0.605165    Uiso  ? N
   N5         1.0     0.556705     0.204803     0.348132    Uiso  ? N
   N6         1.0     0.433519     0.112754     0.093571    Uiso  ? N
   N7         1.0     0.219948     0.206631     0.844426    Uiso  ? N
   N8         1.0     0.111816     0.094193     0.594827    Uiso  ? N
   N9         1.0     0.896984     0.187236     0.344141    Uiso  ? N
   N10        1.0     0.776334     0.093157     0.101066    Uiso  ? N
   N11        1.0     0.537037     0.214773     0.839518    Uiso  ? N
   N12        1.0     0.434524     0.109118     0.593283    Uiso  ? N
   N13        1.0     0.222122     0.539405     0.345891    Uiso  ? N
   N14        1.0     0.114335     0.425589     0.094893    Uiso  ? N
   N15        1.0     0.891601     0.536396     0.846812    Uiso  ? N
   N16        1.0     0.776819     0.429502     0.604534    Uiso  ? N
   N17        1.0     0.540014     0.548811     0.351108    Uiso  ? N
   N18        1.0     0.436907     0.419274     0.092799    Uiso  ? N
   N19        1.0     0.220064     0.539950     0.856075    Uiso  ? N
   N20        1.0     0.101962     0.419842     0.590727    Uiso  ? N
   N21        1.0     0.897576     0.549531     0.338444    Uiso  ? N
   N22        1.0     0.794302     0.420074     0.099796    Uiso  ? N
   N23        1.0     0.556899     0.536263     0.851035    Uiso  ? N
   N24        1.0     0.458340     0.421999     0.592265    Uiso  ? N
   N25        1.0     0.222217     0.873196     0.344091    Uiso  ? N
   N26        1.0     0.110440     0.762147     0.097807    Uiso  ? N
   N27        1.0     0.899592     0.854684     0.840089    Uiso  ? N
   N28        1.0     0.792111     0.752201     0.594459    Uiso  ? N
   N29        1.0     0.555456     0.871684     0.353534    Uiso  ? N
   N30        1.0     0.424459     0.768908     0.086861    Uiso  ? N
   N31        1.0     0.217624     0.874500     0.844500    Uiso  ? N
   N32        1.0     0.104745     0.776222     0.589108    Uiso  ? N
   N33        1.0     0.888053     0.873589     0.346650    Uiso  ? N
   N34        1.0     0.800286     0.751053     0.090576    Uiso  ? N
   N35        1.0     0.557902     0.873195     0.871537    Uiso  ? N
   N36        1.0     0.435719     0.755474     0.599684    Uiso  ? N
