
#======================================================================
# CRYSTAL DATA
#----------------------------------------------------------------------
data_VESTA_phase_1

_chemical_name_common                  'Al   Hf   Mg   N                      '
_cell_length_a                         9.637430
_cell_length_b                         9.626765
_cell_length_c                         10.004800
_cell_angle_alpha                      89.981216
_cell_angle_beta                       90.068909
_cell_angle_gamma                      60.065968
_cell_volume                           804.393229
_space_group_name_H-M_alt              'P 1'
_space_group_IT_number                 1

loop_
_space_group_symop_operation_xyz
   'x, y, z'

loop_
   _atom_site_label
   _atom_site_occupancy
   _atom_site_fract_x
   _atom_site_fract_y
   _atom_site_fract_z
   _atom_site_adp_type
   _atom_site_U_iso_or_equiv
   _atom_site_type_symbol
   Al1        1.0     0.117383     0.088328     0.383841    Uiso  ? Al
   Al2        1.0     0.216111     0.210958     0.132648    Uiso  ? Al
   Al3        1.0     0.894701     0.206961     0.629812    Uiso  ? Al
   Al4        1.0     0.440464     0.098571     0.386500    Uiso  ? Al
   Al5        1.0     0.550054     0.212527     0.136852    Uiso  ? Al
   Al6        1.0     0.117217     0.093640     0.882331    Uiso  ? Al
   Al7        1.0     0.219655     0.207945     0.630355    Uiso  ? Al
   Al8        1.0     0.777222     0.088988     0.388481    Uiso  ? Al
   Al9        1.0     0.895130     0.199331     0.130956    Uiso  ? Al
   Al10       1.0     0.435170     0.101114     0.879460    Uiso  ? Al
   Al11       1.0     0.546123     0.212170     0.625700    Uiso  ? Al
   Al12       1.0     0.115414     0.427715     0.385156    Uiso  ? Al
   Al13       1.0     0.223389     0.536384     0.131310    Uiso  ? Al
   Al14       1.0     0.780480     0.431772     0.887883    Uiso  ? Al
   Al15       1.0     0.893486     0.537275     0.634155    Uiso  ? Al
   Al16       1.0     0.440565     0.430461     0.385188    Uiso  ? Al
   Al17       1.0     0.114024     0.427801     0.881893    Uiso  ? Al
   Al18       1.0     0.902016     0.534733     0.127820    Uiso  ? Al
   Al19       1.0     0.435050     0.432163     0.884878    Uiso  ? Al
   Al20       1.0     0.552095     0.538368     0.635134    Uiso  ? Al
   Al21       1.0     0.112143     0.762206     0.382821    Uiso  ? Al
   Al22       1.0     0.216946     0.873580     0.133088    Uiso  ? Al
   Al23       1.0     0.785380     0.752514     0.877955    Uiso  ? Al
   Al24       1.0     0.896956     0.863158     0.626462    Uiso  ? Al
   Al25       1.0     0.436569     0.763408     0.391271    Uiso  ? Al
   Al26       1.0     0.117451     0.754414     0.884424    Uiso  ? Al
   Al27       1.0     0.218648     0.872393     0.631369    Uiso  ? Al
   Al28       1.0     0.781916     0.763599     0.387832    Uiso  ? Al
   Al29       1.0     0.896180     0.868586     0.136384    Uiso  ? Al
   Al30       1.0     0.438865     0.761842     0.876555    Uiso  ? Al
   Hf1        1.0     0.776154     0.094148     0.867536    Uiso  ? Hf
   Hf2        1.0     0.776615     0.430267     0.370989    Uiso  ? Hf
   Hf3        1.0     0.555982     0.871197     0.118236    Uiso  ? Hf
   Mg1        1.0     0.548541     0.537872     0.122506    Uiso  ? Mg
   Mg2        1.0     0.221512     0.539955     0.628345    Uiso  ? Mg
   Mg3        1.0     0.555681     0.873277     0.633183    Uiso  ? Mg
   N1         1.0     0.220168     0.205705     0.323221    Uiso  ? N
   N2         1.0     0.111661     0.093552     0.074259    Uiso  ? N
   N3         1.0     0.898284     0.214738     0.822720    Uiso  ? N
   N4         1.0     0.777633     0.094246     0.587108    Uiso  ? N
   N5         1.0     0.557341     0.204411     0.327771    Uiso  ? N
   N6         1.0     0.433334     0.112948     0.073044    Uiso  ? N
   N7         1.0     0.220033     0.206484     0.824108    Uiso  ? N
   N8         1.0     0.112150     0.094137     0.574360    Uiso  ? N
   N9         1.0     0.897253     0.185639     0.323941    Uiso  ? N
   N10        1.0     0.776330     0.092985     0.077995    Uiso  ? N
   N11        1.0     0.536371     0.215202     0.819014    Uiso  ? N
   N12        1.0     0.434413     0.109190     0.572956    Uiso  ? N
   N13        1.0     0.221885     0.539297     0.325791    Uiso  ? N
   N14        1.0     0.114477     0.425498     0.073971    Uiso  ? N
   N15        1.0     0.891321     0.535876     0.826508    Uiso  ? N
   N16        1.0     0.777052     0.429572     0.580324    Uiso  ? N
   N17        1.0     0.538522     0.549874     0.329343    Uiso  ? N
   N18        1.0     0.436519     0.418995     0.072571    Uiso  ? N
   N19        1.0     0.220215     0.540135     0.835243    Uiso  ? N
   N20        1.0     0.102391     0.419736     0.571292    Uiso  ? N
   N21        1.0     0.898175     0.549971     0.318355    Uiso  ? N
   N22        1.0     0.794499     0.419840     0.082786    Uiso  ? N
   N23        1.0     0.557894     0.535564     0.831082    Uiso  ? N
   N24        1.0     0.458748     0.422075     0.571581    Uiso  ? N
   N25        1.0     0.222352     0.873273     0.323644    Uiso  ? N
   N26        1.0     0.110468     0.762044     0.077752    Uiso  ? N
   N27        1.0     0.900391     0.853779     0.819903    Uiso  ? N
   N28        1.0     0.792439     0.751940     0.574648    Uiso  ? N
   N29        1.0     0.555521     0.871546     0.332549    Uiso  ? N
   N30        1.0     0.423806     0.769681     0.065295    Uiso  ? N
   N31        1.0     0.216999     0.874873     0.823963    Uiso  ? N
   N32        1.0     0.104936     0.776302     0.568470    Uiso  ? N
   N33        1.0     0.887618     0.873923     0.326194    Uiso  ? N
   N34        1.0     0.800429     0.750902     0.069716    Uiso  ? N
   N35        1.0     0.558123     0.873367     0.850956    Uiso  ? N
   N36        1.0     0.435832     0.755236     0.580148    Uiso  ? N
