
#======================================================================
# CRYSTAL DATA
#----------------------------------------------------------------------
data_VESTA_phase_1

_chemical_name_common                  'Al   Hf   Mg   N                      '
_cell_length_a                         10.081383
_cell_length_b                         10.063589
_cell_length_c                         8.708327
_cell_angle_alpha                      89.896248
_cell_angle_beta                       89.925102
_cell_angle_gamma                      60.115688
_cell_volume                           766.024597
_space_group_name_H-M_alt              'P 1'
_space_group_IT_number                 1

loop_
_space_group_symop_operation_xyz
   'x, y, z'

loop_
   _atom_site_label
   _atom_site_occupancy
   _atom_site_fract_x
   _atom_site_fract_y
   _atom_site_fract_z
   _atom_site_adp_type
   _atom_site_U_iso_or_equiv
   _atom_site_type_symbol
   Al1        1.0     0.116565     0.088480     0.341595    Uiso  ? Al
   Al2        1.0     0.219346     0.209599     0.096263    Uiso  ? Al
   Al3        1.0     0.895515     0.201151     0.599474    Uiso  ? Al
   Al4        1.0     0.439309     0.098197     0.359133    Uiso  ? Al
   Al5        1.0     0.543765     0.212985     0.108038    Uiso  ? Al
   Al6        1.0     0.117660     0.093967     0.843904    Uiso  ? Al
   Al7        1.0     0.215862     0.209281     0.587051    Uiso  ? Al
   Al8        1.0     0.778716     0.091402     0.343546    Uiso  ? Al
   Al9        1.0     0.897338     0.203613     0.095318    Uiso  ? Al
   Al10       1.0     0.436706     0.100633     0.825043    Uiso  ? Al
   Al11       1.0     0.552535     0.211640     0.581448    Uiso  ? Al
   Al12       1.0     0.114670     0.429269     0.345772    Uiso  ? Al
   Al13       1.0     0.220403     0.539544     0.098993    Uiso  ? Al
   Al14       1.0     0.777836     0.431636     0.850763    Uiso  ? Al
   Al15       1.0     0.897297     0.535705     0.603463    Uiso  ? Al
   Al16       1.0     0.436861     0.433315     0.342347    Uiso  ? Al
   Al17       1.0     0.116328     0.424836     0.839706    Uiso  ? Al
   Al18       1.0     0.899158     0.535897     0.084350    Uiso  ? Al
   Al19       1.0     0.438777     0.429564     0.847235    Uiso  ? Al
   Al20       1.0     0.551074     0.537449     0.613417    Uiso  ? Al
   Al21       1.0     0.116251     0.759042     0.349282    Uiso  ? Al
   Al22       1.0     0.216260     0.873027     0.091616    Uiso  ? Al
   Al23       1.0     0.782702     0.757460     0.829792    Uiso  ? Al
   Al24       1.0     0.893869     0.870457     0.582064    Uiso  ? Al
   Al25       1.0     0.436907     0.763895     0.371827    Uiso  ? Al
   Al26       1.0     0.113028     0.756909     0.837231    Uiso  ? Al
   Al27       1.0     0.216829     0.875349     0.599609    Uiso  ? Al
   Al28       1.0     0.782624     0.759488     0.359565    Uiso  ? Al
   Al29       1.0     0.899012     0.861401     0.107794    Uiso  ? Al
   Al30       1.0     0.439257     0.761252     0.844712    Uiso  ? Al
   Hf1        1.0     0.774259     0.092123     0.855266    Uiso  ? Hf
   Hf2        1.0     0.776718     0.430186     0.351886    Uiso  ? Hf
   Hf3        1.0     0.555295     0.873571     0.103794    Uiso  ? Hf
   Mg1        1.0     0.548952     0.540093     0.094039    Uiso  ? Mg
   Mg2        1.0     0.223275     0.537927     0.598335    Uiso  ? Mg
   Mg3        1.0     0.556117     0.871668     0.601538    Uiso  ? Mg
   N1         1.0     0.216457     0.207265     0.360459    Uiso  ? N
   N2         1.0     0.112134     0.093384     0.111179    Uiso  ? N
   N3         1.0     0.896999     0.210366     0.858613    Uiso  ? N
   N4         1.0     0.776780     0.093053     0.604905    Uiso  ? N
   N5         1.0     0.558541     0.206306     0.355962    Uiso  ? N
   N6         1.0     0.433457     0.108809     0.127219    Uiso  ? N
   N7         1.0     0.224697     0.203440     0.867071    Uiso  ? N
   N8         1.0     0.112488     0.095020     0.614106    Uiso  ? N
   N9         1.0     0.897977     0.189433     0.362496    Uiso  ? N
   N10        1.0     0.778695     0.094824     0.111510    Uiso  ? N
   N11        1.0     0.538672     0.209825     0.869659    Uiso  ? N
   N12        1.0     0.434693     0.111868     0.600829    Uiso  ? N
   N13        1.0     0.220524     0.539910     0.351445    Uiso  ? N
   N14        1.0     0.111033     0.426885     0.111236    Uiso  ? N
   N15        1.0     0.889863     0.540023     0.856401    Uiso  ? N
   N16        1.0     0.780787     0.425351     0.610474    Uiso  ? N
   N17        1.0     0.540719     0.547752     0.362700    Uiso  ? N
   N18        1.0     0.435873     0.424007     0.111298    Uiso  ? N
   N19        1.0     0.220117     0.540735     0.864941    Uiso  ? N
   N20        1.0     0.107869     0.418763     0.615047    Uiso  ? N
   N21        1.0     0.898608     0.543585     0.368626    Uiso  ? N
   N22        1.0     0.792854     0.421891     0.102551    Uiso  ? N
   N23        1.0     0.557629     0.537214     0.847561    Uiso  ? N
   N24        1.0     0.456849     0.419004     0.613315    Uiso  ? N
   N25        1.0     0.221365     0.874157     0.363389    Uiso  ? N
   N26        1.0     0.112818     0.761524     0.116704    Uiso  ? N
   N27        1.0     0.896586     0.855971     0.870581    Uiso  ? N
   N28        1.0     0.794486     0.754885     0.605816    Uiso  ? N
   N29        1.0     0.556602     0.869123     0.358169    Uiso  ? N
   N30        1.0     0.427562     0.770161     0.096509    Uiso  ? N
   N31        1.0     0.216194     0.874724     0.858192    Uiso  ? N
   N32        1.0     0.102758     0.775300     0.608952    Uiso  ? N
   N33        1.0     0.889604     0.873597     0.355468    Uiso  ? N
   N34        1.0     0.795202     0.748646     0.119948    Uiso  ? N
   N35        1.0     0.558320     0.876636     0.851908    Uiso  ? N
   N36        1.0     0.433981     0.756710     0.610203    Uiso  ? N
