# generated using pymatgen
data_GdAl17N18
_symmetry_space_group_name_H-M   'P 1'
_cell_length_a   9.53292655
_cell_length_b   9.53292555
_cell_length_c   10.07310732
_cell_angle_alpha   89.99999834
_cell_angle_beta   90.00000159
_cell_angle_gamma   60.00001007
_symmetry_Int_Tables_number   1
_chemical_formula_structural   GdAl17N18
_chemical_formula_sum   'Gd2 Al34 N36'
_cell_volume   792.76886370
_cell_formula_units_Z   2
loop_
 _symmetry_equiv_pos_site_id
 _symmetry_equiv_pos_as_xyz
  1  'x, y, z'
loop_
 _atom_site_type_symbol
 _atom_site_label
 _atom_site_symmetry_multiplicity
 _atom_site_fract_x
 _atom_site_fract_y
 _atom_site_fract_z
 _atom_site_occupancy
  Al  Al0  1  0.11099458  0.09432786  0.38426369  1
  Al  Al1  1  0.22222221  0.20555558  0.13409011  1
  Al  Al2  1  0.77683686  0.09632625  0.89032416  1
  Al  Al3  1  0.89329339  0.20753238  0.63367988  1
  Al  Al4  1  0.44467752  0.09432788  0.38426368  1
  Al  Al5  1  0.55419802  0.20443224  0.13329118  1
  Al  Al6  1  0.11157904  0.09491236  0.88309681  1
  Al  Al7  1  0.22222222  0.20555556  0.63200950  1
  Al  Al8  1  0.77312582  0.10374833  0.37866526  1
  Al  Al9  1  0.89136975  0.20443223  0.13329118  1
  Al  Al10  1  0.44350857  0.09491236  0.88309681  1
  Al  Al11  1  0.54917419  0.20753242  0.63367988  1
  Al  Al12  1  0.11099456  0.42801088  0.38426369  1
  Al  Al13  1  0.22109888  0.53753139  0.13329118  1
  Al  Al14  1  0.77900971  0.42716181  0.89071795  1
  Al  Al15  1  0.89329338  0.53250757  0.63367989  1
  Al  Al16  1  0.43951965  0.42285300  0.37825930  1
  Al  Al17  1  0.55555558  0.53888889  0.13576945  1
  Al  Al18  1  0.11157902  0.42684193  0.88309681  1
  Al  Al19  1  0.22419907  0.53250759  0.63367990  1
  Al  Al20  1  0.78762738  0.42285297  0.37825928  1
  Al  Al21  1  0.89136974  0.53753141  0.13329118  1
  Al  Al22  1  0.44382846  0.42716182  0.89071794  1
  Al  Al23  1  0.12041495  0.75645919  0.37866527  1
  Al  Al24  1  0.22109891  0.87470307  0.13329119  1
  Al  Al25  1  0.77683687  0.76017024  0.89032416  1
  Al  Al26  1  0.43951969  0.77096061  0.37825932  1
  Al  Al27  1  0.55419803  0.87470308  0.13329119  1
  Al  Al28  1  0.11299287  0.76017023  0.89032417  1
  Al  Al29  1  0.22419911  0.87662661  0.63367990  1
  Al  Al30  1  0.77312583  0.75645919  0.37866527  1
  Al  Al31  1  0.88888888  0.87222227  0.13609230  1
  Al  Al32  1  0.44382849  0.76234300  0.89071793  1
  Al  Al33  1  0.54917422  0.87662665  0.63367990  1
  Gd  Gd34  1  0.55555569  0.53888876  0.62235236  1
  Gd  Gd35  1  0.88888886  0.87222227  0.62402043  1
  N  N36  1  0.22222223  0.20555556  0.32638761  1
  N  N37  1  0.11180899  0.09514234  0.07328821  1
  N  N38  1  0.88823012  0.20602790  0.82690572  1
  N  N39  1  0.75981525  0.13036942  0.56683169  1
  N  N40  1  0.55407941  0.20329300  0.32072481  1
  N  N41  1  0.44304862  0.09514235  0.07328820  1
  N  N42  1  0.22222222  0.20555556  0.82342416  1
  N  N43  1  0.11053600  0.09386924  0.57603661  1
  N  N44  1  0.89262761  0.20329298  0.32072480  1
  N  N45  1  0.77708550  0.09582895  0.08024809  1
  N  N46  1  0.55574199  0.20602789  0.82690573  1
  N  N47  1  0.44559470  0.09386928  0.57603661  1
  N  N48  1  0.21995968  0.53741277  0.32072480  1
  N  N49  1  0.11180898  0.42638201  0.07328820  1
  N  N50  1  0.88823011  0.53907535  0.82690573  1
  N  N51  1  0.81194886  0.41069223  0.56372347  1
  N  N52  1  0.55555561  0.53888885  0.33317649  1
  N  N53  1  0.44361971  0.42695309  0.08037644  1
  N  N54  1  0.22269456  0.53907535  0.82690574  1
  N  N55  1  0.11053597  0.42892806  0.57603661  1
  N  N56  1  0.89262760  0.53741277  0.32072480  1
  N  N57  1  0.77942719  0.42695309  0.08037645  1
  N  N58  1  0.55555558  0.53888886  0.84715770  1
  N  N59  1  0.42735893  0.41069230  0.56372349  1
  N  N60  1  0.21995971  0.87596088  0.32072481  1
  N  N61  1  0.11249554  0.76041891  0.08024811  1
  N  N62  1  0.88888888  0.87222225  0.84710531  1
  N  N63  1  0.75981530  0.74314867  0.56683170  1
  N  N64  1  0.55407941  0.87596090  0.32072482  1
  N  N65  1  0.44361974  0.76276051  0.08037644  1
  N  N66  1  0.22269458  0.87156343  0.82690574  1
  N  N67  1  0.14703594  0.74314868  0.56683170  1
  N  N68  1  0.88888888  0.87222226  0.33484657  1
  N  N69  1  0.77708552  0.76041892  0.08024810  1
  N  N70  1  0.55574200  0.87156344  0.82690573  1
  N  N71  1  0.42735899  0.79528197  0.56372353  1
