# generated using pymatgen
data_GdAl17N18
_symmetry_space_group_name_H-M   'P 1'
_cell_length_a   9.51749690
_cell_length_b   9.51749693
_cell_length_c   10.11229566
_cell_angle_alpha   90.00000014
_cell_angle_beta   89.99999994
_cell_angle_gamma   60.00000146
_symmetry_Int_Tables_number   1
_chemical_formula_structural   GdAl17N18
_chemical_formula_sum   'Gd2 Al34 N36'
_cell_volume   793.27887005
_cell_formula_units_Z   2
loop_
 _symmetry_equiv_pos_site_id
 _symmetry_equiv_pos_as_xyz
  1  'x, y, z'
loop_
 _atom_site_type_symbol
 _atom_site_label
 _atom_site_symmetry_multiplicity
 _atom_site_fract_x
 _atom_site_fract_y
 _atom_site_fract_z
 _atom_site_occupancy
  Al  Al0  1  0.11104540  0.09437874  0.39139690  1
  Al  Al1  1  0.22222223  0.20555556  0.14106552  1
  Al  Al2  1  0.77668678  0.09662643  0.89797659  1
  Al  Al3  1  0.89328016  0.20751947  0.64058690  1
  Al  Al4  1  0.44457585  0.09437873  0.39139689  1
  Al  Al5  1  0.55418928  0.20447135  0.14092411  1
  Al  Al6  1  0.11149880  0.09483214  0.89031748  1
  Al  Al7  1  0.22222222  0.20555555  0.63939381  1
  Al  Al8  1  0.77339523  0.10320955  0.38608104  1
  Al  Al9  1  0.89133937  0.20447136  0.14092411  1
  Al  Al10  1  0.44366904  0.09483213  0.89031748  1
  Al  Al11  1  0.54920034  0.20751947  0.64058689  1
  Al  Al12  1  0.11104540  0.42790919  0.39139689  1
  Al  Al13  1  0.22113802  0.53752261  0.14092411  1
  Al  Al14  1  0.77930806  0.42701263  0.89824614  1
  Al  Al15  1  0.89328017  0.53253367  0.64058690  1
  Al  Al16  1  0.43980365  0.42313699  0.38562496  1
  Al  Al17  1  0.55555556  0.53888890  0.14268278  1
  Al  Al18  1  0.11149880  0.42700238  0.89031748  1
  Al  Al19  1  0.22418613  0.53253367  0.64058690  1
  Al  Al20  1  0.78705934  0.42313699  0.38562496  1
  Al  Al21  1  0.89133937  0.53752263  0.14092411  1
  Al  Al22  1  0.44367929  0.42701262  0.89824614  1
  Al  Al23  1  0.11987622  0.75672856  0.38608104  1
  Al  Al24  1  0.22113803  0.87467271  0.14092411  1
  Al  Al25  1  0.77668679  0.76002012  0.89797659  1
  Al  Al26  1  0.43980366  0.77039267  0.38562496  1
  Al  Al27  1  0.55418930  0.87467271  0.14092411  1
  Al  Al28  1  0.11329310  0.76002012  0.89797659  1
  Al  Al29  1  0.22418613  0.87661350  0.64058690  1
  Al  Al30  1  0.77339522  0.75672856  0.38608104  1
  Al  Al31  1  0.88888890  0.87222224  0.14307839  1
  Al  Al32  1  0.44367930  0.76264140  0.89824614  1
  Al  Al33  1  0.54920034  0.87661351  0.64058690  1
  Gd  Gd34  1  0.55555555  0.53888889  0.63145149  1
  Gd  Gd35  1  0.88888889  0.87222222  0.63331418  1
  N  N36  1  0.22222222  0.20555556  0.33280717  1
  N  N37  1  0.11171183  0.09504516  0.08003379  1
  N  N38  1  0.88815759  0.20604246  0.83338609  1
  N  N39  1  0.76015077  0.12969842  0.57353850  1
  N  N40  1  0.55412970  0.20335582  0.32774845  1
  N  N41  1  0.44324300  0.09504517  0.08003379  1
  N  N42  1  0.22222222  0.20555555  0.83028853  1
  N  N43  1  0.11063482  0.09396815  0.58264246  1
  N  N44  1  0.89251448  0.20335583  0.32774846  1
  N  N45  1  0.77694454  0.09611094  0.08717813  1
  N  N46  1  0.55579995  0.20604245  0.83338609  1
  N  N47  1  0.44539701  0.09396815  0.58264246  1
  N  N48  1  0.22002249  0.53746303  0.32774845  1
  N  N49  1  0.11171184  0.42657633  0.08003379  1
  N  N50  1  0.88815759  0.53913329  0.83338609  1
  N  N51  1  0.81132732  0.41100299  0.57042710  1
  N  N52  1  0.55555556  0.53888889  0.33932393  1
  N  N53  1  0.44349454  0.42682787  0.08721116  1
  N  N54  1  0.22270911  0.53913328  0.83338609  1
  N  N55  1  0.11063481  0.42873035  0.58264246  1
  N  N56  1  0.89251447  0.53746303  0.32774846  1
  N  N57  1  0.77967760  0.42682788  0.08721116  1
  N  N58  1  0.55555555  0.53888888  0.85517822  1
  N  N59  1  0.42766966  0.41100300  0.57042709  1
  N  N60  1  0.22002250  0.87584781  0.32774846  1
  N  N61  1  0.11277761  0.76027787  0.08717813  1
  N  N62  1  0.88888889  0.87222223  0.85532838  1
  N  N63  1  0.76015079  0.74348412  0.57353849  1
  N  N64  1  0.55412969  0.87584781  0.32774846  1
  N  N65  1  0.44349455  0.76301093  0.08721116  1
  N  N66  1  0.22270913  0.87149092  0.83338609  1
  N  N67  1  0.14636509  0.74348410  0.57353850  1
  N  N68  1  0.88888890  0.87222223  0.34100593  1
  N  N69  1  0.77694455  0.76027788  0.08717813  1
  N  N70  1  0.55579996  0.87149092  0.83338609  1
  N  N71  1  0.42766966  0.79466066  0.57042710  1
