# generated using pymatgen
data_GdAl17N18
_symmetry_space_group_name_H-M   'P 1'
_cell_length_a   9.51730804
_cell_length_b   9.51730804
_cell_length_c   10.11276643
_cell_angle_alpha   90.00000018
_cell_angle_beta   90.00000015
_cell_angle_gamma   60.00000146
_symmetry_Int_Tables_number   1
_chemical_formula_structural   GdAl17N18
_chemical_formula_sum   'Gd2 Al34 N36'
_cell_volume   793.28431298
_cell_formula_units_Z   2
loop_
 _symmetry_equiv_pos_site_id
 _symmetry_equiv_pos_as_xyz
  1  'x, y, z'
loop_
 _atom_site_type_symbol
 _atom_site_label
 _atom_site_symmetry_multiplicity
 _atom_site_fract_x
 _atom_site_fract_y
 _atom_site_fract_z
 _atom_site_occupancy
  Al  Al0  1  0.11104751  0.09438084  0.40770491  1
  Al  Al1  1  0.22222223  0.20555556  0.15736617  1
  Al  Al2  1  0.77668008  0.09663983  0.91430277  1
  Al  Al3  1  0.89327807  0.20751883  0.65688518  1
  Al  Al4  1  0.44457164  0.09438084  0.40770490  1
  Al  Al5  1  0.55418696  0.20447176  0.15724799  1
  Al  Al6  1  0.11149629  0.09482963  0.90662463  1
  Al  Al7  1  0.22222222  0.20555555  0.65570760  1
  Al  Al8  1  0.77340521  0.10318958  0.40239067  1
  Al  Al9  1  0.89134128  0.20447177  0.15724800  1
  Al  Al10  1  0.44367406  0.09482962  0.90662463  1
  Al  Al11  1  0.54920306  0.20751884  0.65688517  1
  Al  Al12  1  0.11104750  0.42790497  0.40770490  1
  Al  Al13  1  0.22113842  0.53752030  0.15724799  1
  Al  Al14  1  0.77932108  0.42700612  0.91456840  1
  Al  Al15  1  0.89327808  0.53253639  0.65688518  1
  Al  Al16  1  0.43981315  0.42314648  0.40193539  1
  Al  Al17  1  0.55555556  0.53888889  0.15897294  1
  Al  Al18  1  0.11149629  0.42700739  0.90662463  1
  Al  Al19  1  0.22418550  0.53253639  0.65688517  1
  Al  Al20  1  0.78704035  0.42314649  0.40193539  1
  Al  Al21  1  0.89134128  0.53752031  0.15724799  1
  Al  Al22  1  0.44367278  0.42700611  0.91456839  1
  Al  Al23  1  0.11985625  0.75673854  0.40239067  1
  Al  Al24  1  0.22113844  0.87467461  0.15724800  1
  Al  Al25  1  0.77668009  0.76001342  0.91430276  1
  Al  Al26  1  0.43981316  0.77037368  0.40193539  1
  Al  Al27  1  0.55418698  0.87467461  0.15724799  1
  Al  Al28  1  0.11330649  0.76001342  0.91430277  1
  Al  Al29  1  0.22418550  0.87661141  0.65688518  1
  Al  Al30  1  0.77340521  0.75673854  0.40239067  1
  Al  Al31  1  0.88888890  0.87222224  0.15936811  1
  Al  Al32  1  0.44367279  0.76265442  0.91456840  1
  Al  Al33  1  0.54920306  0.87661141  0.65688518  1
  Gd  Gd34  1  0.55555555  0.53888888  0.64782088  1
  Gd  Gd35  1  0.88888888  0.87222222  0.64968891  1
  N  N36  1  0.22222222  0.20555555  0.34910105  1
  N  N37  1  0.11170919  0.09504252  0.09633681  1
  N  N38  1  0.88815492  0.20604299  0.84968264  1
  N  N39  1  0.76016354  0.12967287  0.58984034  1
  N  N40  1  0.55413032  0.20335681  0.34406306  1
  N  N41  1  0.44324829  0.09504252  0.09633680  1
  N  N42  1  0.22222222  0.20555555  0.84659559  1
  N  N43  1  0.11063787  0.09397121  0.59894343  1
  N  N44  1  0.89251286  0.20335682  0.34406306  1
  N  N45  1  0.77693773  0.09612454  0.10349151  1
  N  N46  1  0.55580209  0.20604297  0.84968264  1
  N  N47  1  0.44539090  0.09397120  0.59894343  1
  N  N48  1  0.22002348  0.53746366  0.34406306  1
  N  N49  1  0.11170919  0.42658162  0.09633680  1
  N  N50  1  0.88815492  0.53913543  0.84968264  1
  N  N51  1  0.81130431  0.41101450  0.58673146  1
  N  N52  1  0.55555556  0.53888889  0.35560359  1
  N  N53  1  0.44348845  0.42682178  0.10352170  1
  N  N54  1  0.22270964  0.53913543  0.84968264  1
  N  N55  1  0.11063787  0.42872423  0.59894343  1
  N  N56  1  0.89251285  0.53746365  0.34406306  1
  N  N57  1  0.77968978  0.42682179  0.10352170  1
  N  N58  1  0.55555555  0.53888888  0.87153388  1
  N  N59  1  0.42768117  0.41101450  0.58673145  1
  N  N60  1  0.22002349  0.87584619  0.34406306  1
  N  N61  1  0.11279120  0.76027107  0.10349151  1
  N  N62  1  0.88888889  0.87222222  0.87169023  1
  N  N63  1  0.76016356  0.74349689  0.58984033  1
  N  N64  1  0.55413032  0.87584619  0.34406306  1
  N  N65  1  0.44348845  0.76302311  0.10352170  1
  N  N66  1  0.22270965  0.87148825  0.84968264  1
  N  N67  1  0.14633954  0.74349688  0.58984034  1
  N  N68  1  0.88888890  0.87222223  0.35728200  1
  N  N69  1  0.77693775  0.76027108  0.10349151  1
  N  N70  1  0.55580210  0.87148825  0.84968264  1
  N  N71  1  0.42768116  0.79463765  0.58673146  1
