# generated using pymatgen
data_GdAl17N18
_symmetry_space_group_name_H-M   'P 1'
_cell_length_a   9.51732897
_cell_length_b   9.51732896
_cell_length_c   10.11272841
_cell_angle_alpha   90.00000015
_cell_angle_beta   90.00000020
_cell_angle_gamma   60.00000153
_symmetry_Int_Tables_number   1
_chemical_formula_structural   GdAl17N18
_chemical_formula_sum   'Gd2 Al34 N36'
_cell_volume   793.28482013
_cell_formula_units_Z   2
loop_
 _symmetry_equiv_pos_site_id
 _symmetry_equiv_pos_as_xyz
  1  'x, y, z'
loop_
 _atom_site_type_symbol
 _atom_site_label
 _atom_site_symmetry_multiplicity
 _atom_site_fract_x
 _atom_site_fract_y
 _atom_site_fract_z
 _atom_site_occupancy
  Al  Al0  1  0.11104745  0.09438078  0.40407353  1
  Al  Al1  1  0.22222223  0.20555556  0.15373495  1
  Al  Al2  1  0.77668089  0.09663822  0.91067266  1
  Al  Al3  1  0.89327881  0.20751893  0.65325631  1
  Al  Al4  1  0.44457175  0.09438078  0.40407353  1
  Al  Al5  1  0.55418763  0.20447170  0.15361703  1
  Al  Al6  1  0.11149635  0.09482969  0.90299490  1
  Al  Al7  1  0.22222222  0.20555555  0.65207800  1
  Al  Al8  1  0.77340399  0.10319202  0.39876518  1
  Al  Al9  1  0.89134068  0.20447171  0.15361703  1
  Al  Al10  1  0.44367394  0.09482968  0.90299490  1
  Al  Al11  1  0.54920223  0.20751893  0.65325631  1
  Al  Al12  1  0.11104745  0.42790509  0.40407353  1
  Al  Al13  1  0.22113837  0.53752096  0.15361703  1
  Al  Al14  1  0.77931982  0.42700675  0.91093790  1
  Al  Al15  1  0.89327882  0.53253556  0.65325631  1
  Al  Al16  1  0.43981217  0.42314550  0.39830666  1
  Al  Al17  1  0.55555556  0.53888890  0.15534840  1
  Al  Al18  1  0.11149635  0.42700727  0.90299490  1
  Al  Al19  1  0.22418559  0.53253556  0.65325631  1
  Al  Al20  1  0.78704231  0.42314551  0.39830666  1
  Al  Al21  1  0.89134068  0.53752097  0.15361703  1
  Al  Al22  1  0.44367341  0.42700675  0.91093790  1
  Al  Al23  1  0.11985869  0.75673732  0.39876518  1
  Al  Al24  1  0.22113838  0.87467401  0.15361703  1
  Al  Al25  1  0.77668089  0.76001422  0.91067265  1
  Al  Al26  1  0.43981218  0.77037564  0.39830666  1
  Al  Al27  1  0.55418764  0.87467401  0.15361703  1
  Al  Al28  1  0.11330488  0.76001422  0.91067266  1
  Al  Al29  1  0.22418559  0.87661214  0.65325631  1
  Al  Al30  1  0.77340399  0.75673732  0.39876518  1
  Al  Al31  1  0.88888890  0.87222224  0.15574650  1
  Al  Al32  1  0.44367342  0.76265315  0.91093790  1
  Al  Al33  1  0.54920223  0.87661215  0.65325631  1
  Gd  Gd34  1  0.55555555  0.53888888  0.64418759  1
  Gd  Gd35  1  0.88888888  0.87222222  0.64605612  1
  N  N36  1  0.22222222  0.20555555  0.34547142  1
  N  N37  1  0.11170919  0.09504252  0.09270788  1
  N  N38  1  0.88815518  0.20604291  0.84605490  1
  N  N39  1  0.76016230  0.12967535  0.58621465  1
  N  N40  1  0.55413085  0.20335672  0.34043379  1
  N  N41  1  0.44324828  0.09504253  0.09270788  1
  N  N42  1  0.22222222  0.20555555  0.84296674  1
  N  N43  1  0.11063776  0.09397109  0.59531420  1
  N  N44  1  0.89251243  0.20335673  0.34043380  1
  N  N45  1  0.77693881  0.09612239  0.09986302  1
  N  N46  1  0.55580191  0.20604290  0.84605490  1
  N  N47  1  0.44539112  0.09397109  0.59531420  1
  N  N48  1  0.22002338  0.53746418  0.34043379  1
  N  N49  1  0.11170919  0.42658161  0.09270788  1
  N  N50  1  0.88815518  0.53913525  0.84605490  1
  N  N51  1  0.81130609  0.41101361  0.58310340  1
  N  N52  1  0.55555556  0.53888889  0.35197943  1
  N  N53  1  0.44348920  0.42682253  0.09989294  1
  N  N54  1  0.22270957  0.53913524  0.84605490  1
  N  N55  1  0.11063776  0.42872446  0.59531420  1
  N  N56  1  0.89251243  0.53746418  0.34043380  1
  N  N57  1  0.77968827  0.42682254  0.09989294  1
  N  N58  1  0.55555555  0.53888888  0.86790142  1
  N  N59  1  0.42768028  0.41101362  0.58310339  1
  N  N60  1  0.22002339  0.87584576  0.34043380  1
  N  N61  1  0.11278905  0.76027214  0.09986302  1
  N  N62  1  0.88888889  0.87222222  0.86805758  1
  N  N63  1  0.76016232  0.74349565  0.58621464  1
  N  N64  1  0.55413084  0.87584576  0.34043380  1
  N  N65  1  0.44348921  0.76302160  0.09989294  1
  N  N66  1  0.22270958  0.87148851  0.84605490  1
  N  N67  1  0.14634202  0.74349564  0.58621465  1
  N  N68  1  0.88888890  0.87222223  0.35366104  1
  N  N69  1  0.77693882  0.76027215  0.09986302  1
  N  N70  1  0.55580192  0.87148851  0.84605490  1
  N  N71  1  0.42768028  0.79463942  0.58310340  1
