# generated using pymatgen
data_GdAl17N18
_symmetry_space_group_name_H-M   'P 1'
_cell_length_a   9.83629927
_cell_length_b   9.83630362
_cell_length_c   9.22748872
_cell_angle_alpha   89.99999318
_cell_angle_beta   89.99999732
_cell_angle_gamma   60.00000867
_symmetry_Int_Tables_number   1
_chemical_formula_structural   GdAl17N18
_chemical_formula_sum   'Gd2 Al34 N36'
_cell_volume   773.17508737
_cell_formula_units_Z   2
loop_
 _symmetry_equiv_pos_site_id
 _symmetry_equiv_pos_as_xyz
  1  'x, y, z'
loop_
 _atom_site_type_symbol
 _atom_site_label
 _atom_site_symmetry_multiplicity
 _atom_site_fract_x
 _atom_site_fract_y
 _atom_site_fract_z
 _atom_site_occupancy
  Al  Al0  1  0.11272140  0.09605469  0.33457987  1
  Al  Al1  1  0.22222219  0.20555545  0.07882521  1
  Al  Al2  1  0.77313306  0.10373382  0.84472074  1
  Al  Al3  1  0.89235244  0.20717082  0.58067204  1
  Al  Al4  1  0.44122385  0.09605474  0.33457949  1
  Al  Al5  1  0.55282431  0.20379030  0.08570378  1
  Al  Al6  1  0.11029768  0.09363109  0.83093595  1
  Al  Al7  1  0.22222236  0.20555560  0.58834354  1
  Al  Al8  1  0.77589136  0.09821702  0.32516455  1
  Al  Al9  1  0.89338537  0.20379029  0.08570395  1
  Al  Al10  1  0.44607129  0.09363104  0.83093631  1
  Al  Al11  1  0.55047669  0.20717055  0.58067199  1
  Al  Al12  1  0.11272143  0.42455719  0.33457947  1
  Al  Al13  1  0.22045708  0.53615753  0.08570372  1
  Al  Al14  1  0.78861791  0.42235769  0.84337947  1
  Al  Al15  1  0.89235273  0.53380986  0.58067217  1
  Al  Al16  1  0.44298236  0.42631567  0.32423595  1
  Al  Al17  1  0.55555559  0.53888879  0.08902636  1
  Al  Al18  1  0.11029774  0.42940448  0.83093646  1
  Al  Al19  1  0.22383771  0.53380978  0.58067233  1
  Al  Al20  1  0.78070186  0.42631566  0.32423592  1
  Al  Al21  1  0.89338521  0.53615781  0.08570398  1
  Al  Al22  1  0.43902453  0.42235749  0.84337924  1
  Al  Al23  1  0.11488370  0.75922473  0.32516428  1
  Al  Al24  1  0.22045686  0.87671888  0.08570378  1
  Al  Al25  1  0.77313309  0.75646650  0.84472046  1
  Al  Al26  1  0.44298234  0.76403520  0.32423549  1
  Al  Al27  1  0.55282450  0.87671873  0.08570387  1
  Al  Al28  1  0.12040073  0.75646631  0.84472077  1
  Al  Al29  1  0.22383782  0.87568578  0.58067218  1
  Al  Al30  1  0.77589134  0.75922476  0.32516506  1
  Al  Al31  1  0.88888875  0.87222218  0.09034052  1
  Al  Al32  1  0.43902443  0.77195148  0.84337973  1
  Al  Al33  1  0.55047646  0.87568633  0.58067196  1
  Gd  Gd34  1  0.55555534  0.53888927  0.60020452  1
  Gd  Gd35  1  0.88888903  0.87222229  0.59992055  1
  N  N36  1  0.22222218  0.20555566  0.38020666  1
  N  N37  1  0.11318539  0.09651873  0.12771323  1
  N  N38  1  0.89398085  0.20250052  0.88117984  1
  N  N39  1  0.76047410  0.12905181  0.63223993  1
  N  N40  1  0.55534622  0.20582809  0.36950871  1
  N  N41  1  0.44029577  0.09651877  0.12771284  1
  N  N42  1  0.22222215  0.20555549  0.86867698  1
  N  N43  1  0.10962636  0.09295984  0.62193190  1
  N  N44  1  0.88882551  0.20582809  0.36950869  1
  N  N45  1  0.77630261  0.09739471  0.11815750  1
  N  N46  1  0.55351875  0.20250051  0.88117986  1
  N  N47  1  0.44741368  0.09295987  0.62193231  1
  N  N48  1  0.22249465  0.53867971  0.36950878  1
  N  N49  1  0.11318542  0.42362912  0.12771280  1
  N  N50  1  0.89398067  0.53685219  0.88117982  1
  N  N51  1  0.81093673  0.41119828  0.63450764  1
  N  N52  1  0.55555547  0.53888898  0.34805612  1
  N  N53  1  0.44284211  0.42617539  0.11780123  1
  N  N54  1  0.21916730  0.53685192  0.88117978  1
  N  N55  1  0.10962645  0.43074705  0.62193243  1
  N  N56  1  0.88882571  0.53867943  0.36950875  1
  N  N57  1  0.78098248  0.42617538  0.11780119  1
  N  N58  1  0.55555554  0.53888889  0.87266603  1
  N  N59  1  0.42786479  0.41119851  0.63450760  1
  N  N60  1  0.22249480  0.87215877  0.36950868  1
  N  N61  1  0.11406148  0.75963585  0.11815732  1
  N  N62  1  0.88888899  0.87222214  0.87212094  1
  N  N63  1  0.76047412  0.74380744  0.63223939  1
  N  N64  1  0.55534597  0.87215901  0.36950866  1
  N  N65  1  0.44284208  0.76431579  0.11780081  1
  N  N66  1  0.21916706  0.87731436  0.88117985  1
  N  N67  1  0.14571890  0.74380721  0.63224035  1
  N  N68  1  0.88888897  0.87222219  0.34870738  1
  N  N69  1  0.77630262  0.75963588  0.11815795  1
  N  N70  1  0.55351896  0.87731415  0.88117992  1
  N  N71  1  0.42786457  0.79427039  0.63450814  1
