# generated using pymatgen
data_GdAl17N18
_symmetry_space_group_name_H-M   'P 1'
_cell_length_a   9.64112108
_cell_length_b   9.64112101
_cell_length_c   9.78617101
_cell_angle_alpha   89.99999723
_cell_angle_beta   89.99999491
_cell_angle_gamma   60.00000006
_symmetry_Int_Tables_number   1
_chemical_formula_structural   GdAl17N18
_chemical_formula_sum   'Gd2 Al34 N36'
_cell_volume   787.76830532
_cell_formula_units_Z   2
loop_
 _symmetry_equiv_pos_site_id
 _symmetry_equiv_pos_as_xyz
  1  'x, y, z'
loop_
 _atom_site_type_symbol
 _atom_site_label
 _atom_site_symmetry_multiplicity
 _atom_site_fract_x
 _atom_site_fract_y
 _atom_site_fract_z
 _atom_site_occupancy
  Al  Al0  1  0.11076050  0.09409388  0.38287443  1
  Al  Al1  1  0.22222229  0.20555553  0.13330890  1
  Al  Al2  1  0.77686362  0.09627270  0.88782264  1
  Al  Al3  1  0.89293541  0.20753191  0.63263172  1
  Al  Al4  1  0.44514568  0.09409382  0.38287455  1
  Al  Al5  1  0.55378264  0.20413023  0.13001842  1
  Al  Al6  1  0.11199036  0.09532375  0.88058472  1
  Al  Al7  1  0.22222238  0.20555548  0.62877275  1
  Al  Al8  1  0.77263984  0.10472019  0.37475542  1
  Al  Al9  1  0.89208706  0.20413030  0.13001840  1
  Al  Al10  1  0.44268604  0.09532363  0.88058460  1
  Al  Al11  1  0.54953276  0.20753159  0.63263181  1
  Al  Al12  1  0.11076050  0.42847894  0.38287449  1
  Al  Al13  1  0.22079694  0.53711594  0.13001837  1
  Al  Al14  1  0.77888779  0.42722278  0.88858608  1
  Al  Al15  1  0.89293539  0.53286601  0.63263173  1
  Al  Al16  1  0.43882197  0.42215518  0.37482484  1
  Al  Al17  1  0.55555558  0.53888890  0.13237268  1
  Al  Al18  1  0.11199035  0.42601924  0.88058466  1
  Al  Al19  1  0.22419890  0.53286571  0.63263168  1
  Al  Al20  1  0.78902282  0.42215525  0.37482488  1
  Al  Al21  1  0.89208710  0.53711596  0.13001841  1
  Al  Al22  1  0.44388951  0.42722268  0.88858609  1
  Al  Al23  1  0.12138676  0.75597328  0.37475536  1
  Al  Al24  1  0.22079699  0.87542040  0.13001837  1
  Al  Al25  1  0.77686361  0.76019702  0.88782269  1
  Al  Al26  1  0.43882197  0.77235618  0.37482490  1
  Al  Al27  1  0.55378263  0.87542045  0.13001844  1
  Al  Al28  1  0.11293930  0.76019702  0.88782266  1
  Al  Al29  1  0.22419891  0.87626872  0.63263168  1
  Al  Al30  1  0.77263983  0.75597328  0.37475537  1
  Al  Al31  1  0.88888886  0.87222226  0.13208453  1
  Al  Al32  1  0.44388952  0.76222113  0.88858604  1
  Al  Al33  1  0.54953278  0.87626897  0.63263181  1
  Gd  Gd34  1  0.55555559  0.53888884  0.61519077  1
  Gd  Gd35  1  0.88888856  0.87222234  0.61618314  1
  N  N36  1  0.22222216  0.20555559  0.33032932  1
  N  N37  1  0.11233643  0.09566972  0.07518507  1
  N  N38  1  0.88840369  0.20600881  0.83035398  1
  N  N39  1  0.75941650  0.13116719  0.56910213  1
  N  N40  1  0.55378912  0.20289288  0.32210780  1
  N  N41  1  0.44199380  0.09566977  0.07518503  1
  N  N42  1  0.22222217  0.20555558  0.82454696  1
  N  N43  1  0.11011357  0.09344690  0.57905914  1
  N  N44  1  0.89331806  0.20289284  0.32210785  1
  N  N45  1  0.77705323  0.09589363  0.08258893  1
  N  N46  1  0.55558758  0.20600888  0.83035400  1
  N  N47  1  0.44643949  0.09344692  0.57905921  1
  N  N48  1  0.21955944  0.53712255  0.32210788  1
  N  N49  1  0.11233644  0.42532716  0.07518501  1
  N  N50  1  0.88840366  0.53892088  0.83035398  1
  N  N51  1  0.81277765  0.41027783  0.56634072  1
  N  N52  1  0.55555552  0.53888893  0.33534604  1
  N  N53  1  0.44356022  0.42689366  0.08301078  1
  N  N54  1  0.22267546  0.53892095  0.83035397  1
  N  N55  1  0.11011356  0.42977288  0.57905921  1
  N  N56  1  0.89331810  0.53712239  0.32210785  1
  N  N57  1  0.77954615  0.42689360  0.08301076  1
  N  N58  1  0.55555554  0.53888890  0.84835054  1
  N  N59  1  0.42694396  0.41027840  0.56634066  1
  N  N60  1  0.21955947  0.87665131  0.32210789  1
  N  N61  1  0.11256034  0.76038649  0.08258890  1
  N  N62  1  0.88888898  0.87222218  0.84771080  1
  N  N63  1  0.75941648  0.74274962  0.56910206  1
  N  N64  1  0.55378908  0.87665133  0.32210781  1
  N  N65  1  0.44356022  0.76287947  0.08301073  1
  N  N66  1  0.22267545  0.87173695  0.83035397  1
  N  N67  1  0.14783393  0.74274970  0.56910212  1
  N  N68  1  0.88888895  0.87222220  0.33653238  1
  N  N69  1  0.77705324  0.76038648  0.08258899  1
  N  N70  1  0.55558760  0.87173688  0.83035399  1
  N  N71  1  0.42694393  0.79611094  0.56634073  1
