# generated using pymatgen
data_GdAl17N18
_symmetry_space_group_name_H-M   'P 1'
_cell_length_a   9.51734698
_cell_length_b   9.51734697
_cell_length_c   10.11266898
_cell_angle_alpha   90.00000008
_cell_angle_beta   90.00000017
_cell_angle_gamma   60.00000150
_symmetry_Int_Tables_number   1
_chemical_formula_structural   GdAl17N18
_chemical_formula_sum   'Gd2 Al34 N36'
_cell_volume   793.28316114
_cell_formula_units_Z   2
loop_
 _symmetry_equiv_pos_site_id
 _symmetry_equiv_pos_as_xyz
  1  'x, y, z'
loop_
 _atom_site_type_symbol
 _atom_site_label
 _atom_site_symmetry_multiplicity
 _atom_site_fract_x
 _atom_site_fract_y
 _atom_site_fract_z
 _atom_site_occupancy
  Al  Al0  1  0.11104713  0.09438047  0.40018486  1
  Al  Al1  1  0.22222223  0.20555556  0.14984763  1
  Al  Al2  1  0.77668148  0.09663704  0.90677904  1
  Al  Al3  1  0.89327845  0.20751901  0.64936696  1
  Al  Al4  1  0.44457239  0.09438046  0.40018486  1
  Al  Al5  1  0.55418743  0.20447164  0.14972485  1
  Al  Al6  1  0.11149676  0.09483010  0.89910506  1
  Al  Al7  1  0.22222222  0.20555555  0.64818690  1
  Al  Al8  1  0.77340315  0.10319370  0.39486967  1
  Al  Al9  1  0.89134094  0.20447165  0.14972485  1
  Al  Al10  1  0.44367312  0.09483009  0.89910506  1
  Al  Al11  1  0.54920250  0.20751901  0.64936696  1
  Al  Al12  1  0.11104713  0.42790572  0.40018486  1
  Al  Al13  1  0.22113831  0.53752076  0.14972485  1
  Al  Al14  1  0.77931837  0.42700748  0.90704544  1
  Al  Al15  1  0.89327846  0.53253584  0.64936696  1
  Al  Al16  1  0.43981118  0.42314452  0.39441421  1
  Al  Al17  1  0.55555556  0.53888890  0.15145595  1
  Al  Al18  1  0.11149676  0.42700646  0.89910507  1
  Al  Al19  1  0.22418568  0.53253583  0.64936696  1
  Al  Al20  1  0.78704428  0.42314453  0.39441421  1
  Al  Al21  1  0.89134094  0.53752077  0.14972485  1
  Al  Al22  1  0.44367414  0.42700747  0.90704544  1
  Al  Al23  1  0.11986037  0.75673648  0.39486967  1
  Al  Al24  1  0.22113832  0.87467427  0.14972485  1
  Al  Al25  1  0.77668148  0.76001482  0.90677904  1
  Al  Al26  1  0.43981119  0.77037761  0.39441421  1
  Al  Al27  1  0.55418744  0.87467427  0.14972485  1
  Al  Al28  1  0.11330370  0.76001481  0.90677905  1
  Al  Al29  1  0.22418568  0.87661179  0.64936696  1
  Al  Al30  1  0.77340315  0.75673648  0.39486967  1
  Al  Al31  1  0.88888890  0.87222224  0.15185137  1
  Al  Al32  1  0.44367414  0.76265170  0.90704544  1
  Al  Al33  1  0.54920250  0.87661180  0.64936696  1
  Gd  Gd34  1  0.55555555  0.53888888  0.64028748  1
  Gd  Gd35  1  0.88888889  0.87222222  0.64215448  1
  N  N36  1  0.22222222  0.20555555  0.34158376  1
  N  N37  1  0.11170971  0.09504304  0.08881793  1
  N  N38  1  0.88815547  0.20604288  0.84216488  1
  N  N39  1  0.76016087  0.12967823  0.58232107  1
  N  N40  1  0.55413014  0.20335655  0.33654156  1
  N  N41  1  0.44324724  0.09504304  0.08881792  1
  N  N42  1  0.22222222  0.20555555  0.83907615  1
  N  N43  1  0.11063729  0.09397062  0.59142479  1
  N  N44  1  0.89251330  0.20335656  0.33654157  1
  N  N45  1  0.77693912  0.09612176  0.09597037  1
  N  N46  1  0.55580165  0.20604287  0.84216488  1
  N  N47  1  0.44539207  0.09397062  0.59142478  1
  N  N48  1  0.22002322  0.53746347  0.33654156  1
  N  N49  1  0.11170971  0.42658058  0.08881792  1
  N  N50  1  0.88815547  0.53913499  0.84216488  1
  N  N51  1  0.81130916  0.41101207  0.57921162  1
  N  N52  1  0.55555556  0.53888889  0.34808887  1
  N  N53  1  0.44348967  0.42682301  0.09600111  1
  N  N54  1  0.22270954  0.53913498  0.84216488  1
  N  N55  1  0.11063728  0.42872541  0.59142479  1
  N  N56  1  0.89251330  0.53746347  0.33654157  1
  N  N57  1  0.77968733  0.42682301  0.09600111  1
  N  N58  1  0.55555555  0.53888888  0.86400365  1
  N  N59  1  0.42767875  0.41101208  0.57921162  1
  N  N60  1  0.22002323  0.87584663  0.33654157  1
  N  N61  1  0.11278843  0.76027246  0.09597037  1
  N  N62  1  0.88888889  0.87222222  0.86415875  1
  N  N63  1  0.76016088  0.74349422  0.58232106  1
  N  N64  1  0.55413014  0.87584663  0.33654157  1
  N  N65  1  0.44348968  0.76302066  0.09600111  1
  N  N66  1  0.22270955  0.87148880  0.84216488  1
  N  N67  1  0.14634489  0.74349420  0.58232107  1
  N  N68  1  0.88888890  0.87222223  0.34976809  1
  N  N69  1  0.77693913  0.76027247  0.09597037  1
  N  N70  1  0.55580166  0.87148880  0.84216488  1
  N  N71  1  0.42767874  0.79464249  0.57921163  1
