# generated using pymatgen
data_GdAl17N18
_symmetry_space_group_name_H-M   'P 1'
_cell_length_a   10.00314696
_cell_length_b   10.00314671
_cell_length_c   8.73068385
_cell_angle_alpha   89.99998231
_cell_angle_beta   89.99997221
_cell_angle_gamma   60.00000657
_symmetry_Int_Tables_number   1
_chemical_formula_structural   GdAl17N18
_chemical_formula_sum   'Gd2 Al34 N36'
_cell_volume   756.57538978
_cell_formula_units_Z   2
loop_
 _symmetry_equiv_pos_site_id
 _symmetry_equiv_pos_as_xyz
  1  'x, y, z'
loop_
 _atom_site_type_symbol
 _atom_site_label
 _atom_site_symmetry_multiplicity
 _atom_site_fract_x
 _atom_site_fract_y
 _atom_site_fract_z
 _atom_site_occupancy
  Al  Al0  1  0.11058912  0.09392279  0.36501751  1
  Al  Al1  1  0.22222231  0.20555571  0.11926513  1
  Al  Al2  1  0.77506592  0.09986837  0.87323323  1
  Al  Al3  1  0.89321345  0.20606893  0.61738493  1
  Al  Al4  1  0.44548807  0.09392262  0.36501944  1
  Al  Al5  1  0.55288388  0.20413217  0.11217945  1
  Al  Al6  1  0.11265275  0.09598614  0.86557573  1
  Al  Al7  1  0.22222217  0.20555545  0.61084272  1
  Al  Al8  1  0.77385761  0.10228449  0.35028183  1
  Al  Al9  1  0.89298370  0.20413229  0.11218026  1
  Al  Al10  1  0.44136133  0.09598601  0.86557590  1
  Al  Al11  1  0.55071804  0.20606863  0.61738495  1
  Al  Al12  1  0.11058898  0.42882166  0.36501964  1
  Al  Al13  1  0.22079880  0.53621722  0.11217804  1
  Al  Al14  1  0.78278645  0.42527348  0.87415676  1
  Al  Al15  1  0.89321311  0.53405135  0.61738720  1
  Al  Al16  1  0.43995877  0.42329230  0.35283822  1
  Al  Al17  1  0.55555547  0.53888906  0.10884005  1
  Al  Al18  1  0.11265283  0.42469429  0.86557593  1
  Al  Al19  1  0.22273533  0.53405103  0.61738384  1
  Al  Al20  1  0.78675001  0.42329176  0.35284053  1
  Al  Al21  1  0.89298409  0.53621713  0.11218131  1
  Al  Al22  1  0.44194005  0.42527305  0.87415391  1
  Al  Al23  1  0.11894982  0.75719153  0.35027841  1
  Al  Al24  1  0.22079911  0.87631694  0.11217759  1
  Al  Al25  1  0.77506608  0.75839940  0.87323594  1
  Al  Al26  1  0.43995903  0.77008194  0.35283809  1
  Al  Al27  1  0.55288374  0.87631729  0.11218006  1
  Al  Al28  1  0.11653548  0.75839902  0.87322966  1
  Al  Al29  1  0.22273511  0.87654718  0.61738200  1
  Al  Al30  1  0.77385742  0.75719061  0.35028373  1
  Al  Al31  1  0.88888885  0.87222229  0.10754665  1
  Al  Al32  1  0.44193997  0.76612047  0.87415259  1
  Al  Al33  1  0.55071844  0.87654654  0.61738538  1
  Gd  Gd34  1  0.55555618  0.53888839  0.60458764  1
  Gd  Gd35  1  0.88888833  0.87222233  0.60425318  1
  N  N36  1  0.22222230  0.20555580  0.34955322  1
  N  N37  1  0.11325807  0.09659168  0.09244832  1
  N  N38  1  0.89032786  0.20496212  0.85106713  1
  N  N39  1  0.76195706  0.12608614  0.59159353  1
  N  N40  1  0.55406851  0.20312360  0.33722072  1
  N  N41  1  0.44015029  0.09659148  0.09244686  1
  N  N42  1  0.22222229  0.20555537  0.83871162  1
  N  N43  1  0.10993939  0.09327314  0.59564287  1
  N  N44  1  0.89280766  0.20312326  0.33722031  1
  N  N45  1  0.77598317  0.09803363  0.09896030  1
  N  N46  1  0.55471067  0.20496143  0.85106758  1
  N  N47  1  0.44678780  0.09327272  0.59564334  1
  N  N48  1  0.21978989  0.53740248  0.33722148  1
  N  N49  1  0.11325804  0.42348359  0.09244674  1
  N  N50  1  0.89032737  0.53804420  0.85106637  1
  N  N51  1  0.80805555  0.41263906  0.58917646  1
  N  N52  1  0.55555563  0.53888899  0.33542414  1
  N  N53  1  0.44255273  0.42588597  0.09913371  1
  N  N54  1  0.22162858  0.53804306  0.85106869  1
  N  N55  1  0.10993924  0.43012101  0.59564358  1
  N  N56  1  0.89280830  0.53740174  0.33721943  1
  N  N57  1  0.78156141  0.42588604  0.09913350  1
  N  N58  1  0.55555580  0.53888871  0.87017760  1
  N  N59  1  0.42930600  0.41263921  0.58918020  1
  N  N60  1  0.21979027  0.87614042  0.33722214  1
  N  N61  1  0.11470008  0.75931659  0.09896039  1
  N  N62  1  0.88888863  0.87222224  0.86953522  1
  N  N63  1  0.76195701  0.74528987  0.59158985  1
  N  N64  1  0.55406801  0.87614131  0.33722050  1
  N  N65  1  0.44255280  0.76489466  0.09913315  1
  N  N66  1  0.22162822  0.87366208  0.85106898  1
  N  N67  1  0.14275182  0.74529066  0.59159875  1
  N  N68  1  0.88888870  0.87222237  0.33555536  1
  N  N69  1  0.77598317  0.75931647  0.09896084  1
  N  N70  1  0.55471148  0.87366113  0.85106712  1
  N  N71  1  0.42930632  0.79138782  0.58918180  1
