# generated using pymatgen
data_GdAl17N18
_symmetry_space_group_name_H-M   'P 1'
_cell_length_a   9.94755813
_cell_length_b   9.94755840
_cell_length_c   8.89663333
_cell_angle_alpha   89.99998692
_cell_angle_beta   89.99997974
_cell_angle_gamma   60.00001144
_symmetry_Int_Tables_number   1
_chemical_formula_structural   GdAl17N18
_chemical_formula_sum   'Gd2 Al34 N36'
_cell_volume   762.41135643
_cell_formula_units_Z   2
loop_
 _symmetry_equiv_pos_site_id
 _symmetry_equiv_pos_as_xyz
  1  'x, y, z'
loop_
 _atom_site_type_symbol
 _atom_site_label
 _atom_site_symmetry_multiplicity
 _atom_site_fract_x
 _atom_site_fract_y
 _atom_site_fract_z
 _atom_site_occupancy
  Al  Al0  1  0.11284395  0.09617712  0.33957268  1
  Al  Al1  1  0.22222209  0.20555540  0.08423387  1
  Al  Al2  1  0.77358196  0.10283619  0.85327265  1
  Al  Al3  1  0.89273043  0.20653254  0.58617560  1
  Al  Al4  1  0.44097863  0.09617735  0.33957226  1
  Al  Al5  1  0.55270928  0.20393086  0.09204723  1
  Al  Al6  1  0.11032710  0.09366042  0.83774994  1
  Al  Al7  1  0.22222225  0.20555567  0.59434574  1
  Al  Al8  1  0.77536743  0.09926482  0.33062396  1
  Al  Al9  1  0.89336004  0.20393073  0.09204756  1
  Al  Al10  1  0.44601243  0.09366050  0.83775104  1
  Al  Al11  1  0.55073677  0.20653267  0.58617585  1
  Al  Al12  1  0.11284397  0.42431221  0.33957225  1
  Al  Al13  1  0.22059759  0.53604256  0.09204662  1
  Al  Al14  1  0.78759913  0.42286704  0.85100686  1
  Al  Al15  1  0.89273083  0.53406997  0.58617640  1
  Al  Al16  1  0.44236319  0.42569680  0.32967011  1
  Al  Al17  1  0.55555563  0.53888874  0.09636642  1
  Al  Al18  1  0.11032724  0.42934564  0.83775117  1
  Al  Al19  1  0.22319930  0.53407028  0.58617574  1
  Al  Al20  1  0.78194004  0.42569655  0.32967090  1
  Al  Al21  1  0.89335977  0.53604274  0.09204789  1
  Al  Al22  1  0.43953373  0.42286685  0.85100614  1
  Al  Al23  1  0.11593143  0.75870082  0.33062255  1
  Al  Al24  1  0.22059725  0.87669350  0.09204656  1
  Al  Al25  1  0.77358211  0.75691546  0.85327303  1
  Al  Al26  1  0.44236319  0.76527316  0.32966919  1
  Al  Al27  1  0.55270949  0.87669323  0.09204751  1
  Al  Al28  1  0.11950357  0.75691495  0.85327153  1
  Al  Al29  1  0.22319944  0.87606361  0.58617501  1
  Al  Al30  1  0.77536737  0.75870075  0.33062539  1
  Al  Al31  1  0.88888885  0.87222212  0.09773860  1
  Al  Al32  1  0.43953348  0.77093313  0.85100655  1
  Al  Al33  1  0.55073639  0.87606415  0.58617592  1
  Gd  Gd34  1  0.55555519  0.53888941  0.60301164  1
  Gd  Gd35  1  0.88888943  0.87222213  0.60316629  1
  N  N36  1  0.22222218  0.20555569  0.37483370  1
  N  N37  1  0.11336797  0.09670117  0.12136104  1
  N  N38  1  0.89349426  0.20276363  0.87579288  1
  N  N39  1  0.76140878  0.12718223  0.62380037  1
  N  N40  1  0.55501324  0.20537242  0.36223850  1
  N  N41  1  0.43993068  0.09670135  0.12136020  1
  N  N42  1  0.22222213  0.20555538  0.86239104  1
  N  N43  1  0.10970032  0.09303354  0.61641920  1
  N  N44  1  0.88961419  0.20537214  0.36223834  1
  N  N45  1  0.77607500  0.09784988  0.11255353  1
  N  N46  1  0.55374236  0.20276361  0.87579292  1
  N  N47  1  0.44726584  0.09303383  0.61641991  1
  N  N48  1  0.22203884  0.53834705  0.36223891  1
  N  N49  1  0.11336806  0.42326406  0.12136012  1
  N  N50  1  0.89349389  0.53707585  0.87579265  1
  N  N51  1  0.80915975  0.41208670  0.62612988  1
  N  N52  1  0.55555541  0.53888904  0.34109605  1
  N  N53  1  0.44263603  0.42596941  0.11239459  1
  N  N54  1  0.21943051  0.53707534  0.87579301  1
  N  N55  1  0.10970050  0.43059927  0.61642008  1
  N  N56  1  0.88961458  0.53834637  0.36223824  1
  N  N57  1  0.78139450  0.42596934  0.11239458  1
  N  N58  1  0.55555556  0.53888887  0.87289734  1
  N  N59  1  0.42875339  0.41208660  0.62613079  1
  N  N60  1  0.22203909  0.87294709  0.36223883  1
  N  N61  1  0.11451671  0.75940825  0.11255331  1
  N  N62  1  0.88888907  0.87222211  0.87262791  1
  N  N63  1  0.76140884  0.74474245  0.62379867  1
  N  N64  1  0.55501271  0.87294771  0.36223832  1
  N  N65  1  0.44263596  0.76472788  0.11239397  1
  N  N66  1  0.21943009  0.87682793  0.87579327  1
  N  N67  1  0.14384964  0.74474188  0.62380229  1
  N  N68  1  0.88888906  0.87222219  0.34168430  1
  N  N69  1  0.77607502  0.75940836  0.11255416  1
  N  N70  1  0.55374273  0.87682745  0.87579295  1
  N  N71  1  0.42875306  0.79249382  0.62613183  1
