# generated using pymatgen
data_GdAl17N18
_symmetry_space_group_name_H-M   'P 1'
_cell_length_a   9.51746439
_cell_length_b   9.51746442
_cell_length_c   10.11237839
_cell_angle_alpha   90.00000018
_cell_angle_beta   89.99999998
_cell_angle_gamma   60.00000150
_symmetry_Int_Tables_number   1
_chemical_formula_structural   GdAl17N18
_chemical_formula_sum   'Gd2 Al34 N36'
_cell_volume   793.27994084
_cell_formula_units_Z   2
loop_
 _symmetry_equiv_pos_site_id
 _symmetry_equiv_pos_as_xyz
  1  'x, y, z'
loop_
 _atom_site_type_symbol
 _atom_site_label
 _atom_site_symmetry_multiplicity
 _atom_site_fract_x
 _atom_site_fract_y
 _atom_site_fract_z
 _atom_site_occupancy
  Al  Al0  1  0.11104600  0.09437934  0.39300908  1
  Al  Al1  1  0.22222223  0.20555556  0.14267628  1
  Al  Al2  1  0.77668556  0.09662887  0.89959273  1
  Al  Al3  1  0.89327966  0.20751950  0.64219685  1
  Al  Al4  1  0.44457465  0.09437933  0.39300908  1
  Al  Al5  1  0.55418884  0.20447132  0.14254004  1
  Al  Al6  1  0.11149816  0.09483150  0.89193066  1
  Al  Al7  1  0.22222222  0.20555555  0.64100903  1
  Al  Al8  1  0.77339709  0.10320583  0.38769206  1
  Al  Al9  1  0.89133985  0.20447133  0.14254004  1
  Al  Al10  1  0.44367033  0.09483149  0.89193066  1
  Al  Al11  1  0.54920081  0.20751950  0.64219684  1
  Al  Al12  1  0.11104600  0.42790798  0.39300908  1
  Al  Al13  1  0.22113799  0.53752217  0.14254004  1
  Al  Al14  1  0.77931046  0.42701143  0.89986139  1
  Al  Al15  1  0.89327967  0.53253415  0.64219685  1
  Al  Al16  1  0.43980543  0.42313876  0.38723580  1
  Al  Al17  1  0.55555556  0.53888890  0.14428996  1
  Al  Al18  1  0.11149816  0.42700366  0.89193066  1
  Al  Al19  1  0.22418617  0.53253414  0.64219684  1
  Al  Al20  1  0.78705579  0.42313877  0.38723580  1
  Al  Al21  1  0.89133985  0.53752218  0.14254004  1
  Al  Al22  1  0.44367809  0.42701142  0.89986138  1
  Al  Al23  1  0.11987250  0.75673042  0.38769206  1
  Al  Al24  1  0.22113800  0.87467318  0.14254004  1
  Al  Al25  1  0.77668556  0.76001890  0.89959273  1
  Al  Al26  1  0.43980543  0.77038913  0.38723580  1
  Al  Al27  1  0.55418885  0.87467318  0.14254004  1
  Al  Al28  1  0.11329554  0.76001889  0.89959273  1
  Al  Al29  1  0.22418616  0.87661300  0.64219685  1
  Al  Al30  1  0.77339708  0.75673042  0.38769206  1
  Al  Al31  1  0.88888890  0.87222224  0.14468628  1
  Al  Al32  1  0.44367810  0.76264380  0.89986139  1
  Al  Al33  1  0.54920081  0.87661300  0.64219685  1
  Gd  Gd34  1  0.55555555  0.53888889  0.63307353  1
  Gd  Gd35  1  0.88888889  0.87222222  0.63493752  1
  N  N36  1  0.22222222  0.20555556  0.33441629  1
  N  N37  1  0.11171124  0.09504457  0.08164576  1
  N  N38  1  0.88815709  0.20604257  0.83499621  1
  N  N39  1  0.76015305  0.12969387  0.57514852  1
  N  N40  1  0.55412969  0.20335581  0.32936192  1
  N  N41  1  0.44324418  0.09504458  0.08164576  1
  N  N42  1  0.22222222  0.20555555  0.83190218  1
  N  N43  1  0.11063555  0.09396888  0.58425337  1
  N  N44  1  0.89251449  0.20335582  0.32936193  1
  N  N45  1  0.77694323  0.09611354  0.08879176  1
  N  N46  1  0.55580033  0.20604256  0.83499621  1
  N  N47  1  0.44539555  0.09396888  0.58425337  1
  N  N48  1  0.22002248  0.53746302  0.32936192  1
  N  N49  1  0.11171124  0.42657751  0.08164576  1
  N  N50  1  0.88815709  0.53913368  0.83499621  1
  N  N51  1  0.81132324  0.41100503  0.57203727  1
  N  N52  1  0.55555556  0.53888889  0.34092953  1
  N  N53  1  0.44349330  0.42682663  0.08882412  1
  N  N54  1  0.22270923  0.53913367  0.83499621  1
  N  N55  1  0.11063555  0.42872888  0.58425337  1
  N  N56  1  0.89251449  0.53746302  0.32936192  1
  N  N57  1  0.77968008  0.42682664  0.08882412  1
  N  N58  1  0.55555555  0.53888888  0.85679876  1
  N  N59  1  0.42767171  0.41100504  0.57203726  1
  N  N60  1  0.22002249  0.87584783  0.32936193  1
  N  N61  1  0.11278021  0.76027656  0.08879176  1
  N  N62  1  0.88888889  0.87222223  0.85695014  1
  N  N63  1  0.76015306  0.74348639  0.57514851  1
  N  N64  1  0.55412969  0.87584782  0.32936192  1
  N  N65  1  0.44349331  0.76301341  0.08882412  1
  N  N66  1  0.22270924  0.87149043  0.83499621  1
  N  N67  1  0.14636054  0.74348638  0.57514852  1
  N  N68  1  0.88888890  0.87222223  0.34261126  1
  N  N69  1  0.77694325  0.76027658  0.08879176  1
  N  N70  1  0.55580034  0.87149043  0.83499621  1
  N  N71  1  0.42767170  0.79465658  0.57203727  1
