# generated using pymatgen
data_GdAl17N18
_symmetry_space_group_name_H-M   'P 1'
_cell_length_a   9.51729615
_cell_length_b   9.51729613
_cell_length_c   10.11279926
_cell_angle_alpha   90.00000009
_cell_angle_beta   90.00000014
_cell_angle_gamma   60.00000137
_symmetry_Int_Tables_number   1
_chemical_formula_structural   GdAl17N18
_chemical_formula_sum   'Gd2 Al34 N36'
_cell_volume   793.28490558
_cell_formula_units_Z   2
loop_
 _symmetry_equiv_pos_site_id
 _symmetry_equiv_pos_as_xyz
  1  'x, y, z'
loop_
 _atom_site_type_symbol
 _atom_site_label
 _atom_site_symmetry_multiplicity
 _atom_site_fract_x
 _atom_site_fract_y
 _atom_site_fract_z
 _atom_site_occupancy
  Al  Al0  1  0.11104801  0.09438135  0.40999183  1
  Al  Al1  1  0.22222222  0.20555556  0.15965210  1
  Al  Al2  1  0.77667948  0.09664103  0.91659393  1
  Al  Al3  1  0.89327804  0.20751894  0.65917162  1
  Al  Al4  1  0.44457063  0.09438134  0.40999183  1
  Al  Al5  1  0.55418695  0.20447166  0.15953842  1
  Al  Al6  1  0.11149577  0.09482910  0.90891358  1
  Al  Al7  1  0.22222222  0.20555555  0.65799839  1
  Al  Al8  1  0.77340611  0.10318778  0.40467976  1
  Al  Al9  1  0.89134139  0.20447167  0.15953843  1
  Al  Al10  1  0.44367511  0.09482910  0.90891358  1
  Al  Al11  1  0.54920299  0.20751894  0.65917162  1
  Al  Al12  1  0.11104801  0.42790396  0.40999183  1
  Al  Al13  1  0.22113833  0.53752028  0.15953842  1
  Al  Al14  1  0.77932247  0.42700543  0.91685862  1
  Al  Al15  1  0.89327805  0.53253633  0.65917162  1
  Al  Al16  1  0.43981411  0.42314744  0.40422241  1
  Al  Al17  1  0.55555556  0.53888890  0.16125931  1
  Al  Al18  1  0.11149577  0.42700844  0.90891358  1
  Al  Al19  1  0.22418560  0.53253632  0.65917162  1
  Al  Al20  1  0.78703842  0.42314745  0.40422241  1
  Al  Al21  1  0.89134139  0.53752030  0.15953843  1
  Al  Al22  1  0.44367209  0.42700542  0.91685862  1
  Al  Al23  1  0.11985444  0.75673944  0.40467976  1
  Al  Al24  1  0.22113834  0.87467472  0.15953843  1
  Al  Al25  1  0.77667949  0.76001282  0.91659393  1
  Al  Al26  1  0.43981412  0.77037175  0.40422241  1
  Al  Al27  1  0.55418696  0.87467473  0.15953843  1
  Al  Al28  1  0.11330769  0.76001281  0.91659393  1
  Al  Al29  1  0.22418560  0.87661137  0.65917162  1
  Al  Al30  1  0.77340611  0.75673944  0.40467975  1
  Al  Al31  1  0.88888890  0.87222224  0.16165679  1
  Al  Al32  1  0.44367210  0.76265580  0.91685862  1
  Al  Al33  1  0.54920300  0.87661138  0.65917162  1
  Gd  Gd34  1  0.55555555  0.53888888  0.65011508  1
  Gd  Gd35  1  0.88888889  0.87222222  0.65198439  1
  N  N36  1  0.22222222  0.20555555  0.35138652  1
  N  N37  1  0.11170871  0.09504204  0.09862536  1
  N  N38  1  0.88815467  0.20604303  0.85197019  1
  N  N39  1  0.76016478  0.12967041  0.59212874  1
  N  N40  1  0.55413061  0.20335669  0.34635237  1
  N  N41  1  0.44324924  0.09504204  0.09862536  1
  N  N42  1  0.22222222  0.20555555  0.84888573  1
  N  N43  1  0.11063845  0.09397178  0.60123065  1
  N  N44  1  0.89251269  0.20335670  0.34635238  1
  N  N45  1  0.77693722  0.09612556  0.10578162  1
  N  N46  1  0.55580229  0.20604302  0.85197019  1
  N  N47  1  0.44538974  0.09397178  0.60123065  1
  N  N48  1  0.22002336  0.53746394  0.34635237  1
  N  N49  1  0.11170871  0.42658258  0.09862536  1
  N  N50  1  0.88815467  0.53913563  0.85197018  1
  N  N51  1  0.81130180  0.41101575  0.58901855  1
  N  N52  1  0.55555556  0.53888889  0.35788895  1
  N  N53  1  0.44348779  0.42682112  0.10581112  1
  N  N54  1  0.22270969  0.53913562  0.85197019  1
  N  N55  1  0.11063845  0.42872308  0.60123065  1
  N  N56  1  0.89251269  0.53746394  0.34635237  1
  N  N57  1  0.77969110  0.42682113  0.10581112  1
  N  N58  1  0.55555555  0.53888888  0.87382769  1
  N  N59  1  0.42768242  0.41101576  0.58901855  1
  N  N60  1  0.22002337  0.87584603  0.34635238  1
  N  N61  1  0.11279222  0.76027056  0.10578162  1
  N  N62  1  0.88888889  0.87222222  0.87398485  1
  N  N63  1  0.76016480  0.74349813  0.59212874  1
  N  N64  1  0.55413060  0.87584602  0.34635237  1
  N  N65  1  0.44348779  0.76302443  0.10581113  1
  N  N66  1  0.22270970  0.87148801  0.85197019  1
  N  N67  1  0.14633707  0.74349811  0.59212874  1
  N  N68  1  0.88888890  0.87222223  0.35956903  1
  N  N69  1  0.77693724  0.76027057  0.10578162  1
  N  N70  1  0.55580230  0.87148801  0.85197018  1
  N  N71  1  0.42768242  0.79463514  0.58901856  1
