# generated using pymatgen
data_GdAl17N18
_symmetry_space_group_name_H-M   'P 1'
_cell_length_a   9.51729073
_cell_length_b   9.51729071
_cell_length_c   10.11282232
_cell_angle_alpha   90.00000005
_cell_angle_beta   90.00000005
_cell_angle_gamma   60.00000126
_symmetry_Int_Tables_number   1
_chemical_formula_structural   GdAl17N18
_chemical_formula_sum   'Gd2 Al34 N36'
_cell_volume   793.28580911
_cell_formula_units_Z   2
loop_
 _symmetry_equiv_pos_site_id
 _symmetry_equiv_pos_as_xyz
  1  'x, y, z'
loop_
 _atom_site_type_symbol
 _atom_site_label
 _atom_site_symmetry_multiplicity
 _atom_site_fract_x
 _atom_site_fract_y
 _atom_site_fract_z
 _atom_site_occupancy
  Al  Al0  1  0.11104782  0.09438115  0.41221242  1
  Al  Al1  1  0.22222223  0.20555556  0.16187230  1
  Al  Al2  1  0.77667949  0.09664101  0.91881509  1
  Al  Al3  1  0.89327844  0.20751872  0.66139335  1
  Al  Al4  1  0.44457102  0.09438114  0.41221241  1
  Al  Al5  1  0.55418715  0.20447184  0.16175892  1
  Al  Al6  1  0.11149589  0.09482923  0.91113322  1
  Al  Al7  1  0.22222222  0.20555555  0.66021740  1
  Al  Al8  1  0.77340605  0.10318790  0.40690487  1
  Al  Al9  1  0.89134102  0.20447185  0.16175892  1
  Al  Al10  1  0.44367486  0.09482922  0.91113322  1
  Al  Al11  1  0.54920281  0.20751872  0.66139335  1
  Al  Al12  1  0.11104781  0.42790435  0.41221241  1
  Al  Al13  1  0.22113850  0.53752048  0.16175892  1
  Al  Al14  1  0.77932248  0.42700542  0.91907948  1
  Al  Al15  1  0.89327844  0.53253614  0.66139335  1
  Al  Al16  1  0.43981409  0.42314742  0.40644665  1
  Al  Al17  1  0.55555556  0.53888889  0.16348414  1
  Al  Al18  1  0.11149589  0.42700819  0.91113322  1
  Al  Al19  1  0.22418539  0.53253614  0.66139335  1
  Al  Al20  1  0.78703847  0.42314743  0.40644666  1
  Al  Al21  1  0.89134102  0.53752050  0.16175892  1
  Al  Al22  1  0.44367208  0.42700541  0.91907947  1
  Al  Al23  1  0.11985457  0.75673938  0.40690487  1
  Al  Al24  1  0.22113851  0.87467435  0.16175892  1
  Al  Al25  1  0.77667950  0.76001283  0.91881509  1
  Al  Al26  1  0.43981409  0.77037180  0.40644665  1
  Al  Al27  1  0.55418716  0.87467435  0.16175892  1
  Al  Al28  1  0.11330768  0.76001282  0.91881509  1
  Al  Al29  1  0.22418539  0.87661177  0.66139335  1
  Al  Al30  1  0.77340605  0.75673938  0.40690487  1
  Al  Al31  1  0.88888890  0.87222224  0.16388181  1
  Al  Al32  1  0.44367209  0.76265581  0.91907948  1
  Al  Al33  1  0.54920281  0.87661178  0.66139335  1
  Gd  Gd34  1  0.55555555  0.53888888  0.65233931  1
  Gd  Gd35  1  0.88888889  0.87222222  0.65420916  1
  N  N36  1  0.22222222  0.20555555  0.35360756  1
  N  N37  1  0.11170866  0.09504200  0.10084553  1
  N  N38  1  0.88815465  0.20604299  0.85419142  1
  N  N39  1  0.76016497  0.12967002  0.59435269  1
  N  N40  1  0.55413102  0.20335699  0.34857410  1
  N  N41  1  0.44324933  0.09504200  0.10084553  1
  N  N42  1  0.22222222  0.20555555  0.85110492  1
  N  N43  1  0.11063833  0.09397167  0.60345165  1
  N  N44  1  0.89251198  0.20335700  0.34857410  1
  N  N45  1  0.77693741  0.09612518  0.10800289  1
  N  N46  1  0.55580236  0.20604298  0.85419142  1
  N  N47  1  0.44538998  0.09397166  0.60345165  1
  N  N48  1  0.22002366  0.53746435  0.34857410  1
  N  N49  1  0.11170867  0.42658267  0.10084553  1
  N  N50  1  0.88815465  0.53913570  0.85419142  1
  N  N51  1  0.81130139  0.41101596  0.59124204  1
  N  N52  1  0.55555556  0.53888889  0.36011310  1
  N  N53  1  0.44348799  0.42682133  0.10803220  1
  N  N54  1  0.22270964  0.53913569  0.85419142  1
  N  N55  1  0.11063833  0.42872331  0.60345165  1
  N  N56  1  0.89251198  0.53746435  0.34857410  1
  N  N57  1  0.77969068  0.42682133  0.10803220  1
  N  N58  1  0.55555555  0.53888888  0.87605013  1
  N  N59  1  0.42768263  0.41101596  0.59124203  1
  N  N60  1  0.22002367  0.87584532  0.34857410  1
  N  N61  1  0.11279185  0.76027074  0.10800289  1
  N  N62  1  0.88888889  0.87222222  0.87620782  1
  N  N63  1  0.76016499  0.74349832  0.59435268  1
  N  N64  1  0.55413102  0.87584531  0.34857410  1
  N  N65  1  0.44348800  0.76302402  0.10803220  1
  N  N66  1  0.22270966  0.87148798  0.85419142  1
  N  N67  1  0.14633669  0.74349830  0.59435269  1
  N  N68  1  0.88888890  0.87222223  0.36179365  1
  N  N69  1  0.77693742  0.76027076  0.10800289  1
  N  N70  1  0.55580237  0.87148798  0.85419142  1
  N  N71  1  0.42768263  0.79463472  0.59124204  1
