# generated using pymatgen
data_GdAl17N18
_symmetry_space_group_name_H-M   'P 1'
_cell_length_a   9.55911187
_cell_length_b   9.55911223
_cell_length_c   10.00550321
_cell_angle_alpha   89.99999934
_cell_angle_beta   90.00000060
_cell_angle_gamma   60.00000138
_symmetry_Int_Tables_number   1
_chemical_formula_structural   GdAl17N18
_chemical_formula_sum   'Gd2 Al34 N36'
_cell_volume   791.78027542
_cell_formula_units_Z   2
loop_
 _symmetry_equiv_pos_site_id
 _symmetry_equiv_pos_as_xyz
  1  'x, y, z'
loop_
 _atom_site_type_symbol
 _atom_site_label
 _atom_site_symmetry_multiplicity
 _atom_site_fract_x
 _atom_site_fract_y
 _atom_site_fract_z
 _atom_site_occupancy
  Al  Al0  1  0.11168482  0.09501816  0.32600252  1
  Al  Al1  1  0.22222222  0.20555556  0.07462143  1
  Al  Al2  1  0.77286739  0.10426524  0.83074305  1
  Al  Al3  1  0.89324849  0.20754113  0.57500151  1
  Al  Al4  1  0.44329700  0.09501815  0.32600251  1
  Al  Al5  1  0.55414355  0.20436150  0.07617934  1
  Al  Al6  1  0.11093519  0.09426853  0.82460834  1
  Al  Al7  1  0.22222223  0.20555557  0.57727563  1
  Al  Al8  1  0.77694809  0.09610380  0.31906107  1
  Al  Al9  1  0.89149495  0.20436151  0.07617935  1
  Al  Al10  1  0.44479627  0.09426852  0.82460836  1
  Al  Al11  1  0.54921037  0.20754112  0.57500151  1
  Al  Al12  1  0.11168481  0.42663034  0.32600251  1
  Al  Al13  1  0.22102817  0.53747688  0.07617934  1
  Al  Al14  1  0.78822896  0.42255219  0.83104252  1
  Al  Al15  1  0.89324851  0.53254368  0.57500151  1
  Al  Al16  1  0.44394254  0.42727588  0.31853253  1
  Al  Al17  1  0.55555556  0.53888890  0.07319186  1
  Al  Al18  1  0.11093519  0.42812960  0.82460836  1
  Al  Al19  1  0.22420779  0.53254369  0.57500151  1
  Al  Al20  1  0.77878153  0.42727588  0.31853253  1
  Al  Al21  1  0.89149495  0.53747690  0.07617935  1
  Al  Al22  1  0.43921886  0.42255218  0.83104251  1
  Al  Al23  1  0.11277048  0.76028142  0.31906107  1
  Al  Al24  1  0.22102818  0.87482829  0.07617935  1
  Al  Al25  1  0.77286737  0.75620070  0.83074304  1
  Al  Al26  1  0.44394255  0.76211487  0.31853252  1
  Al  Al27  1  0.55414357  0.87482829  0.07617935  1
  Al  Al28  1  0.12093193  0.75620070  0.83074305  1
  Al  Al29  1  0.22420779  0.87658184  0.57500151  1
  Al  Al30  1  0.77694808  0.76028141  0.31906108  1
  Al  Al31  1  0.88888890  0.87222223  0.07300381  1
  Al  Al32  1  0.43921885  0.77156230  0.83104253  1
  Al  Al33  1  0.54921034  0.87658186  0.57500151  1
  Gd  Gd34  1  0.55555554  0.53888893  0.58869992  1
  Gd  Gd35  1  0.88888891  0.87222221  0.58726913  1
  N  N36  1  0.22222222  0.20555556  0.38493010  1
  N  N37  1  0.11194515  0.09527848  0.13489267  1
  N  N38  1  0.89280910  0.20319150  0.88770304  1
  N  N39  1  0.75952905  0.13094189  0.64127189  1
  N  N40  1  0.55568690  0.20601554  0.38088298  1
  N  N41  1  0.44277637  0.09527848  0.13489266  1
  N  N42  1  0.22222222  0.20555556  0.88131250  1
  N  N43  1  0.11041159  0.09374493  0.63189443  1
  N  N44  1  0.88829753  0.20601556  0.38088298  1
  N  N45  1  0.77717673  0.09564655  0.12798855  1
  N  N46  1  0.55399941  0.20319150  0.88770304  1
  N  N47  1  0.44584348  0.09374493  0.63189445  1
  N  N48  1  0.22268220  0.53902023  0.38088299  1
  N  N49  1  0.11194515  0.42610970  0.13489266  1
  N  N50  1  0.89280909  0.53733274  0.88770304  1
  N  N51  1  0.81249522  0.41041905  0.64431590  1
  N  N52  1  0.55555554  0.53888888  0.36201560  1
  N  N53  1  0.44369609  0.42702942  0.12775472  1
  N  N54  1  0.21985817  0.53733274  0.88770304  1
  N  N55  1  0.11041159  0.42917681  0.63189445  1
  N  N56  1  0.88829753  0.53902023  0.38088299  1
  N  N57  1  0.77927449  0.42702943  0.12775472  1
  N  N58  1  0.55555556  0.53888890  0.87451904  1
  N  N59  1  0.42708574  0.41041905  0.64431588  1
  N  N60  1  0.22268222  0.87163088  0.38088299  1
  N  N61  1  0.11231324  0.76051004  0.12798855  1
  N  N62  1  0.88888890  0.87222222  0.87294285  1
  N  N63  1  0.75952905  0.74286237  0.64127188  1
  N  N64  1  0.55568689  0.87163087  0.38088299  1
  N  N65  1  0.44369610  0.76260782  0.12775472  1
  N  N66  1  0.21985816  0.87614244  0.88770304  1
  N  N67  1  0.14760860  0.74286236  0.64127189  1
  N  N68  1  0.88888888  0.87222221  0.36229570  1
  N  N69  1  0.77717673  0.76051005  0.12798856  1
  N  N70  1  0.55399941  0.87614243  0.88770305  1
  N  N71  1  0.42708570  0.79582859  0.64431591  1
