# generated using pymatgen
data_GdAl17N18
_symmetry_space_group_name_H-M   'P 1'
_cell_length_a   10.03319906
_cell_length_b   10.03319886
_cell_length_c   8.64111107
_cell_angle_alpha   89.99997909
_cell_angle_beta   89.99996812
_cell_angle_gamma   60.00000706
_symmetry_Int_Tables_number   1
_chemical_formula_structural   GdAl17N18
_chemical_formula_sum   'Gd2 Al34 N36'
_cell_volume   753.31930790
_cell_formula_units_Z   2
loop_
 _symmetry_equiv_pos_site_id
 _symmetry_equiv_pos_as_xyz
  1  'x, y, z'
loop_
 _atom_site_type_symbol
 _atom_site_label
 _atom_site_symmetry_multiplicity
 _atom_site_fract_x
 _atom_site_fract_y
 _atom_site_fract_z
 _atom_site_occupancy
  Al  Al0  1  0.11090935  0.09424342  0.36050508  1
  Al  Al1  1  0.22222230  0.20555571  0.11460300  1
  Al  Al2  1  0.77482907  0.10034206  0.86997715  1
  Al  Al3  1  0.89351760  0.20578482  0.61304774  1
  Al  Al4  1  0.44484725  0.09424298  0.36050804  1
  Al  Al5  1  0.55304046  0.20428443  0.10922859  1
  Al  Al6  1  0.11235319  0.09568625  0.86274293  1
  Al  Al7  1  0.22222216  0.20555547  0.60866957  1
  Al  Al8  1  0.77404126  0.10191716  0.34738225  1
  Al  Al9  1  0.89267486  0.20428454  0.10922991  1
  Al  Al10  1  0.44196069  0.09568637  0.86274431  1
  Al  Al11  1  0.55069798  0.20578442  0.61304742  1
  Al  Al12  1  0.11090909  0.42818096  0.36050835  1
  Al  Al13  1  0.22095107  0.53637377  0.10922642  1
  Al  Al14  1  0.78348567  0.42492378  0.87044835  1
  Al  Al15  1  0.89351735  0.53403125  0.61305218  1
  Al  Al16  1  0.44029025  0.42362369  0.34972672  1
  Al  Al17  1  0.55555546  0.53888904  0.10695398  1
  Al  Al18  1  0.11235340  0.42529357  0.86274440  1
  Al  Al19  1  0.22245112  0.53403096  0.61304478  1
  Al  Al20  1  0.78608767  0.42362302  0.34973115  1
  Al  Al21  1  0.89267523  0.53637376  0.10923182  1
  Al  Al22  1  0.44159015  0.42492323  0.87044321  1
  Al  Al23  1  0.11858210  0.75737530  0.34737690  1
  Al  Al24  1  0.22095134  0.87600813  0.10922534  1
  Al  Al25  1  0.77482935  0.75816279  0.86998094  1
  Al  Al26  1  0.44029068  0.76941891  0.34972588  1
  Al  Al27  1  0.55304039  0.87600844  0.10922943  1
  Al  Al28  1  0.11700964  0.75816200  0.86997172  1
  Al  Al29  1  0.22245092  0.87685139  0.61304131  1
  Al  Al30  1  0.77404102  0.75737405  0.34738542  1
  Al  Al31  1  0.88888884  0.87222228  0.10598927  1
  Al  Al32  1  0.44158990  0.76682034  0.87044139  1
  Al  Al33  1  0.55069839  0.87685082  0.61304839  1
  Gd  Gd34  1  0.55555620  0.53888842  0.60430008  1
  Gd  Gd35  1  0.88888841  0.87222234  0.60399589  1
  N  N36  1  0.22222227  0.20555586  0.35185951  1
  N  N37  1  0.11308621  0.09641981  0.09660580  1
  N  N38  1  0.89080812  0.20462545  0.85444840  1
  N  N39  1  0.76227665  0.12544694  0.59649307  1
  N  N40  1  0.55427170  0.20344012  0.34096312  1
  N  N41  1  0.44049399  0.09641963  0.09660359  1
  N  N42  1  0.22222231  0.20555533  0.84309876  1
  N  N43  1  0.11016094  0.09349484  0.59844382  1
  N  N44  1  0.89228796  0.20343953  0.34096227  1
  N  N45  1  0.77591073  0.09817848  0.10094208  1
  N  N46  1  0.55456727  0.20462446  0.85444926  1
  N  N47  1  0.44634453  0.09349436  0.59844367  1
  N  N48  1  0.22010630  0.53760589  0.34096482  1
  N  N49  1  0.11308617  0.42382731  0.09660336  1
  N  N50  1  0.89080755  0.53790077  0.85444677  1
  N  N51  1  0.80739075  0.41297149  0.59454988  1
  N  N52  1  0.55555558  0.53888902  0.33537296  1
  N  N53  1  0.44248382  0.42581708  0.10107687  1
  N  N54  1  0.22129172  0.53789942  0.85445109  1
  N  N55  1  0.11016079  0.42967777  0.59844394  1
  N  N56  1  0.89228874  0.53760497  0.34096039  1
  N  N57  1  0.78169919  0.42581715  0.10107620  1
  N  N58  1  0.55555585  0.53888868  0.87150531  1
  N  N59  1  0.42963848  0.41297162  0.59455692  1
  N  N60  1  0.22010677  0.87562047  0.34096617  1
  N  N61  1  0.11484496  0.75924413  0.10094267  1
  N  N62  1  0.88888866  0.87222222  0.87090024  1
  N  N63  1  0.76227666  0.74560946  0.59648771  1
  N  N64  1  0.55427103  0.87562162  0.34096260  1
  N  N65  1  0.44248390  0.76503244  0.10107639  1
  N  N66  1  0.22129126  0.87414263  0.85445204  1
  N  N67  1  0.14211265  0.74561020  0.59650106  1
  N  N68  1  0.88888874  0.87222238  0.33551837  1
  N  N69  1  0.77591075  0.75924404  0.10094246  1
  N  N70  1  0.55456830  0.87414147  0.85444858  1
  N  N71  1  0.42963881  0.79072297  0.59455936  1
