# generated using pymatgen
data_GdAl17N18
_symmetry_space_group_name_H-M   'P 1'
_cell_length_a   9.83779293
_cell_length_b   9.83779765
_cell_length_c   9.22314641
_cell_angle_alpha   89.99999218
_cell_angle_beta   89.99997649
_cell_angle_gamma   60.00000600
_symmetry_Int_Tables_number   1
_chemical_formula_structural   GdAl17N18
_chemical_formula_sum   'Gd2 Al34 N36'
_cell_volume   773.04597523
_cell_formula_units_Z   2
loop_
 _symmetry_equiv_pos_site_id
 _symmetry_equiv_pos_as_xyz
  1  'x, y, z'
loop_
 _atom_site_type_symbol
 _atom_site_label
 _atom_site_symmetry_multiplicity
 _atom_site_fract_x
 _atom_site_fract_y
 _atom_site_fract_z
 _atom_site_occupancy
  Al  Al0  1  0.11027751  0.09361077  0.37749001  1
  Al  Al1  1  0.22222233  0.20555560  0.12971315  1
  Al  Al2  1  0.77588243  0.09823515  0.88321398  1
  Al  Al3  1  0.89236096  0.20717217  0.62778946  1
  Al  Al4  1  0.44611176  0.09361080  0.37749057  1
  Al  Al5  1  0.55283456  0.20378234  0.12269479  1
  Al  Al6  1  0.11274329  0.09607673  0.87387842  1
  Al  Al7  1  0.22222236  0.20555541  0.62000732  1
  Al  Al8  1  0.77313800  0.10372377  0.36367383  1
  Al  Al9  1  0.89338292  0.20378244  0.12269482  1
  Al  Al10  1  0.44118027  0.09607651  0.87387796  1
  Al  Al11  1  0.55046700  0.20717201  0.62778969  1
  Al  Al12  1  0.11027753  0.42944504  0.37749052  1
  Al  Al13  1  0.22044899  0.53616795  0.12269446  1
  Al  Al14  1  0.78071091  0.42631125  0.88422098  1
  Al  Al15  1  0.89236073  0.53380035  0.62778956  1
  Al  Al16  1  0.43902757  0.42236087  0.36500126  1
  Al  Al17  1  0.55555555  0.53888899  0.11938204  1
  Al  Al18  1  0.11274326  0.42451334  0.87387801  1
  Al  Al19  1  0.22383920  0.53380003  0.62778961  1
  Al  Al20  1  0.78861168  0.42236081  0.36500137  1
  Al  Al21  1  0.89338314  0.53616780  0.12269490  1
  Al  Al22  1  0.44297806  0.42631107  0.88422087  1
  Al  Al23  1  0.12039013  0.75647155  0.36367370  1
  Al  Al24  1  0.22044919  0.87671621  0.12269450  1
  Al  Al25  1  0.77588241  0.75921582  0.88321448  1
  Al  Al26  1  0.43902759  0.77194481  0.36500167  1
  Al  Al27  1  0.55283437  0.87671647  0.12269492  1
  Al  Al28  1  0.11490170  0.75921585  0.88321366  1
  Al  Al29  1  0.22383906  0.87569429  0.62778946  1
  Al  Al30  1  0.77313798  0.75647144  0.36367357  1
  Al  Al31  1  0.88888885  0.87222232  0.11797342  1
  Al  Al32  1  0.44297808  0.76404424  0.88422049  1
  Al  Al33  1  0.55046712  0.87569429  0.62778964  1
  Gd  Gd34  1  0.55555581  0.53888862  0.60822846  1
  Gd  Gd35  1  0.88888819  0.87222246  0.60848708  1
  N  N36  1  0.22222224  0.20555566  0.33996942  1
  N  N37  1  0.11320138  0.09653470  0.08086618  1
  N  N38  1  0.88884866  0.20583413  0.83908415  1
  N  N39  1  0.76047915  0.12904194  0.57638091  1
  N  N40  1  0.55353744  0.20249567  0.32734795  1
  N  N41  1  0.44026395  0.09653468  0.08086582  1
  N  N42  1  0.22222219  0.20555551  0.82828144  1
  N  N43  1  0.10961491  0.09294816  0.58661148  1
  N  N44  1  0.89396686  0.20249558  0.32734799  1
  N  N45  1  0.77630210  0.09739581  0.09034667  1
  N  N46  1  0.55531743  0.20583414  0.83908416  1
  N  N47  1  0.44743703  0.09294812  0.58661193  1
  N  N48  1  0.21916214  0.53687102  0.32734792  1
  N  N49  1  0.11320138  0.42359723  0.08086575  1
  N  N50  1  0.88884847  0.53865085  0.83908415  1
  N  N51  1  0.81092279  0.41120530  0.57404934  1
  N  N52  1  0.55555557  0.53888897  0.33582747  1
  N  N53  1  0.44284191  0.42617524  0.09076968  1
  N  N54  1  0.22250082  0.53865065  0.83908430  1
  N  N55  1  0.10961485  0.43077033  0.58661200  1
  N  N56  1  0.89396708  0.53687068  0.32734801  1
  N  N57  1  0.78098291  0.42617523  0.09076970  1
  N  N58  1  0.55555563  0.53888884  0.86052848  1
  N  N59  1  0.42787155  0.41120589  0.57404936  1
  N  N60  1  0.21916232  0.87729999  0.32734799  1
  N  N61  1  0.11406241  0.75963545  0.09034643  1
  N  N62  1  0.88888885  0.87222221  0.85983879  1
  N  N63  1  0.76047907  0.74381214  0.57638037  1
  N  N64  1  0.55353724  0.87730027  0.32734803  1
  N  N65  1  0.44284193  0.76431619  0.09076931  1
  N  N66  1  0.22250069  0.87218208  0.83908423  1
  N  N67  1  0.14570826  0.74381252  0.57638126  1
  N  N68  1  0.88888884  0.87222229  0.33634611  1
  N  N69  1  0.77630209  0.75963541  0.09034709  1
  N  N70  1  0.55531764  0.87218180  0.83908408  1
  N  N71  1  0.42787165  0.79425567  0.57404979  1
