# generated using pymatgen
data_GdAl17N18
_symmetry_space_group_name_H-M   'P 1'
_cell_length_a   10.04546765
_cell_length_b   10.04546750
_cell_length_c   8.60480331
_cell_angle_alpha   89.99997760
_cell_angle_beta   89.99996632
_cell_angle_gamma   60.00000754
_symmetry_Int_Tables_number   1
_chemical_formula_structural   GdAl17N18
_chemical_formula_sum   'Gd2 Al34 N36'
_cell_volume   751.98975594
_cell_formula_units_Z   2
loop_
 _symmetry_equiv_pos_site_id
 _symmetry_equiv_pos_as_xyz
  1  'x, y, z'
loop_
 _atom_site_type_symbol
 _atom_site_label
 _atom_site_symmetry_multiplicity
 _atom_site_fract_x
 _atom_site_fract_y
 _atom_site_fract_z
 _atom_site_occupancy
  Al  Al0  1  0.11111141  0.09444571  0.35798475  1
  Al  Al1  1  0.22222228  0.20555569  0.11174252  1
  Al  Al2  1  0.77469083  0.10061851  0.86830523  1
  Al  Al3  1  0.89364298  0.20567045  0.61044346  1
  Al  Al4  1  0.44444293  0.09444511  0.35798838  1
  Al  Al5  1  0.55311794  0.20435311  0.10764828  1
  Al  Al6  1  0.11215319  0.09548597  0.86097292  1
  Al  Al7  1  0.22222216  0.20555549  0.60743317  1
  Al  Al8  1  0.77414210  0.10171546  0.34599108  1
  Al  Al9  1  0.89252874  0.20435319  0.10764988  1
  Al  Al10  1  0.44236087  0.09548631  0.86097527  1
  Al  Al11  1  0.55068689  0.20567009  0.61044295  1
  Al  Al12  1  0.11111108  0.42777670  0.35798875  1
  Al  Al13  1  0.22101975  0.53645124  0.10764566  1
  Al  Al14  1  0.78389934  0.42471687  0.86840310  1
  Al  Al15  1  0.89364281  0.53402017  0.61044943  1
  Al  Al16  1  0.44047842  0.42381180  0.34806459  1
  Al  Al17  1  0.55555547  0.53888902  0.10604294  1
  Al  Al18  1  0.11215349  0.42569371  0.86097544  1
  Al  Al19  1  0.22233678  0.53401992  0.61043928  1
  Al  Al20  1  0.78571164  0.42381109  0.34807037  1
  Al  Al21  1  0.89252905  0.53645127  0.10765237  1
  Al  Al22  1  0.44138310  0.42471627  0.86839663  1
  Al  Al23  1  0.11838024  0.75747618  0.34598476  1
  Al  Al24  1  0.22101997  0.87586202  0.10764412  1
  Al  Al25  1  0.77469118  0.75802473  0.86830953  1
  Al  Al26  1  0.44047896  0.76904254  0.34806326  1
  Al  Al27  1  0.55311791  0.87586228  0.10764923  1
  Al  Al28  1  0.11728641  0.75802366  0.86829885  1
  Al  Al29  1  0.22233661  0.87697671  0.61043464  1
  Al  Al30  1  0.77414185  0.75747479  0.34599493  1
  Al  Al31  1  0.88888884  0.87222226  0.10531345  1
  Al  Al32  1  0.44138272  0.76723447  0.86839453  1
  Al  Al33  1  0.55068724  0.87697627  0.61044426  1
  Gd  Gd34  1  0.55555611  0.53888851  0.60423162  1
  Gd  Gd35  1  0.88888852  0.87222232  0.60398380  1
  N  N36  1  0.22222224  0.20555588  0.35324232  1
  N  N37  1  0.11298954  0.09632310  0.09895221  1
  N  N38  1  0.89105398  0.20443784  0.85631065  1
  N  N39  1  0.76240803  0.12518410  0.59906910  1
  N  N40  1  0.55436170  0.20362197  0.34311292  1
  N  N41  1  0.44068734  0.09632296  0.09894950  1
  N  N42  1  0.22222230  0.20555530  0.84562706  1
  N  N43  1  0.11027082  0.09360467  0.60009680  1
  N  N44  1  0.89201614  0.20362120  0.34311180  1
  N  N45  1  0.77587281  0.09825431  0.10196896  1
  N  N46  1  0.55450911  0.20443672  0.85631175  1
  N  N47  1  0.44612475  0.09360425  0.60009612  1
  N  N48  1  0.22028809  0.53769601  0.34311519  1
  N  N49  1  0.11298952  0.42402067  0.09894918  1
  N  N50  1  0.89105336  0.53784258  0.85630838  1
  N  N51  1  0.80711287  0.41311042  0.59756858  1
  N  N52  1  0.55555553  0.53888905  0.33539360  1
  N  N53  1  0.44244747  0.42578076  0.10208264  1
  N  N54  1  0.22110403  0.53784119  0.85631404  1
  N  N55  1  0.11027069  0.42945801  0.60009640  1
  N  N56  1  0.89201697  0.53769502  0.34310926  1
  N  N57  1  0.78177184  0.42578082  0.10208164  1
  N  N58  1  0.55555585  0.53888867  0.87203917  1
  N  N59  1  0.42977738  0.41311052  0.59757763  1
  N  N60  1  0.22028861  0.87534851  0.34311703  1
  N  N61  1  0.11492083  0.75920619  0.10196988  1
  N  N62  1  0.88888872  0.87222220  0.87147661  1
  N  N63  1  0.76240809  0.74574095  0.59906292  1
  N  N64  1  0.55436094  0.87534977  0.34311222  1
  N  N65  1  0.44244754  0.76510511  0.10208223  1
  N  N66  1  0.22110351  0.87438859  0.85631552  1
  N  N67  1  0.14184998  0.74574153  0.59907849  1
  N  N68  1  0.88888878  0.87222237  0.33557458  1
  N  N69  1  0.77587284  0.75920614  0.10196922  1
  N  N70  1  0.55451023  0.87438736  0.85631095  1
  N  N71  1  0.42977766  0.79044524  0.59758061  1
