# generated using pymatgen
data_GdAl17N18
_symmetry_space_group_name_H-M   'P 1'
_cell_length_a   9.51749062
_cell_length_b   9.51749059
_cell_length_c   10.11231230
_cell_angle_alpha   89.99999987
_cell_angle_beta   89.99999971
_cell_angle_gamma   60.00000168
_symmetry_Int_Tables_number   1
_chemical_formula_structural   GdAl17N18
_chemical_formula_sum   'Gd2 Al34 N36'
_cell_volume   793.27912513
_cell_formula_units_Z   2
loop_
 _symmetry_equiv_pos_site_id
 _symmetry_equiv_pos_as_xyz
  1  'x, y, z'
loop_
 _atom_site_type_symbol
 _atom_site_label
 _atom_site_symmetry_multiplicity
 _atom_site_fract_x
 _atom_site_fract_y
 _atom_site_fract_z
 _atom_site_occupancy
  Al  Al0  1  0.11149834  0.09483167  0.31812559  1
  Al  Al1  1  0.22222223  0.20555556  0.06738028  1
  Al  Al2  1  0.77339590  0.10320820  0.82236433  1
  Al  Al3  1  0.89327999  0.20751963  0.56785901  1
  Al  Al4  1  0.44366998  0.09483167  0.31812559  1
  Al  Al5  1  0.55418920  0.20447121  0.06751814  1
  Al  Al6  1  0.11104589  0.09437923  0.81704819  1
  Al  Al7  1  0.22222222  0.20555556  0.56904751  1
  Al  Al8  1  0.77668636  0.09662728  0.31046540  1
  Al  Al9  1  0.89133960  0.20447122  0.06751814  1
  Al  Al10  1  0.44457487  0.09437922  0.81704820  1
  Al  Al11  1  0.54920035  0.20751963  0.56785901  1
  Al  Al12  1  0.11149833  0.42700332  0.31812558  1
  Al  Al13  1  0.22113788  0.53752253  0.06751814  1
  Al  Al14  1  0.78705798  0.42313768  0.82282167  1
  Al  Al15  1  0.89328000  0.53253368  0.56785900  1
  Al  Al16  1  0.44367881  0.42701214  0.31019656  1
  Al  Al17  1  0.55555556  0.53888890  0.06576449  1
  Al  Al18  1  0.11104589  0.42790821  0.81704820  1
  Al  Al19  1  0.22418630  0.53253369  0.56785901  1
  Al  Al20  1  0.77930902  0.42701215  0.31019656  1
  Al  Al21  1  0.89133960  0.53752254  0.06751814  1
  Al  Al22  1  0.43980434  0.42313767  0.82282167  1
  Al  Al23  1  0.11329395  0.76001969  0.31046540  1
  Al  Al24  1  0.22113789  0.87467294  0.06751814  1
  Al  Al25  1  0.77339589  0.75672923  0.82236433  1
  Al  Al26  1  0.44367882  0.76264235  0.31019656  1
  Al  Al27  1  0.55418921  0.87467294  0.06751814  1
  Al  Al28  1  0.11987486  0.75672924  0.82236434  1
  Al  Al29  1  0.22418629  0.87661332  0.56785901  1
  Al  Al30  1  0.77668636  0.76001969  0.31046540  1
  Al  Al31  1  0.88888890  0.87222223  0.06536706  1
  Al  Al32  1  0.43980434  0.77039131  0.82282167  1
  Al  Al33  1  0.54920035  0.87661333  0.56785900  1
  Gd  Gd34  1  0.55555555  0.53888889  0.57699006  1
  Gd  Gd35  1  0.88888888  0.87222222  0.57512637  1
  N  N36  1  0.22222222  0.20555556  0.37815349  1
  N  N37  1  0.11171146  0.09504479  0.12840990  1
  N  N38  1  0.89251468  0.20335560  0.88069520  1
  N  N39  1  0.76015158  0.12969681  0.63490690  1
  N  N40  1  0.55580010  0.20604249  0.37505880  1
  N  N41  1  0.44324376  0.09504479  0.12840989  1
  N  N42  1  0.22222222  0.20555556  0.87563933  1
  N  N43  1  0.11063531  0.09396865  0.62580258  1
  N  N44  1  0.88815741  0.20604251  0.37505880  1
  N  N45  1  0.77694410  0.09611182  0.12126474  1
  N  N46  1  0.55412973  0.20335560  0.88069520  1
  N  N47  1  0.44539603  0.09396864  0.62580258  1
  N  N48  1  0.22270916  0.53913343  0.37505880  1
  N  N49  1  0.11171146  0.42657709  0.12840989  1
  N  N50  1  0.89251467  0.53746306  0.88069520  1
  N  N51  1  0.81132576  0.41100377  0.63801912  1
  N  N52  1  0.55555555  0.53888888  0.35326277  1
  N  N53  1  0.44349398  0.42682731  0.12123224  1
  N  N54  1  0.22002226  0.53746306  0.88069520  1
  N  N55  1  0.11063531  0.42872936  0.62580258  1
  N  N56  1  0.88815740  0.53913343  0.37505880  1
  N  N57  1  0.77967872  0.42682732  0.12123225  1
  N  N58  1  0.55555556  0.53888889  0.86912371  1
  N  N59  1  0.42767045  0.41100378  0.63801912  1
  N  N60  1  0.22270917  0.87149074  0.37505880  1
  N  N61  1  0.11277849  0.76027743  0.12126474  1
  N  N62  1  0.88888889  0.87222223  0.86744065  1
  N  N63  1  0.76015159  0.74348492  0.63490690  1
  N  N64  1  0.55580010  0.87149074  0.37505880  1
  N  N65  1  0.44349398  0.76301205  0.12123225  1
  N  N66  1  0.22002227  0.87584801  0.88069520  1
  N  N67  1  0.14636348  0.74348491  0.63490690  1
  N  N68  1  0.88888889  0.87222222  0.35311200  1
  N  N69  1  0.77694410  0.76027744  0.12126474  1
  N  N70  1  0.55412972  0.87584801  0.88069520  1
  N  N71  1  0.42767044  0.79465910  0.63801912  1
