# generated using pymatgen
data_GdAl17N18
_symmetry_space_group_name_H-M   'P 1'
_cell_length_a   9.51734543
_cell_length_b   9.51734541
_cell_length_c   10.11268135
_cell_angle_alpha   89.99999983
_cell_angle_beta   89.99999965
_cell_angle_gamma   60.00000165
_symmetry_Int_Tables_number   1
_chemical_formula_structural   GdAl17N18
_chemical_formula_sum   'Gd2 Al34 N36'
_cell_volume   793.28387196
_cell_formula_units_Z   2
loop_
 _symmetry_equiv_pos_site_id
 _symmetry_equiv_pos_as_xyz
  1  'x, y, z'
loop_
 _atom_site_type_symbol
 _atom_site_label
 _atom_site_symmetry_multiplicity
 _atom_site_fract_x
 _atom_site_fract_y
 _atom_site_fract_z
 _atom_site_occupancy
  Al  Al0  1  0.11149643  0.09482976  0.30937552  1
  Al  Al1  1  0.22222223  0.20555556  0.05863554  1
  Al  Al2  1  0.77340335  0.10319330  0.81360936  1
  Al  Al3  1  0.89327868  0.20751912  0.55911508  1
  Al  Al4  1  0.44367381  0.09482975  0.30937551  1
  Al  Al5  1  0.55418765  0.20447156  0.05875516  1
  Al  Al6  1  0.11104746  0.09438079  0.80829773  1
  Al  Al7  1  0.22222222  0.20555556  0.56029238  1
  Al  Al8  1  0.77668135  0.09663730  0.30170010  1
  Al  Al9  1  0.89134081  0.20447157  0.05875516  1
  Al  Al10  1  0.44457174  0.09438079  0.80829774  1
  Al  Al11  1  0.54920217  0.20751912  0.55911508  1
  Al  Al12  1  0.11149642  0.42700714  0.30937551  1
  Al  Al13  1  0.22113822  0.53752098  0.05875516  1
  Al  Al14  1  0.78704361  0.42314486  0.81406738  1
  Al  Al15  1  0.89327869  0.53253550  0.55911507  1
  Al  Al16  1  0.44367388  0.42700721  0.30143448  1
  Al  Al17  1  0.55555556  0.53888890  0.05702457  1
  Al  Al18  1  0.11104745  0.42790507  0.80829774  1
  Al  Al19  1  0.22418579  0.53253550  0.55911508  1
  Al  Al20  1  0.77931888  0.42700722  0.30143448  1
  Al  Al21  1  0.89134081  0.53752099  0.05875516  1
  Al  Al22  1  0.43981152  0.42314486  0.81406738  1
  Al  Al23  1  0.11330396  0.76001468  0.30170010  1
  Al  Al24  1  0.22113823  0.87467415  0.05875516  1
  Al  Al25  1  0.77340335  0.75673668  0.81360936  1
  Al  Al26  1  0.44367389  0.76265222  0.30143448  1
  Al  Al27  1  0.55418765  0.87467414  0.05875516  1
  Al  Al28  1  0.11985996  0.75673669  0.81360936  1
  Al  Al29  1  0.22418579  0.87661201  0.55911508  1
  Al  Al30  1  0.77668135  0.76001469  0.30170010  1
  Al  Al31  1  0.88888890  0.87222224  0.05662648  1
  Al  Al32  1  0.43981153  0.77037694  0.81406738  1
  Al  Al33  1  0.54920217  0.87661202  0.55911507  1
  Gd  Gd34  1  0.55555555  0.53888889  0.56819059  1
  Gd  Gd35  1  0.88888889  0.87222222  0.56632258  1
  N  N36  1  0.22222222  0.20555556  0.36940333  1
  N  N37  1  0.11170940  0.09504274  0.11966265  1
  N  N38  1  0.89251305  0.20335644  0.87193871  1
  N  N39  1  0.76016130  0.12967736  0.62615858  1
  N  N40  1  0.55580173  0.20604288  0.36631598  1
  N  N41  1  0.44324787  0.09504274  0.11966265  1
  N  N42  1  0.22222222  0.20555556  0.86689923  1
  N  N43  1  0.11063765  0.09397098  0.61705686  1
  N  N44  1  0.88815538  0.20604289  0.36631598  1
  N  N45  1  0.77693915  0.09612170  0.11250896  1
  N  N46  1  0.55413052  0.20335644  0.87193871  1
  N  N47  1  0.44539136  0.09397098  0.61705686  1
  N  N48  1  0.22270955  0.53913506  0.36631598  1
  N  N49  1  0.11170940  0.42658120  0.11966265  1
  N  N50  1  0.89251304  0.53746385  0.87193871  1
  N  N51  1  0.81130800  0.41101266  0.62926972  1
  N  N52  1  0.55555555  0.53888888  0.34447451  1
  N  N53  1  0.44348948  0.42682281  0.11247879  1
  N  N54  1  0.22002311  0.53746385  0.87193871  1
  N  N55  1  0.11063764  0.42872469  0.61705686  1
  N  N56  1  0.88815538  0.53913507  0.36631598  1
  N  N57  1  0.77968771  0.42682282  0.11247880  1
  N  N58  1  0.55555556  0.53888889  0.86039235  1
  N  N59  1  0.42767933  0.41101267  0.62926972  1
  N  N60  1  0.22270956  0.87148872  0.36631598  1
  N  N61  1  0.11278837  0.76027249  0.11250896  1
  N  N62  1  0.88888889  0.87222223  0.85871079  1
  N  N63  1  0.76016131  0.74349465  0.62615858  1
  N  N64  1  0.55580173  0.87148872  0.36631598  1
  N  N65  1  0.44348949  0.76302105  0.11247880  1
  N  N66  1  0.22002311  0.87584638  0.87193871  1
  N  N67  1  0.14634403  0.74349464  0.62615858  1
  N  N68  1  0.88888889  0.87222222  0.34431895  1
  N  N69  1  0.77693916  0.76027250  0.11250896  1
  N  N70  1  0.55413051  0.87584638  0.87193871  1
  N  N71  1  0.42767932  0.79464133  0.62926972  1
