# generated using pymatgen
data_GdAl17N18
_symmetry_space_group_name_H-M   'P 1'
_cell_length_a   9.51778375
_cell_length_b   9.51778372
_cell_length_c   10.11155776
_cell_angle_alpha   89.99999991
_cell_angle_beta   90.00000005
_cell_angle_gamma   60.00000214
_symmetry_Int_Tables_number   1
_chemical_formula_structural   GdAl17N18
_chemical_formula_sum   'Gd2 Al34 N36'
_cell_volume   793.26879931
_cell_formula_units_Z   2
loop_
 _symmetry_equiv_pos_site_id
 _symmetry_equiv_pos_as_xyz
  1  'x, y, z'
loop_
 _atom_site_type_symbol
 _atom_site_label
 _atom_site_symmetry_multiplicity
 _atom_site_fract_x
 _atom_site_fract_y
 _atom_site_fract_z
 _atom_site_occupancy
  Al  Al0  1  0.11104387  0.09437720  0.38789137  1
  Al  Al1  1  0.22222223  0.20555556  0.13756585  1
  Al  Al2  1  0.77669299  0.09661401  0.89445651  1
  Al  Al3  1  0.89328211  0.20752016  0.63709106  1
  Al  Al4  1  0.44457892  0.09437720  0.38789136  1
  Al  Al5  1  0.55419127  0.20447058  0.13740529  1
  Al  Al6  1  0.11150091  0.09483424  0.88681418  1
  Al  Al7  1  0.22222222  0.20555555  0.63588602  1
  Al  Al8  1  0.77338549  0.10322901  0.38257474  1
  Al  Al9  1  0.89133816  0.20447059  0.13740529  1
  Al  Al10  1  0.44366483  0.09483424  0.88681418  1
  Al  Al11  1  0.54919770  0.20752016  0.63709106  1
  Al  Al12  1  0.11104386  0.42791226  0.38789136  1
  Al  Al13  1  0.22113725  0.53752460  0.13740529  1
  Al  Al14  1  0.77929611  0.42701861  0.89472917  1
  Al  Al15  1  0.89328212  0.53253103  0.63709107  1
  Al  Al16  1  0.43979423  0.42312756  0.38211595  1
  Al  Al17  1  0.55555556  0.53888890  0.13919432  1
  Al  Al18  1  0.11150090  0.42699817  0.88681418  1
  Al  Al19  1  0.22418683  0.53253103  0.63709106  1
  Al  Al20  1  0.78707820  0.42312757  0.38211596  1
  Al  Al21  1  0.89133816  0.53752461  0.13740529  1
  Al  Al22  1  0.44368527  0.42701860  0.89472917  1
  Al  Al23  1  0.11989568  0.75671883  0.38257474  1
  Al  Al24  1  0.22113726  0.87467150  0.13740529  1
  Al  Al25  1  0.77669300  0.76002634  0.89445651  1
  Al  Al26  1  0.43979423  0.77041153  0.38211596  1
  Al  Al27  1  0.55419128  0.87467150  0.13740529  1
  Al  Al28  1  0.11328067  0.76002633  0.89445651  1
  Al  Al29  1  0.22418683  0.87661544  0.63709107  1
  Al  Al30  1  0.77338549  0.75671883  0.38257474  1
  Al  Al31  1  0.88888890  0.87222224  0.13959236  1
  Al  Al32  1  0.44368528  0.76262944  0.89472917  1
  Al  Al33  1  0.54919770  0.87661545  0.63709107  1
  Gd  Gd34  1  0.55555555  0.53888888  0.62788526  1
  Gd  Gd35  1  0.88888889  0.87222222  0.62974356  1
  N  N36  1  0.22222222  0.20555556  0.32931774  1
  N  N37  1  0.11171426  0.09504760  0.07653768  1
  N  N38  1  0.88816012  0.20604194  0.82989673  1
  N  N39  1  0.76013839  0.12972318  0.57004404  1
  N  N40  1  0.55412906  0.20335429  0.32424164  1
  N  N41  1  0.44323813  0.09504760  0.07653768  1
  N  N42  1  0.22222222  0.20555556  0.82679002  1
  N  N43  1  0.11063212  0.09396545  0.57914796  1
  N  N44  1  0.89251665  0.20335429  0.32424164  1
  N  N45  1  0.77695086  0.09609828  0.08367410  1
  N  N46  1  0.55579794  0.20604193  0.82989673  1
  N  N47  1  0.44540241  0.09396544  0.57914796  1
  N  N48  1  0.22002095  0.53746240  0.32424164  1
  N  N49  1  0.11171426  0.42657147  0.07653768  1
  N  N50  1  0.88816012  0.53913128  0.82989673  1
  N  N51  1  0.81134951  0.41099190  0.56692917  1
  N  N52  1  0.55555556  0.53888889  0.33585021  1
  N  N53  1  0.44350001  0.42683334  0.08370944  1
  N  N54  1  0.22270860  0.53913127  0.82989673  1
  N  N55  1  0.11063211  0.42873575  0.57914796  1
  N  N56  1  0.89251665  0.53746239  0.32424164  1
  N  N57  1  0.77966665  0.42683335  0.08370944  1
  N  N58  1  0.55555555  0.53888889  0.85163305  1
  N  N59  1  0.42765857  0.41099190  0.56692916  1
  N  N60  1  0.22002096  0.87584998  0.32424164  1
  N  N61  1  0.11276495  0.76028420  0.08367410  1
  N  N62  1  0.88888889  0.87222223  0.85177749  1
  N  N63  1  0.76013841  0.74347174  0.57004403  1
  N  N64  1  0.55412906  0.87584998  0.32424164  1
  N  N65  1  0.44350002  0.76299999  0.08370944  1
  N  N66  1  0.22270861  0.87149345  0.82989673  1
  N  N67  1  0.14638985  0.74347172  0.57004404  1
  N  N68  1  0.88888890  0.87222223  0.33753693  1
  N  N69  1  0.77695087  0.76028421  0.08367410  1
  N  N70  1  0.55579795  0.87149345  0.82989673  1
  N  N71  1  0.42765857  0.79468284  0.56692917  1
