# generated using pymatgen
data_GdAl17N18
_symmetry_space_group_name_H-M   'P 1'
_cell_length_a   9.88404918
_cell_length_b   9.88404818
_cell_length_c   9.08607481
_cell_angle_alpha   89.99999069
_cell_angle_beta   89.99998608
_cell_angle_gamma   60.00000710
_symmetry_Int_Tables_number   1
_chemical_formula_structural   GdAl17N18
_chemical_formula_sum   'Gd2 Al34 N36'
_cell_volume   768.73511983
_cell_formula_units_Z   2
loop_
 _symmetry_equiv_pos_site_id
 _symmetry_equiv_pos_as_xyz
  1  'x, y, z'
loop_
 _atom_site_type_symbol
 _atom_site_label
 _atom_site_symmetry_multiplicity
 _atom_site_fract_x
 _atom_site_fract_y
 _atom_site_fract_z
 _atom_site_occupancy
  Al  Al0  1  0.11022437  0.09355761  0.37513919  1
  Al  Al1  1  0.22222230  0.20555563  0.12803205  1
  Al  Al2  1  0.77565888  0.09868239  0.88130611  1
  Al  Al3  1  0.89245265  0.20694618  0.62593064  1
  Al  Al4  1  0.44621795  0.09355772  0.37513982  1
  Al  Al5  1  0.55273687  0.20381142  0.12028121  1
  Al  Al6  1  0.11286182  0.09619528  0.87200027  1
  Al  Al7  1  0.22222219  0.20555547  0.61752470  1
  Al  Al8  1  0.77331502  0.10336980  0.36027263  1
  Al  Al9  1  0.89345156  0.20381150  0.12028136  1
  Al  Al10  1  0.44094310  0.09619510  0.87199980  1
  Al  Al11  1  0.55060134  0.20694632  0.62593077  1
  Al  Al12  1  0.11022438  0.42955138  0.37513989  1
  Al  Al13  1  0.22047804  0.53607028  0.12028084  1
  Al  Al14  1  0.78120550  0.42606398  0.88237228  1
  Al  Al15  1  0.89245238  0.53393472  0.62593087  1
  Al  Al16  1  0.43920379  0.42253736  0.36202793  1
  Al  Al17  1  0.55555553  0.53888901  0.11616782  1
  Al  Al18  1  0.11286178  0.42427627  0.87199980  1
  Al  Al19  1  0.22361283  0.53393470  0.62593091  1
  Al  Al20  1  0.78825908  0.42253712  0.36202817  1
  Al  Al21  1  0.89345183  0.53607007  0.12028152  1
  Al  Al22  1  0.44273070  0.42606383  0.88237204  1
  Al  Al23  1  0.12003604  0.75664857  0.36027232  1
  Al  Al24  1  0.22047827  0.87678479  0.12028088  1
  Al  Al25  1  0.77565888  0.75899216  0.88130686  1
  Al  Al26  1  0.43920383  0.77159209  0.36202836  1
  Al  Al27  1  0.55273667  0.87678507  0.12028141  1
  Al  Al28  1  0.11534904  0.75899220  0.88130545  1
  Al  Al29  1  0.22361267  0.87578601  0.62593063  1
  Al  Al30  1  0.77331498  0.75664833  0.36027254  1
  Al  Al31  1  0.88888891  0.87222228  0.11462625  1
  Al  Al32  1  0.44273072  0.76453889  0.88237154  1
  Al  Al33  1  0.55060151  0.87578561  0.62593072  1
  Gd  Gd34  1  0.55555585  0.53888858  0.60692595  1
  Gd  Gd35  1  0.88888848  0.87222228  0.60696447  1
  N  N36  1  0.22222231  0.20555565  0.34257924  1
  N  N37  1  0.11333139  0.09666481  0.08311204  1
  N  N38  1  0.88913013  0.20568325  0.84187387  1
  N  N39  1  0.76083905  0.12832196  0.57936797  1
  N  N40  1  0.55359173  0.20255434  0.32922096  1
  N  N41  1  0.44000385  0.09666473  0.08311151  1
  N  N42  1  0.22222227  0.20555544  0.83000520  1
  N  N43  1  0.10959356  0.09292688  0.58872629  1
  N  N44  1  0.89385380  0.20255426  0.32922095  1
  N  N45  1  0.77619349  0.09761297  0.09257569  1
  N  N46  1  0.55518689  0.20568313  0.84187389  1
  N  N47  1  0.44747975  0.09292677  0.58872685  1
  N  N48  1  0.21922085  0.53692530  0.32922085  1
  N  N49  1  0.11333139  0.42333712  0.08311149  1
  N  N50  1  0.88912989  0.53852033  0.84187385  1
  N  N51  1  0.81025273  0.41154033  0.57699896  1
  N  N52  1  0.55555562  0.53888895  0.33576524  1
  N  N53  1  0.44274509  0.42607835  0.09293180  1
  N  N54  1  0.22234998  0.53851991  0.84187414  1
  N  N55  1  0.10959349  0.43081298  0.58872694  1
  N  N56  1  0.89385409  0.53692497  0.32922094  1
  N  N57  1  0.78117662  0.42607839  0.09293185  1
  N  N58  1  0.55555568  0.53888880  0.86359266  1
  N  N59  1  0.42820713  0.41154039  0.57699920  1
  N  N60  1  0.21922105  0.87718693  0.32922094  1
  N  N61  1  0.11427950  0.75952691  0.09257543  1
  N  N62  1  0.88888874  0.87222224  0.86292976  1
  N  N63  1  0.76083898  0.74417221  0.57936713  1
  N  N64  1  0.55359149  0.87718730  0.32922105  1
  N  N65  1  0.44274511  0.76450993  0.09293137  1
  N  N66  1  0.22234982  0.87246369  0.84187405  1
  N  N67  1  0.14498802  0.74417264  0.57936880  1
  N  N68  1  0.88888874  0.87222233  0.33614209  1
  N  N69  1  0.77619348  0.75952685  0.09257619  1
  N  N70  1  0.55518718  0.87246333  0.84187377  1
  N  N71  1  0.42820727  0.79358559  0.57699974  1
