# generated using pymatgen
data_GdAl17N18
_symmetry_space_group_name_H-M   'P 1'
_cell_length_a   9.51731071
_cell_length_b   9.51731070
_cell_length_c   10.11276103
_cell_angle_alpha   89.99999976
_cell_angle_beta   89.99999961
_cell_angle_gamma   60.00000165
_symmetry_Int_Tables_number   1
_chemical_formula_structural   GdAl17N18
_chemical_formula_sum   'Gd2 Al34 N36'
_cell_volume   793.28433702
_cell_formula_units_Z   2
loop_
 _symmetry_equiv_pos_site_id
 _symmetry_equiv_pos_as_xyz
  1  'x, y, z'
loop_
 _atom_site_type_symbol
 _atom_site_label
 _atom_site_symmetry_multiplicity
 _atom_site_fract_x
 _atom_site_fract_y
 _atom_site_fract_z
 _atom_site_occupancy
  Al  Al0  1  0.11149611  0.09482944  0.30304137  1
  Al  Al1  1  0.22222223  0.20555556  0.05230124  1
  Al  Al2  1  0.77340527  0.10318947  0.80727671  1
  Al  Al3  1  0.89327806  0.20751895  0.55278222  1
  Al  Al4  1  0.44367445  0.09482943  0.30304137  1
  Al  Al5  1  0.55418702  0.20447167  0.05241814  1
  Al  Al6  1  0.11104773  0.09438106  0.80196235  1
  Al  Al7  1  0.22222222  0.20555556  0.55395757  1
  Al  Al8  1  0.77668006  0.09663988  0.29536332  1
  Al  Al9  1  0.89134133  0.20447168  0.05241814  1
  Al  Al10  1  0.44457120  0.09438106  0.80196235  1
  Al  Al11  1  0.54920296  0.20751896  0.55278222  1
  Al  Al12  1  0.11149610  0.42700778  0.30304137  1
  Al  Al13  1  0.22113833  0.53752035  0.05241814  1
  Al  Al14  1  0.78704019  0.42314657  0.80773282  1
  Al  Al15  1  0.89327807  0.53253629  0.55278221  1
  Al  Al16  1  0.44367272  0.42700605  0.29509798  1
  Al  Al17  1  0.55555556  0.53888890  0.05069497  1
  Al  Al18  1  0.11104772  0.42790453  0.80196235  1
  Al  Al19  1  0.22418562  0.53253629  0.55278222  1
  Al  Al20  1  0.77932121  0.42700606  0.29509798  1
  Al  Al21  1  0.89134133  0.53752036  0.05241814  1
  Al  Al22  1  0.43981323  0.42314656  0.80773282  1
  Al  Al23  1  0.11330655  0.76001339  0.29536332  1
  Al  Al24  1  0.22113834  0.87467466  0.05241814  1
  Al  Al25  1  0.77340526  0.75673859  0.80727671  1
  Al  Al26  1  0.44367273  0.76265454  0.29509797  1
  Al  Al27  1  0.55418703  0.87467466  0.05241814  1
  Al  Al28  1  0.11985614  0.75673860  0.80727671  1
  Al  Al29  1  0.22418562  0.87661140  0.55278222  1
  Al  Al30  1  0.77668006  0.76001340  0.29536332  1
  Al  Al31  1  0.88888890  0.87222224  0.05029869  1
  Al  Al32  1  0.43981324  0.77037353  0.80773282  1
  Al  Al33  1  0.54920295  0.87661140  0.55278221  1
  Gd  Gd34  1  0.55555555  0.53888889  0.56184636  1
  Gd  Gd35  1  0.88888889  0.87222222  0.55997788  1
  N  N36  1  0.22222222  0.20555556  0.36306976  1
  N  N37  1  0.11170905  0.09504238  0.11332943  1
  N  N38  1  0.89251301  0.20335666  0.86560356  1
  N  N39  1  0.76016359  0.12967280  0.61982679  1
  N  N40  1  0.55580209  0.20604298  0.35998412  1
  N  N41  1  0.44324858  0.09504238  0.11332942  1
  N  N42  1  0.22222222  0.20555556  0.86056654  1
  N  N43  1  0.11063807  0.09397140  0.61072354  1
  N  N44  1  0.88815493  0.20604299  0.35998412  1
  N  N45  1  0.77693772  0.09612458  0.10617466  1
  N  N46  1  0.55413034  0.20335665  0.86560356  1
  N  N47  1  0.44539051  0.09397140  0.61072355  1
  N  N48  1  0.22270965  0.53913543  0.35998412  1
  N  N49  1  0.11170905  0.42658191  0.11332942  1
  N  N50  1  0.89251301  0.53746367  0.86560356  1
  N  N51  1  0.81130418  0.41101456  0.62293632  1
  N  N52  1  0.55555555  0.53888888  0.33813258  1
  N  N53  1  0.44348833  0.42682166  0.10614469  1
  N  N54  1  0.22002332  0.53746367  0.86560356  1
  N  N55  1  0.11063807  0.42872385  0.61072355  1
  N  N56  1  0.88815492  0.53913543  0.35998412  1
  N  N57  1  0.77969002  0.42682167  0.10614469  1
  N  N58  1  0.55555556  0.53888889  0.85406417  1
  N  N59  1  0.42768124  0.41101457  0.62293633  1
  N  N60  1  0.22270966  0.87148826  0.35998412  1
  N  N61  1  0.11279125  0.76027105  0.10617467  1
  N  N62  1  0.88888889  0.87222223  0.85238499  1
  N  N63  1  0.76016360  0.74349693  0.61982679  1
  N  N64  1  0.55580210  0.87148826  0.35998411  1
  N  N65  1  0.44348833  0.76302336  0.10614469  1
  N  N66  1  0.22002332  0.87584635  0.86560356  1
  N  N67  1  0.14633947  0.74349692  0.61982679  1
  N  N68  1  0.88888889  0.87222222  0.33797607  1
  N  N69  1  0.77693772  0.76027106  0.10617466  1
  N  N70  1  0.55413033  0.87584634  0.86560356  1
  N  N71  1  0.42768123  0.79463752  0.62293632  1
