# generated using pymatgen
data_GdAl17N18
_symmetry_space_group_name_H-M   'P 1'
_cell_length_a   9.71685671
_cell_length_b   9.71685119
_cell_length_c   9.57442827
_cell_angle_alpha   89.99999667
_cell_angle_beta   90.00000707
_cell_angle_gamma   60.00000900
_symmetry_Int_Tables_number   1
_chemical_formula_structural   GdAl17N18
_chemical_formula_sum   'Gd2 Al34 N36'
_cell_volume   782.87941008
_cell_formula_units_Z   2
loop_
 _symmetry_equiv_pos_site_id
 _symmetry_equiv_pos_as_xyz
  1  'x, y, z'
loop_
 _atom_site_type_symbol
 _atom_site_label
 _atom_site_symmetry_multiplicity
 _atom_site_fract_x
 _atom_site_fract_y
 _atom_site_fract_z
 _atom_site_occupancy
  Al  Al0  1  0.11056681  0.09389997  0.38139860  1
  Al  Al1  1  0.22222214  0.20555563  0.13239774  1
  Al  Al2  1  0.77653418  0.09693195  0.88640246  1
  Al  Al3  1  0.89261912  0.20746989  0.63121217  1
  Al  Al4  1  0.44553296  0.09390019  0.38139860  1
  Al  Al5  1  0.55337507  0.20394305  0.12763407  1
  Al  Al6  1  0.11229276  0.09562602  0.87831758  1
  Al  Al7  1  0.22222191  0.20555566  0.62583021  1
  Al  Al8  1  0.77274694  0.10450636  0.37114524  1
  Al  Al9  1  0.89268200  0.20394298  0.12763418  1
  Al  Al10  1  0.44208102  0.09562615  0.87831753  1
  Al  Al11  1  0.54991078  0.20747090  0.63121196  1
  Al  Al12  1  0.11056682  0.42886654  0.38139874  1
  Al  Al13  1  0.22060957  0.53670852  0.12763412  1
  Al  Al14  1  0.77946807  0.42693264  0.88728096  1
  Al  Al15  1  0.89261899  0.53324433  0.63121218  1
  Al  Al16  1  0.43878143  0.42211536  0.37161470  1
  Al  Al17  1  0.55555556  0.53888892  0.12795565  1
  Al  Al18  1  0.11229275  0.42541458  0.87831744  1
  Al  Al19  1  0.22413564  0.53324526  0.63121240  1
  Al  Al20  1  0.78910330  0.42211500  0.37161481  1
  Al  Al21  1  0.89268208  0.53670828  0.12763419  1
  Al  Al22  1  0.44359918  0.42693283  0.88728105  1
  Al  Al23  1  0.12117301  0.75608017  0.37114540  1
  Al  Al24  1  0.22060967  0.87601515  0.12763414  1
  Al  Al25  1  0.77653417  0.75986727  0.88640262  1
  Al  Al26  1  0.43878143  0.77243651  0.37161487  1
  Al  Al27  1  0.55337499  0.87601520  0.12763411  1
  Al  Al28  1  0.11359869  0.75986736  0.88640235  1
  Al  Al29  1  0.22413548  0.87595256  0.63121241  1
  Al  Al30  1  0.77274691  0.75608003  0.37114509  1
  Al  Al31  1  0.88888908  0.87222217  0.12718812  1
  Al  Al32  1  0.44359917  0.76280135  0.88728091  1
  Al  Al33  1  0.54991070  0.87595157  0.63121192  1
  Gd  Gd34  1  0.55555574  0.53888869  0.61221470  1
  Gd  Gd35  1  0.88888917  0.87222204  0.61293629  1
  N  N36  1  0.22222246  0.20555548  0.33368336  1
  N  N37  1  0.11269526  0.09602873  0.07692379  1
  N  N38  1  0.88850585  0.20598994  0.83323790  1
  N  N39  1  0.75970720  0.13058518  0.57123783  1
  N  N40  1  0.55363899  0.20266447  0.32375105  1
  N  N41  1  0.44127618  0.09602858  0.07692361  1
  N  N42  1  0.22222246  0.20555543  0.82559948  1
  N  N43  1  0.10987931  0.09321245  0.58166110  1
  N  N44  1  0.89369631  0.20266457  0.32375092  1
  N  N45  1  0.77675030  0.09649909  0.08515751  1
  N  N46  1  0.55550426  0.20598981  0.83323783  1
  N  N47  1  0.44690843  0.09321245  0.58166123  1
  N  N48  1  0.21933131  0.53697222  0.32375084  1
  N  N49  1  0.11269526  0.42460936  0.07692363  1
  N  N50  1  0.88850579  0.53883766  0.83323789  1
  N  N51  1  0.81229897  0.41051724  0.56871604  1
  N  N52  1  0.55555570  0.53888884  0.33573956  1
  N  N53  1  0.44326724  0.42660032  0.08564410  1
  N  N54  1  0.22265677  0.53883736  0.83323790  1
  N  N55  1  0.10987926  0.43024164  0.58166128  1
  N  N56  1  0.89369640  0.53697235  0.32375095  1
  N  N57  1  0.78013238  0.42660050  0.08564409  1
  N  N58  1  0.55555567  0.53888882  0.85232728  1
  N  N59  1  0.42718516  0.41051586  0.56871603  1
  N  N60  1  0.21933140  0.87702969  0.32375084  1
  N  N61  1  0.11316552  0.76008390  0.08515742  1
  N  N62  1  0.88888868  0.87222230  0.85158739  1
  N  N63  1  0.75970717  0.74304091  0.57123766  1
  N  N64  1  0.55363891  0.87702984  0.32375109  1
  N  N65  1  0.44326727  0.76346579  0.08564397  1
  N  N66  1  0.22265674  0.87183926  0.83323789  1
  N  N67  1  0.14725128  0.74304102  0.57123802  1
  N  N68  1  0.88888866  0.87222235  0.33662290  1
  N  N69  1  0.77675030  0.76008396  0.08515765  1
  N  N70  1  0.55550434  0.87183926  0.83323781  1
  N  N71  1  0.42718540  0.79563221  0.56871622  1
