# generated using pymatgen
data_GdAl17N18
_symmetry_space_group_name_H-M   'P 1'
_cell_length_a   9.71541487
_cell_length_b   9.71541366
_cell_length_c   9.57849779
_cell_angle_alpha   89.99999606
_cell_angle_beta   89.99998938
_cell_angle_gamma   60.00000743
_symmetry_Int_Tables_number   1
_chemical_formula_structural   GdAl17N18
_chemical_formula_sum   'Gd2 Al34 N36'
_cell_volume   782.98008251
_cell_formula_units_Z   2
loop_
 _symmetry_equiv_pos_site_id
 _symmetry_equiv_pos_as_xyz
  1  'x, y, z'
loop_
 _atom_site_type_symbol
 _atom_site_label
 _atom_site_symmetry_multiplicity
 _atom_site_fract_x
 _atom_site_fract_y
 _atom_site_fract_z
 _atom_site_occupancy
  Al  Al0  1  0.11227940  0.09561272  0.33013494  1
  Al  Al1  1  0.22222216  0.20555553  0.07610823  1
  Al  Al2  1  0.77274381  0.10451247  0.83727770  1
  Al  Al3  1  0.89262222  0.20746584  0.57725435  1
  Al  Al4  1  0.44210775  0.09561277  0.33013479  1
  Al  Al5  1  0.55337383  0.20395190  0.08079715  1
  Al  Al6  1  0.11057864  0.09391201  0.82705869  1
  Al  Al7  1  0.22222218  0.20555564  0.58257347  1
  Al  Al8  1  0.77654257  0.09691481  0.32203026  1
  Al  Al9  1  0.89267431  0.20395185  0.08079716  1
  Al  Al10  1  0.44550929  0.09391204  0.82705888  1
  Al  Al11  1  0.54991190  0.20746590  0.57725443  1
  Al  Al12  1  0.11227939  0.42544120  0.33013480  1
  Al  Al13  1  0.22061858  0.53670714  0.08079706  1
  Al  Al14  1  0.78910296  0.42211520  0.83679581  1
  Al  Al15  1  0.89262238  0.53324519  0.57725438  1
  Al  Al16  1  0.44360360  0.42693705  0.32119219  1
  Al  Al17  1  0.55555556  0.53888885  0.08045286  1
  Al  Al18  1  0.11057867  0.42884265  0.82705886  1
  Al  Al19  1  0.22413229  0.53324537  0.57725439  1
  Al  Al20  1  0.77945928  0.42693699  0.32119215  1
  Al  Al21  1  0.89267426  0.53670720  0.08079716  1
  Al  Al22  1  0.43878186  0.42211522  0.83679572  1
  Al  Al23  1  0.11358152  0.75987586  0.32203020  1
  Al  Al24  1  0.22061849  0.87600764  0.08079709  1
  Al  Al25  1  0.77274380  0.75607706  0.83727755  1
  Al  Al26  1  0.44360359  0.76279263  0.32119203  1
  Al  Al27  1  0.55337392  0.87600757  0.08079718  1
  Al  Al28  1  0.12117926  0.75607704  0.83727770  1
  Al  Al29  1  0.22413235  0.87595563  0.57725436  1
  Al  Al30  1  0.77654256  0.75987586  0.32203043  1
  Al  Al31  1  0.88888892  0.87222215  0.08116723  1
  Al  Al32  1  0.43878182  0.77243635  0.83679593  1
  Al  Al33  1  0.54991181  0.87595563  0.57725442  1
  Gd  Gd34  1  0.55555555  0.53888905  0.59621521  1
  Gd  Gd35  1  0.88888911  0.87222214  0.59547971  1
  N  N36  1  0.22222224  0.20555557  0.38289508  1
  N  N37  1  0.11268376  0.09601711  0.13161385  1
  N  N38  1  0.89369546  0.20267264  0.88476636  1
  N  N39  1  0.75970365  0.13059264  0.63731574  1
  N  N40  1  0.55551856  0.20598424  0.37531860  1
  N  N41  1  0.44129907  0.09601712  0.13161371  1
  N  N42  1  0.22222223  0.20555551  0.87490751  1
  N  N43  1  0.10988772  0.09322109  0.62687885  1
  N  N44  1  0.88849708  0.20598428  0.37531859  1
  N  N45  1  0.77675482  0.09649025  0.12335743  1
  N  N46  1  0.55363194  0.20267265  0.88476632  1
  N  N47  1  0.44689115  0.09322114  0.62687902  1
  N  N48  1  0.22265092  0.53885190  0.37531863  1
  N  N49  1  0.11268378  0.42463240  0.13161370  1
  N  N50  1  0.89369541  0.53696530  0.88476636  1
  N  N51  1  0.81230836  0.41051245  0.63981325  1
  N  N52  1  0.55555553  0.53888891  0.35624906  1
  N  N53  1  0.44327149  0.42660478  0.12291017  1
  N  N54  1  0.21933940  0.53696516  0.88476631  1
  N  N55  1  0.10988778  0.43022450  0.62687903  1
  N  N56  1  0.88849715  0.53885184  0.37531860  1
  N  N57  1  0.78012367  0.42660480  0.12291013  1
  N  N58  1  0.55555558  0.53888890  0.87275623  1
  N  N59  1  0.42717942  0.41051226  0.63981314  1
  N  N60  1  0.22265097  0.87183042  0.37531861  1
  N  N61  1  0.11315695  0.76008815  0.12335737  1
  N  N62  1  0.88888892  0.87222220  0.87185814  1
  N  N63  1  0.75970365  0.74303707  0.63731558  1
  N  N64  1  0.55551846  0.87183051  0.37531858  1
  N  N65  1  0.44327147  0.76345703  0.12291002  1
  N  N66  1  0.21933930  0.87702887  0.88476634  1
  N  N67  1  0.14725945  0.74303695  0.63731579  1
  N  N68  1  0.88888888  0.87222221  0.35696343  1
  N  N69  1  0.77675483  0.76008819  0.12335758  1
  N  N70  1  0.55363201  0.87702880  0.88476636  1
  N  N71  1  0.42717928  0.79564188  0.63981337  1
