# generated using pymatgen
data_GdAl17N18
_symmetry_space_group_name_H-M   'P 1'
_cell_length_a   9.81246350
_cell_length_b   9.81246545
_cell_length_c   9.29765559
_cell_angle_alpha   89.99999344
_cell_angle_beta   89.99999313
_cell_angle_gamma   60.00000949
_symmetry_Int_Tables_number   1
_chemical_formula_structural   GdAl17N18
_chemical_formula_sum   'Gd2 Al34 N36'
_cell_volume   775.28311108
_cell_formula_units_Z   2
loop_
 _symmetry_equiv_pos_site_id
 _symmetry_equiv_pos_as_xyz
  1  'x, y, z'
loop_
 _atom_site_type_symbol
 _atom_site_label
 _atom_site_symmetry_multiplicity
 _atom_site_fract_x
 _atom_site_fract_y
 _atom_site_fract_z
 _atom_site_occupancy
  Al  Al0  1  0.11264651  0.09597984  0.33363531  1
  Al  Al1  1  0.22222214  0.20555549  0.07811795  1
  Al  Al2  1  0.77304547  0.10390905  0.84308762  1
  Al  Al3  1  0.89236411  0.20725391  0.57985911  1
  Al  Al4  1  0.44137355  0.09597988  0.33363502  1
  Al  Al5  1  0.55290810  0.20380147  0.08459644  1
  Al  Al6  1  0.11034113  0.09367455  0.82996354  1
  Al  Al7  1  0.22222233  0.20555560  0.58712227  1
  Al  Al8  1  0.77601677  0.09796625  0.32439020  1
  Al  Al9  1  0.89329047  0.20380143  0.08459656  1
  Al  Al10  1  0.44598432  0.09367452  0.82996385  1
  Al  Al11  1  0.55038194  0.20725373  0.57985907  1
  Al  Al12  1  0.11264651  0.42470696  0.33363497  1
  Al  Al13  1  0.22046821  0.53624135  0.08459638  1
  Al  Al14  1  0.78876284  0.42228524  0.84194005  1
  Al  Al15  1  0.89236436  0.53371516  0.57985920  1
  Al  Al16  1  0.44310869  0.42644204  0.32347794  1
  Al  Al17  1  0.55555559  0.53888879  0.08731121  1
  Al  Al18  1  0.11034117  0.42931760  0.82996396  1
  Al  Al19  1  0.22392047  0.53371519  0.57985932  1
  Al  Al20  1  0.78044917  0.42644203  0.32347791  1
  Al  Al21  1  0.89329034  0.53624153  0.08459658  1
  Al  Al22  1  0.43895200  0.42228512  0.84193991  1
  Al  Al23  1  0.11463292  0.75935014  0.32438994  1
  Al  Al24  1  0.22046801  0.87662390  0.08459644  1
  Al  Al25  1  0.77304548  0.75637885  0.84308733  1
  Al  Al26  1  0.44310867  0.76378252  0.32347755  1
  Al  Al27  1  0.55290827  0.87662375  0.08459651  1
  Al  Al28  1  0.12057593  0.75637871  0.84308772  1
  Al  Al29  1  0.22392057  0.87569760  0.57985921  1
  Al  Al30  1  0.77601676  0.75935014  0.32439063  1
  Al  Al31  1  0.88888884  0.87222214  0.08853871  1
  Al  Al32  1  0.43895192  0.77209637  0.84194034  1
  Al  Al33  1  0.55038174  0.87569784  0.57985905  1
  Gd  Gd34  1  0.55555550  0.53888917  0.59947681  1
  Gd  Gd35  1  0.88888888  0.87222231  0.59909468  1
  N  N36  1  0.22222223  0.20555562  0.38090147  1
  N  N37  1  0.11310065  0.09643402  0.12865292  1
  N  N38  1  0.89397351  0.20250668  0.88201056  1
  N  N39  1  0.76030043  0.12939913  0.63348499  1
  N  N40  1  0.55539124  0.20587972  0.37080297  1
  N  N41  1  0.44046526  0.09643403  0.12865256  1
  N  N42  1  0.22222220  0.20555548  0.86997711  1
  N  N43  1  0.10965904  0.09299239  0.62298256  1
  N  N44  1  0.88872888  0.20587970  0.37080294  1
  N  N45  1  0.77637484  0.09725017  0.11927272  1
  N  N46  1  0.55351988  0.20250670  0.88201056  1
  N  N47  1  0.44734839  0.09299254  0.62298296  1
  N  N48  1  0.22254633  0.53872468  0.37080302  1
  N  N49  1  0.11310068  0.42379859  0.12865255  1
  N  N50  1  0.89397337  0.53685330  0.88201056  1
  N  N51  1  0.81125013  0.41104156  0.63577236  1
  N  N52  1  0.55555547  0.53888896  0.34971578  1
  N  N53  1  0.44291037  0.42624363  0.11888437  1
  N  N54  1  0.21917350  0.53685305  0.88201045  1
  N  N55  1  0.10965913  0.43068184  0.62298302  1
  N  N56  1  0.88872905  0.53872448  0.37080299  1
  N  N57  1  0.78084593  0.42624366  0.11888432  1
  N  N58  1  0.55555555  0.53888889  0.87265122  1
  N  N59  1  0.42770835  0.41104150  0.63577231  1
  N  N60  1  0.22254646  0.87206214  0.37080294  1
  N  N61  1  0.11391689  0.75970816  0.11927262  1
  N  N62  1  0.88888897  0.87222215  0.87204275  1
  N  N63  1  0.76030046  0.74363381  0.63348456  1
  N  N64  1  0.55539103  0.87206236  0.37080293  1
  N  N65  1  0.44291035  0.76417929  0.11888401  1
  N  N66  1  0.21917329  0.87730699  0.88201051  1
  N  N67  1  0.14606633  0.74363351  0.63348528  1
  N  N68  1  0.88888898  0.87222218  0.35038616  1
  N  N69  1  0.77637486  0.75970821  0.11927310  1
  N  N70  1  0.55352006  0.87730682  0.88201063  1
  N  N71  1  0.42770816  0.79458382  0.63577277  1
