# generated using pymatgen
data_GdAl17N18
_symmetry_space_group_name_H-M   'P 1'
_cell_length_a   9.81400773
_cell_length_b   9.81400901
_cell_length_c   9.29316100
_cell_angle_alpha   89.99999312
_cell_angle_beta   89.99998470
_cell_angle_gamma   60.00000592
_symmetry_Int_Tables_number   1
_chemical_formula_structural   GdAl17N18
_chemical_formula_sum   'Gd2 Al34 N36'
_cell_volume   775.15216965
_cell_formula_units_Z   2
loop_
 _symmetry_equiv_pos_site_id
 _symmetry_equiv_pos_as_xyz
  1  'x, y, z'
loop_
 _atom_site_type_symbol
 _atom_site_label
 _atom_site_symmetry_multiplicity
 _atom_site_fract_x
 _atom_site_fract_y
 _atom_site_fract_z
 _atom_site_occupancy
  Al  Al0  1  0.11032230  0.09365551  0.37846865  1
  Al  Al1  1  0.22222227  0.20555561  0.13041062  1
  Al  Al2  1  0.77600743  0.09798523  0.88400107  1
  Al  Al3  1  0.89236869  0.20725702  0.62860214  1
  Al  Al4  1  0.44602214  0.09365562  0.37846906  1
  Al  Al5  1  0.55291614  0.20379289  0.12380699  1
  Al  Al6  1  0.11266677  0.09600017  0.87481672  1
  Al  Al7  1  0.22222225  0.20555547  0.62123643  1
  Al  Al8  1  0.77304994  0.10389996  0.36531043  1
  Al  Al9  1  0.89329087  0.20379294  0.12380701  1
  Al  Al10  1  0.44133320  0.09600005  0.87481635  1
  Al  Al11  1  0.55037437  0.20725716  0.62860226  1
  Al  Al12  1  0.11032232  0.42935552  0.37846907  1
  Al  Al13  1  0.22045951  0.53624955  0.12380675  1
  Al  Al14  1  0.78045821  0.42643760  0.88498133  1
  Al  Al15  1  0.89236851  0.53370779  0.62860222  1
  Al  Al16  1  0.43895457  0.42228806  0.36644157  1
  Al  Al17  1  0.55555555  0.53888897  0.12109099  1
  Al  Al18  1  0.11266674  0.42466642  0.87481636  1
  Al  Al19  1  0.22392363  0.53370781  0.62860229  1
  Al  Al20  1  0.78875745  0.42228794  0.36644170  1
  Al  Al21  1  0.89329107  0.53624936  0.12380706  1
  Al  Al22  1  0.44310432  0.42643753  0.88498130  1
  Al  Al23  1  0.12056642  0.75638342  0.36531040  1
  Al  Al24  1  0.22045969  0.87662409  0.12380679  1
  Al  Al25  1  0.77600741  0.75934073  0.88400146  1
  Al  Al26  1  0.43895459  0.77209064  0.36644194  1
  Al  Al27  1  0.55291598  0.87662432  0.12380709  1
  Al  Al28  1  0.11465182  0.75934080  0.88400083  1
  Al  Al29  1  0.22392351  0.87570205  0.62860219  1
  Al  Al30  1  0.77304994  0.75638333  0.36531018  1
  Al  Al31  1  0.88888893  0.87222226  0.11977929  1
  Al  Al32  1  0.44310433  0.76379154  0.88498097  1
  Al  Al33  1  0.55037447  0.87570176  0.62860223  1
  Gd  Gd34  1  0.55555580  0.53888863  0.60895186  1
  Gd  Gd35  1  0.88888834  0.87222237  0.60931263  1
  N  N36  1  0.22222229  0.20555561  0.33866216  1
  N  N37  1  0.11311607  0.09644944  0.07991739  1
  N  N38  1  0.88874830  0.20588560  0.83778495  1
  N  N39  1  0.76030579  0.12938845  0.57511976  1
  N  N40  1  0.55353568  0.20250025  0.32651648  1
  N  N41  1  0.44043455  0.09644939  0.07991707  1
  N  N42  1  0.22222228  0.20555547  0.82758880  1
  N  N43  1  0.10964783  0.09298106  0.58556471  1
  N  N44  1  0.89396400  0.20250023  0.32651648  1
  N  N45  1  0.77637332  0.09725327  0.08923776  1
  N  N46  1  0.55536626  0.20588559  0.83778490  1
  N  N47  1  0.44737120  0.09298105  0.58556508  1
  N  N48  1  0.21916682  0.53686914  0.32651641  1
  N  N49  1  0.11311608  0.42376780  0.07991703  1
  N  N50  1  0.88874815  0.53869967  0.83778495  1
  N  N51  1  0.81123720  0.41104803  0.57277999  1
  N  N52  1  0.55555560  0.53888894  0.33584257  1
  N  N53  1  0.44290883  0.42624210  0.08968701  1
  N  N54  1  0.22255236  0.53869944  0.83778507  1
  N  N55  1  0.10964778  0.43070450  0.58556515  1
  N  N56  1  0.89396419  0.53686891  0.32651649  1
  N  N57  1  0.78084910  0.42624213  0.08968703  1
  N  N58  1  0.55555565  0.53888883  0.85887487  1
  N  N59  1  0.42771485  0.41104809  0.57277997  1
  N  N60  1  0.21916698  0.87729720  0.32651646  1
  N  N61  1  0.11391983  0.75970676  0.08923754  1
  N  N62  1  0.88888882  0.87222223  0.85816910  1
  N  N63  1  0.76030576  0.74363901  0.57511932  1
  N  N64  1  0.55353549  0.87729742  0.32651655  1
  N  N65  1  0.44290884  0.76418243  0.08968670  1
  N  N66  1  0.22255224  0.87208172  0.83778502  1
  N  N67  1  0.14605481  0.74363924  0.57512001  1
  N  N68  1  0.88888880  0.87222231  0.33642887  1
  N  N69  1  0.77637332  0.75970674  0.08923813  1
  N  N70  1  0.55536643  0.87208151  0.83778484  1
  N  N71  1  0.42771494  0.79457020  0.57278034  1
