# generated using pymatgen
data_GdAl17N18
_symmetry_space_group_name_H-M   'P 1'
_cell_length_a   10.00291676
_cell_length_b   10.00291711
_cell_length_c   8.73136373
_cell_angle_alpha   89.99998226
_cell_angle_beta   89.99997344
_cell_angle_gamma   60.00001243
_symmetry_Int_Tables_number   1
_chemical_formula_structural   GdAl17N18
_chemical_formula_sum   'Gd2 Al34 N36'
_cell_volume   756.59957164
_cell_formula_units_Z   2
loop_
 _symmetry_equiv_pos_site_id
 _symmetry_equiv_pos_as_xyz
  1  'x, y, z'
loop_
 _atom_site_type_symbol
 _atom_site_label
 _atom_site_symmetry_multiplicity
 _atom_site_fract_x
 _atom_site_fract_y
 _atom_site_fract_z
 _atom_site_occupancy
  Al  Al0  1  0.11261252  0.09594581  0.34301853  1
  Al  Al1  1  0.22222208  0.20555534  0.08954898  1
  Al  Al2  1  0.77384789  0.10230436  0.85802121  1
  Al  Al3  1  0.89318895  0.20606760  0.59112844  1
  Al  Al4  1  0.44144135  0.09594596  0.34301876  1
  Al  Al5  1  0.55287256  0.20413341  0.09622214  1
  Al  Al6  1  0.11062263  0.09395564  0.84349517  1
  Al  Al7  1  0.22222226  0.20555565  0.59758974  1
  Al  Al8  1  0.77507075  0.09985809  0.33502199  1
  Al  Al9  1  0.89299425  0.20413325  0.09622288  1
  Al  Al10  1  0.44542161  0.09395594  0.84349717  1
  Al  Al11  1  0.55074305  0.20606794  0.59112861  1
  Al  Al12  1  0.11261247  0.42477503  0.34301877  1
  Al  Al13  1  0.22080013  0.53620587  0.09622088  1
  Al  Al14  1  0.78676322  0.42328492  0.85559892  1
  Al  Al15  1  0.89318938  0.53407633  0.59113079  1
  Al  Al16  1  0.44194395  0.42527757  0.33432056  1
  Al  Al17  1  0.55555566  0.53888873  0.09963305  1
  Al  Al18  1  0.11062289  0.42875470  0.84349740  1
  Al  Al19  1  0.22273460  0.53407668  0.59112755  1
  Al  Al20  1  0.78277886  0.42527717  0.33432311  1
  Al  Al21  1  0.89299393  0.53620602  0.09622385  1
  Al  Al22  1  0.43995142  0.42328457  0.85559676  1
  Al  Al23  1  0.11652438  0.75840429  0.33501875  1
  Al  Al24  1  0.22079977  0.87632770  0.09622041  1
  Al  Al25  1  0.77384815  0.75718164  0.85802287  1
  Al  Al26  1  0.44194402  0.76611153  0.33431908  1
  Al  Al27  1  0.55287274  0.87632741  0.09622265  1
  Al  Al28  1  0.11897225  0.75718068  0.85801821  1
  Al  Al29  1  0.22273474  0.87652191  0.59112564  1
  Al  Al30  1  0.77507062  0.75840397  0.33502464  1
  Al  Al31  1  0.88888888  0.87222212  0.10073463  1
  Al  Al32  1  0.43995100  0.77009792  0.85559661  1
  Al  Al33  1  0.55074259  0.87652263  0.59112903  1
  Gd  Gd34  1  0.55555504  0.53888949  0.60389022  1
  Gd  Gd35  1  0.88888948  0.87222212  0.60413958  1
  N  N36  1  0.22222213  0.20555572  0.36966024  1
  N  N37  1  0.11323424  0.09656734  0.11613535  1
  N  N38  1  0.89284932  0.20312879  0.87127526  1
  N  N39  1  0.76195898  0.12608174  0.61720516  1
  N  N40  1  0.55477775  0.20495553  0.35750819  1
  N  N41  1  0.44019821  0.09656759  0.11613388  1
  N  N42  1  0.22222211  0.20555529  0.85903820  1
  N  N43  1  0.10995038  0.09328332  0.61278567  1
  N  N44  1  0.89026669  0.20495487  0.35750777  1
  N  N45  1  0.77597812  0.09804361  0.10946029  1
  N  N46  1  0.55402234  0.20312863  0.87127556  1
  N  N47  1  0.44676586  0.09328383  0.61278616  1
  N  N48  1  0.22162176  0.53811192  0.35750916  1
  N  N49  1  0.11323436  0.42353158  0.11613373  1
  N  N50  1  0.89284876  0.53735587  0.87127435  1
  N  N51  1  0.80805152  0.41264072  0.61935319  1
  N  N52  1  0.55555535  0.53888910  0.33832005  1
  N  N53  1  0.44254677  0.42588017  0.10938422  1
  N  N54  1  0.21979564  0.53735511  0.87127628  1
  N  N55  1  0.10995064  0.43009931  0.61278639  1
  N  N56  1  0.89026721  0.53811089  0.35750710  1
  N  N57  1  0.78157299  0.42588008  0.10938398  1
  N  N58  1  0.55555556  0.53888887  0.87306830  1
  N  N59  1  0.42930728  0.41264071  0.61935651  1
  N  N60  1  0.22162211  0.87359920  0.35750947  1
  N  N61  1  0.11471049  0.75931137  0.10946039  1
  N  N62  1  0.88888911  0.87222210  0.87286344  1
  N  N63  1  0.76195904  0.74529282  0.61720171  1
  N  N64  1  0.55477696  0.87360013  0.35750782  1
  N  N65  1  0.44254667  0.76490641  0.10938361  1
  N  N66  1  0.21979509  0.87618320  0.87127700  1
  N  N67  1  0.14274939  0.74529204  0.61720979  1
  N  N68  1  0.88888912  0.87222220  0.33888657  1
  N  N69  1  0.77597816  0.75931152  0.10946087  1
  N  N70  1  0.55402291  0.87618242  0.87127538  1
  N  N71  1  0.42930682  0.79138589  0.61935832  1
