# generated using pymatgen
data_GdAl17N18
_symmetry_space_group_name_H-M   'P 1'
_cell_length_a   9.51731942
_cell_length_b   9.51731941
_cell_length_c   10.11273824
_cell_angle_alpha   89.99999976
_cell_angle_beta   89.99999959
_cell_angle_gamma   60.00000166
_symmetry_Int_Tables_number   1
_chemical_formula_structural   GdAl17N18
_chemical_formula_sum   'Gd2 Al34 N36'
_cell_volume   793.28400011
_cell_formula_units_Z   2
loop_
 _symmetry_equiv_pos_site_id
 _symmetry_equiv_pos_as_xyz
  1  'x, y, z'
loop_
 _atom_site_type_symbol
 _atom_site_label
 _atom_site_symmetry_multiplicity
 _atom_site_fract_x
 _atom_site_fract_y
 _atom_site_fract_z
 _atom_site_occupancy
  Al  Al0  1  0.11149644  0.09482978  0.30425067  1
  Al  Al1  1  0.22222223  0.20555556  0.05350879  1
  Al  Al2  1  0.77340459  0.10319082  0.80848501  1
  Al  Al3  1  0.89327819  0.20751888  0.55398969  1
  Al  Al4  1  0.44367378  0.09482977  0.30425066  1
  Al  Al5  1  0.55418711  0.20447173  0.05362837  1
  Al  Al6  1  0.11104739  0.09438073  0.80317052  1
  Al  Al7  1  0.22222222  0.20555556  0.55516806  1
  Al  Al8  1  0.77668051  0.09663899  0.29657378  1
  Al  Al9  1  0.89134117  0.20447174  0.05362837  1
  Al  Al10  1  0.44457187  0.09438072  0.80317052  1
  Al  Al11  1  0.54920289  0.20751889  0.55398969  1
  Al  Al12  1  0.11149644  0.42700711  0.30425066  1
  Al  Al13  1  0.22113839  0.53752044  0.05362837  1
  Al  Al14  1  0.78704153  0.42314590  0.80894033  1
  Al  Al15  1  0.89327820  0.53253622  0.55398968  1
  Al  Al16  1  0.44367319  0.42700652  0.29630791  1
  Al  Al17  1  0.55555556  0.53888890  0.05190154  1
  Al  Al18  1  0.11104739  0.42790521  0.80317052  1
  Al  Al19  1  0.22418555  0.53253622  0.55398969  1
  Al  Al20  1  0.77932027  0.42700653  0.29630791  1
  Al  Al21  1  0.89134117  0.53752045  0.05362837  1
  Al  Al22  1  0.43981256  0.42314590  0.80894034  1
  Al  Al23  1  0.11330565  0.76001384  0.29657378  1
  Al  Al24  1  0.22113840  0.87467451  0.05362837  1
  Al  Al25  1  0.77340459  0.75673792  0.80848501  1
  Al  Al26  1  0.44367320  0.76265360  0.29630791  1
  Al  Al27  1  0.55418712  0.87467451  0.05362837  1
  Al  Al28  1  0.11985749  0.75673793  0.80848501  1
  Al  Al29  1  0.22418555  0.87661153  0.55398969  1
  Al  Al30  1  0.77668051  0.76001384  0.29657378  1
  Al  Al31  1  0.88888890  0.87222224  0.05150630  1
  Al  Al32  1  0.43981257  0.77037486  0.80894033  1
  Al  Al33  1  0.54920289  0.87661154  0.55398968  1
  Gd  Gd34  1  0.55555555  0.53888889  0.56305850  1
  Gd  Gd35  1  0.88888889  0.87222222  0.56119080  1
  N  N36  1  0.22222222  0.20555556  0.36427969  1
  N  N37  1  0.11170935  0.09504268  0.11453829  1
  N  N38  1  0.89251299  0.20335675  0.86681281  1
  N  N39  1  0.76016275  0.12967447  0.62103485  1
  N  N40  1  0.55580196  0.20604294  0.36119210  1
  N  N41  1  0.44324797  0.09504268  0.11453829  1
  N  N42  1  0.22222222  0.20555556  0.86177355  1
  N  N43  1  0.11063770  0.09397103  0.61193158  1
  N  N44  1  0.88815509  0.20604295  0.36119211  1
  N  N45  1  0.77693816  0.09612369  0.10738427  1
  N  N46  1  0.55413028  0.20335674  0.86681281  1
  N  N47  1  0.44539126  0.09397103  0.61193159  1
  N  N48  1  0.22270961  0.53913530  0.36119211  1
  N  N49  1  0.11170935  0.42658131  0.11453829  1
  N  N50  1  0.89251298  0.53746360  0.86681281  1
  N  N51  1  0.81130576  0.41101377  0.62414389  1
  N  N52  1  0.55555555  0.53888888  0.33934460  1
  N  N53  1  0.44348882  0.42682215  0.10735390  1
  N  N54  1  0.22002341  0.53746361  0.86681281  1
  N  N55  1  0.11063769  0.42872460  0.61193159  1
  N  N56  1  0.88815509  0.53913530  0.36119210  1
  N  N57  1  0.77968904  0.42682216  0.10735391  1
  N  N58  1  0.55555556  0.53888889  0.85527024  1
  N  N59  1  0.42768045  0.41101378  0.62414389  1
  N  N60  1  0.22270962  0.87148842  0.36119211  1
  N  N61  1  0.11279036  0.76027149  0.10738427  1
  N  N62  1  0.88888889  0.87222223  0.85359158  1
  N  N63  1  0.76016276  0.74349609  0.62103485  1
  N  N64  1  0.55580197  0.87148842  0.36119210  1
  N  N65  1  0.44348882  0.76302237  0.10735391  1
  N  N66  1  0.22002342  0.87584632  0.86681281  1
  N  N67  1  0.14634114  0.74349608  0.62103485  1
  N  N68  1  0.88888889  0.87222222  0.33918864  1
  N  N69  1  0.77693817  0.76027150  0.10738427  1
  N  N70  1  0.55413027  0.87584631  0.86681281  1
  N  N71  1  0.42768044  0.79463910  0.62414389  1
