# generated using pymatgen
data_GdAl17N18
_symmetry_space_group_name_H-M   'P 1'
_cell_length_a   9.51733674
_cell_length_b   9.51733672
_cell_length_c   10.11270855
_cell_angle_alpha   89.99999984
_cell_angle_beta   89.99999966
_cell_angle_gamma   60.00000163
_symmetry_Int_Tables_number   1
_chemical_formula_structural   GdAl17N18
_chemical_formula_sum   'Gd2 Al34 N36'
_cell_volume   793.28455805
_cell_formula_units_Z   2
loop_
 _symmetry_equiv_pos_site_id
 _symmetry_equiv_pos_as_xyz
  1  'x, y, z'
loop_
 _atom_site_type_symbol
 _atom_site_label
 _atom_site_symmetry_multiplicity
 _atom_site_fract_x
 _atom_site_fract_y
 _atom_site_fract_z
 _atom_site_occupancy
  Al  Al0  1  0.11149645  0.09482978  0.30805341  1
  Al  Al1  1  0.22222223  0.20555556  0.05731319  1
  Al  Al2  1  0.77340358  0.10319285  0.81228353  1
  Al  Al3  1  0.89327888  0.20751897  0.55779179  1
  Al  Al4  1  0.44367377  0.09482977  0.30805340  1
  Al  Al5  1  0.55418772  0.20447167  0.05743202  1
  Al  Al6  1  0.11104739  0.09438072  0.80697492  1
  Al  Al7  1  0.22222222  0.20555556  0.55897049  1
  Al  Al8  1  0.77668118  0.09663765  0.30037650  1
  Al  Al9  1  0.89134062  0.20447168  0.05743202  1
  Al  Al10  1  0.44457189  0.09438071  0.80697492  1
  Al  Al11  1  0.54920212  0.20751897  0.55779179  1
  Al  Al12  1  0.11149644  0.42700710  0.30805340  1
  Al  Al13  1  0.22113834  0.53752105  0.05743202  1
  Al  Al14  1  0.78704310  0.42314511  0.81274211  1
  Al  Al15  1  0.89327889  0.53253545  0.55779179  1
  Al  Al16  1  0.44367369  0.42700702  0.30011111  1
  Al  Al17  1  0.55555556  0.53888890  0.05569950  1
  Al  Al18  1  0.11104738  0.42790522  0.80697492  1
  Al  Al19  1  0.22418564  0.53253545  0.55779179  1
  Al  Al20  1  0.77931926  0.42700703  0.30011111  1
  Al  Al21  1  0.89134062  0.53752106  0.05743202  1
  Al  Al22  1  0.43981177  0.42314511  0.81274211  1
  Al  Al23  1  0.11330432  0.76001451  0.30037650  1
  Al  Al24  1  0.22113835  0.87467396  0.05743202  1
  Al  Al25  1  0.77340357  0.75673690  0.81228353  1
  Al  Al26  1  0.44367370  0.76265260  0.30011111  1
  Al  Al27  1  0.55418773  0.87467396  0.05743202  1
  Al  Al28  1  0.11985952  0.75673691  0.81228354  1
  Al  Al29  1  0.22418564  0.87661221  0.55779179  1
  Al  Al30  1  0.77668118  0.76001451  0.30037650  1
  Al  Al31  1  0.88888890  0.87222224  0.05530130  1
  Al  Al32  1  0.43981178  0.77037644  0.81274211  1
  Al  Al33  1  0.54920212  0.87661222  0.55779179  1
  Gd  Gd34  1  0.55555555  0.53888889  0.56686364  1
  Gd  Gd35  1  0.88888889  0.87222222  0.56499529  1
  N  N36  1  0.22222223  0.20555556  0.36808152  1
  N  N37  1  0.11170930  0.09504264  0.11834031  1
  N  N38  1  0.89251255  0.20335666  0.87061497  1
  N  N39  1  0.76016176  0.12967644  0.62483371  1
  N  N40  1  0.55580183  0.20604288  0.36499308  1
  N  N41  1  0.44324807  0.09504264  0.11834030  1
  N  N42  1  0.22222222  0.20555556  0.86557649  1
  N  N43  1  0.11063765  0.09397099  0.61573396  1
  N  N44  1  0.88815529  0.20604289  0.36499308  1
  N  N45  1  0.77693909  0.09612183  0.11118562  1
  N  N46  1  0.55413081  0.20335665  0.87061497  1
  N  N47  1  0.44539135  0.09397098  0.61573396  1
  N  N48  1  0.22270955  0.53913516  0.36499308  1
  N  N49  1  0.11170930  0.42658140  0.11834030  1
  N  N50  1  0.89251254  0.53746413  0.87061497  1
  N  N51  1  0.81130707  0.41101312  0.62794509  1
  N  N52  1  0.55555555  0.53888888  0.34314912  1
  N  N53  1  0.44348944  0.42682278  0.11115560  1
  N  N54  1  0.22002332  0.53746414  0.87061497  1
  N  N55  1  0.11063765  0.42872468  0.61573396  1
  N  N56  1  0.88815528  0.53913516  0.36499308  1
  N  N57  1  0.77968779  0.42682278  0.11115560  1
  N  N58  1  0.55555556  0.53888889  0.85906801  1
  N  N59  1  0.42767979  0.41101313  0.62794509  1
  N  N60  1  0.22270956  0.87148862  0.36499308  1
  N  N61  1  0.11278849  0.76027243  0.11118561  1
  N  N62  1  0.88888889  0.87222223  0.85738620  1
  N  N63  1  0.76016177  0.74349511  0.62483372  1
  N  N64  1  0.55580183  0.87148862  0.36499308  1
  N  N65  1  0.44348945  0.76302112  0.11115560  1
  N  N66  1  0.22002332  0.87584588  0.87061497  1
  N  N67  1  0.14634311  0.74349510  0.62483371  1
  N  N68  1  0.88888889  0.87222222  0.34299320  1
  N  N69  1  0.77693910  0.76027243  0.11118561  1
  N  N70  1  0.55413080  0.87584587  0.87061497  1
  N  N71  1  0.42767978  0.79464041  0.62794509  1
