# generated using pymatgen
data_GdAl17N18
_symmetry_space_group_name_H-M   'P 1'
_cell_length_a   10.01897125
_cell_length_b   10.01897102
_cell_length_c   8.68354058
_cell_angle_alpha   89.99998071
_cell_angle_beta   89.99997016
_cell_angle_gamma   60.00000676
_symmetry_Int_Tables_number   1
_chemical_formula_structural   GdAl17N18
_chemical_formula_sum   'Gd2 Al34 N36'
_cell_volume   754.87275402
_cell_formula_units_Z   2
loop_
 _symmetry_equiv_pos_site_id
 _symmetry_equiv_pos_as_xyz
  1  'x, y, z'
loop_
 _atom_site_type_symbol
 _atom_site_label
 _atom_site_symmetry_multiplicity
 _atom_site_fract_x
 _atom_site_fract_y
 _atom_site_fract_z
 _atom_site_occupancy
  Al  Al0  1  0.11073573  0.09406959  0.36284334  1
  Al  Al1  1  0.22222231  0.20555572  0.11708798  1
  Al  Al2  1  0.77495360  0.10009300  0.87162558  1
  Al  Al3  1  0.89337091  0.20592068  0.61534661  1
  Al  Al4  1  0.44519467  0.09406930  0.36284574  1
  Al  Al5  1  0.55296005  0.20420907  0.11073010  1
  Al  Al6  1  0.11251927  0.09585253  0.86425121  1
  Al  Al7  1  0.22222216  0.20555546  0.60978575  1
  Al  Al8  1  0.77394777  0.10210415  0.34880395  1
  Al  Al9  1  0.89283064  0.20420918  0.11073114  1
  Al  Al10  1  0.44162839  0.09585250  0.86425188  1
  Al  Al11  1  0.55070883  0.20592031  0.61534649  1
  Al  Al12  1  0.11073554  0.42852832  0.36284599  1
  Al  Al13  1  0.22087570  0.53629337  0.11072833  1
  Al  Al14  1  0.78311703  0.42510815  0.87236724  1
  Al  Al15  1  0.89337060  0.53404212  0.61534983  1
  Al  Al16  1  0.44011821  0.42345170  0.35130327  1
  Al  Al17  1  0.55555546  0.53888906  0.10787980  1
  Al  Al18  1  0.11251941  0.42496131  0.86425193  1
  Al  Al19  1  0.22258702  0.53404180  0.61534472  1
  Al  Al20  1  0.78643142  0.42345110  0.35130652  1
  Al  Al21  1  0.89283102  0.53629331  0.11073258  1
  Al  Al22  1  0.44177464  0.42510767  0.87236333  1
  Al  Al23  1  0.11876929  0.75728176  0.34879959  1
  Al  Al24  1  0.22087599  0.87616389  0.11072762  1
  Al  Al25  1  0.77495382  0.75828719  0.87162883  1
  Al  Al26  1  0.44011855  0.76976301  0.35130282  1
  Al  Al27  1  0.55295993  0.87616422  0.11073082  1
  Al  Al28  1  0.11676032  0.75828663  0.87162112  1
  Al  Al29  1  0.22258680  0.87670470  0.61534218  1
  Al  Al30  1  0.77394756  0.75728067  0.34880646  1
  Al  Al31  1  0.88888884  0.87222228  0.10672967  1
  Al  Al32  1  0.44177449  0.76645133  0.87236178  1
  Al  Al33  1  0.55070925  0.87670406  0.61534716  1
  Gd  Gd34  1  0.55555621  0.53888839  0.60441734  1
  Gd  Gd35  1  0.88888836  0.87222234  0.60408511  1
  N  N36  1  0.22222229  0.20555583  0.35066226  1
  N  N37  1  0.11317845  0.09651207  0.09444739  1
  N  N38  1  0.89056583  0.20479994  0.85271724  1
  N  N39  1  0.76212405  0.12575216  0.59400282  1
  N  N40  1  0.55417222  0.20327440  0.33900464  1
  N  N41  1  0.44030952  0.09651187  0.09444560  1
  N  N42  1  0.22222230  0.20555535  0.84079537  1
  N  N43  1  0.11004746  0.09338130  0.59697674  1
  N  N44  1  0.89255315  0.20327395  0.33900403  1
  N  N45  1  0.77594817  0.09810361  0.09994739  1
  N  N46  1  0.55463497  0.20479910  0.85271788  1
  N  N47  1  0.44657158  0.09338083  0.59697696  1
  N  N48  1  0.21994064  0.53750629  0.33900582  1
  N  N49  1  0.11317841  0.42364282  0.09444543  1
  N  N50  1  0.89056530  0.53796848  0.85271612  1
  N  N51  1  0.80771029  0.41281171  0.59176237  1
  N  N52  1  0.55555562  0.53888900  0.33538763  1
  N  N53  1  0.44251962  0.42585287  0.10010103  1
  N  N54  1  0.22146631  0.53796722  0.85271931  1
  N  N55  1  0.11004730  0.42990480  0.59697722  1
  N  N56  1  0.89255387  0.53750546  0.33900271  1
  N  N57  1  0.78162761  0.42585295  0.10010063  1
  N  N58  1  0.55555582  0.53888869  0.87088590  1
  N  N59  1  0.42947869  0.41281186  0.59176759  1
  N  N60  1  0.21994106  0.87588580  0.33900677  1
  N  N61  1  0.11477007  0.75928158  0.09994770  1
  N  N62  1  0.88888863  0.87222223  0.87025621  1
  N  N63  1  0.76212403  0.74545684  0.59399831  1
  N  N64  1  0.55417163  0.87588682  0.33900428  1
  N  N65  1  0.44251970  0.76496085  0.10010050  1
  N  N66  1  0.22146590  0.87390021  0.85271988  1
  N  N67  1  0.14241782  0.74545763  0.59400938  1
  N  N68  1  0.88888872  0.87222238  0.33551739  1
  N  N69  1  0.77594818  0.75928147  0.09994786  1
  N  N70  1  0.55463589  0.87389915  0.85271732  1
  N  N71  1  0.42947903  0.79104249  0.59176958  1
