# generated using pymatgen
data_GdAl17N18
_symmetry_space_group_name_H-M   'P 1'
_cell_length_a   9.51732421
_cell_length_b   9.51732421
_cell_length_c   10.11273814
_cell_angle_alpha   90.00000020
_cell_angle_beta   90.00000019
_cell_angle_gamma   60.00000154
_symmetry_Int_Tables_number   1
_chemical_formula_structural   GdAl17N18
_chemical_formula_sum   'Gd2 Al34 N36'
_cell_volume   793.28479026
_cell_formula_units_Z   2
loop_
 _symmetry_equiv_pos_site_id
 _symmetry_equiv_pos_as_xyz
  1  'x, y, z'
loop_
 _atom_site_type_symbol
 _atom_site_label
 _atom_site_symmetry_multiplicity
 _atom_site_fract_x
 _atom_site_fract_y
 _atom_site_fract_z
 _atom_site_occupancy
  Al  Al0  1  0.11104727  0.09438060  0.40531296  1
  Al  Al1  1  0.22222223  0.20555556  0.15497453  1
  Al  Al2  1  0.77668081  0.09663837  0.91191086  1
  Al  Al3  1  0.89327881  0.20751879  0.65449566  1
  Al  Al4  1  0.44457212  0.09438060  0.40531296  1
  Al  Al5  1  0.55418756  0.20447181  0.15485550  1
  Al  Al6  1  0.11149652  0.09482985  0.90423315  1
  Al  Al7  1  0.22222222  0.20555555  0.65331544  1
  Al  Al8  1  0.77340407  0.10319185  0.40000428  1
  Al  Al9  1  0.89134064  0.20447182  0.15485550  1
  Al  Al10  1  0.44367361  0.09482985  0.90423315  1
  Al  Al11  1  0.54920236  0.20751879  0.65449565  1
  Al  Al12  1  0.11104727  0.42790545  0.40531296  1
  Al  Al13  1  0.22113847  0.53752089  0.15485550  1
  Al  Al14  1  0.77931987  0.42700673  0.91217642  1
  Al  Al15  1  0.89327882  0.53253570  0.65449566  1
  Al  Al16  1  0.43981220  0.42314553  0.39954680  1
  Al  Al17  1  0.55555556  0.53888890  0.15658771  1
  Al  Al18  1  0.11149651  0.42700695  0.90423315  1
  Al  Al19  1  0.22418546  0.53253570  0.65449565  1
  Al  Al20  1  0.78704225  0.42314554  0.39954681  1
  Al  Al21  1  0.89134064  0.53752091  0.15485550  1
  Al  Al22  1  0.44367339  0.42700672  0.91217642  1
  Al  Al23  1  0.11985852  0.75673741  0.40000428  1
  Al  Al24  1  0.22113849  0.87467397  0.15485550  1
  Al  Al25  1  0.77668082  0.76001415  0.91191086  1
  Al  Al26  1  0.43981221  0.77037558  0.39954681  1
  Al  Al27  1  0.55418758  0.87467397  0.15485550  1
  Al  Al28  1  0.11330504  0.76001414  0.91191086  1
  Al  Al29  1  0.22418546  0.87661214  0.65449566  1
  Al  Al30  1  0.77340407  0.75673740  0.40000428  1
  Al  Al31  1  0.88888890  0.87222224  0.15698444  1
  Al  Al32  1  0.44367340  0.76265320  0.91217642  1
  Al  Al33  1  0.54920237  0.87661215  0.65449566  1
  Gd  Gd34  1  0.55555555  0.53888888  0.64542727  1
  Gd  Gd35  1  0.88888888  0.87222222  0.64729545  1
  N  N36  1  0.22222222  0.20555555  0.34671089  1
  N  N37  1  0.11170927  0.09504261  0.09394624  1
  N  N38  1  0.88815523  0.20604289  0.84729343  1
  N  N39  1  0.76016240  0.12967517  0.58745360  1
  N  N40  1  0.55413081  0.20335689  0.34167254  1
  N  N41  1  0.44324811  0.09504261  0.09394624  1
  N  N42  1  0.22222222  0.20555555  0.84420429  1
  N  N43  1  0.11063761  0.09397094  0.59655306  1
  N  N44  1  0.89251229  0.20335690  0.34167254  1
  N  N45  1  0.77693872  0.09612256  0.10110105  1
  N  N46  1  0.55580188  0.20604288  0.84729343  1
  N  N47  1  0.44539142  0.09397094  0.59655306  1
  N  N48  1  0.22002356  0.53746415  0.34167254  1
  N  N49  1  0.11170928  0.42658144  0.09394624  1
  N  N50  1  0.88815523  0.53913522  0.84729343  1
  N  N51  1  0.81130606  0.41101362  0.58434305  1
  N  N52  1  0.55555556  0.53888889  0.35321870  1
  N  N53  1  0.44348924  0.42682257  0.10113122  1
  N  N54  1  0.22270955  0.53913521  0.84729343  1
  N  N55  1  0.11063761  0.42872476  0.59655306  1
  N  N56  1  0.89251229  0.53746414  0.34167254  1
  N  N57  1  0.77968820  0.42682258  0.10113122  1
  N  N58  1  0.55555555  0.53888888  0.86914030  1
  N  N59  1  0.42768030  0.41101363  0.58434304  1
  N  N60  1  0.22002357  0.87584562  0.34167254  1
  N  N61  1  0.11278923  0.76027205  0.10110105  1
  N  N62  1  0.88888889  0.87222222  0.86929636  1
  N  N63  1  0.76016241  0.74349575  0.58745360  1
  N  N64  1  0.55413081  0.87584562  0.34167254  1
  N  N65  1  0.44348924  0.76302153  0.10113122  1
  N  N66  1  0.22270956  0.87148856  0.84729343  1
  N  N67  1  0.14634183  0.74349573  0.58745360  1
  N  N68  1  0.88888889  0.87222223  0.35489910  1
  N  N69  1  0.77693873  0.76027207  0.10110105  1
  N  N70  1  0.55580189  0.87148856  0.84729343  1
  N  N71  1  0.42768029  0.79463939  0.58434305  1
