# generated using pymatgen
data_GdAl17N18
_symmetry_space_group_name_H-M   'P 1'
_cell_length_a   9.51744722
_cell_length_b   9.51744720
_cell_length_c   10.11243343
_cell_angle_alpha   89.99999984
_cell_angle_beta   89.99999963
_cell_angle_gamma   60.00000176
_symmetry_Int_Tables_number   1
_chemical_formula_structural   GdAl17N18
_chemical_formula_sum   'Gd2 Al34 N36'
_cell_volume   793.28139322
_cell_formula_units_Z   2
loop_
 _symmetry_equiv_pos_site_id
 _symmetry_equiv_pos_as_xyz
  1  'x, y, z'
loop_
 _atom_site_type_symbol
 _atom_site_label
 _atom_site_symmetry_multiplicity
 _atom_site_fract_x
 _atom_site_fract_y
 _atom_site_fract_z
 _atom_site_occupancy
  Al  Al0  1  0.11149805  0.09483138  0.31499672  1
  Al  Al1  1  0.22222223  0.20555556  0.06425183  1
  Al  Al2  1  0.77339758  0.10320484  0.81922812  1
  Al  Al3  1  0.89328013  0.20751928  0.56472918  1
  Al  Al4  1  0.44367056  0.09483138  0.31499672  1
  Al  Al5  1  0.55418907  0.20447149  0.06438531  1
  Al  Al6  1  0.11104602  0.09437935  0.81391806  1
  Al  Al7  1  0.22222222  0.20555556  0.56591824  1
  Al  Al8  1  0.77668519  0.09662962  0.30733143  1
  Al  Al9  1  0.89133946  0.20447150  0.06438532  1
  Al  Al10  1  0.44457463  0.09437934  0.81391806  1
  Al  Al11  1  0.54920056  0.20751928  0.56472918  1
  Al  Al12  1  0.11149804  0.42700390  0.31499672  1
  Al  Al13  1  0.22113815  0.53752240  0.06438531  1
  Al  Al14  1  0.78705459  0.42313937  0.81968649  1
  Al  Al15  1  0.89328014  0.53253389  0.56472917  1
  Al  Al16  1  0.44367763  0.42701096  0.30706350  1
  Al  Al17  1  0.55555556  0.53888890  0.06263215  1
  Al  Al18  1  0.11104601  0.42790796  0.81391806  1
  Al  Al19  1  0.22418595  0.53253389  0.56472918  1
  Al  Al20  1  0.77931138  0.42701097  0.30706350  1
  Al  Al21  1  0.89133946  0.53752241  0.06438532  1
  Al  Al22  1  0.43980603  0.42313936  0.81968648  1
  Al  Al23  1  0.11329629  0.76001852  0.30733143  1
  Al  Al24  1  0.22113816  0.87467279  0.06438532  1
  Al  Al25  1  0.77339757  0.75673091  0.81922812  1
  Al  Al26  1  0.44367764  0.76264471  0.30706350  1
  Al  Al27  1  0.55418908  0.87467279  0.06438532  1
  Al  Al28  1  0.11987151  0.75673091  0.81922812  1
  Al  Al29  1  0.22418595  0.87661346  0.56472918  1
  Al  Al30  1  0.77668519  0.76001852  0.30733143  1
  Al  Al31  1  0.88888890  0.87222224  0.06223455  1
  Al  Al32  1  0.43980603  0.77038793  0.81968648  1
  Al  Al33  1  0.54920056  0.87661347  0.56472917  1
  Gd  Gd34  1  0.55555556  0.53888889  0.57384417  1
  Gd  Gd35  1  0.88888889  0.87222222  0.57197918  1
  N  N36  1  0.22222223  0.20555556  0.37502525  1
  N  N37  1  0.11171094  0.09504428  0.12528117  1
  N  N38  1  0.89251347  0.20335615  0.87756259  1
  N  N39  1  0.76015406  0.12969184  0.63177367  1
  N  N40  1  0.55580051  0.20604256  0.37192997  1
  N  N41  1  0.44324479  0.09504427  0.12528117  1
  N  N42  1  0.22222222  0.20555556  0.87251116  1
  N  N43  1  0.11063572  0.09396905  0.62267326  1
  N  N44  1  0.88815693  0.20604257  0.37192997  1
  N  N45  1  0.77694314  0.09611372  0.11813298  1
  N  N46  1  0.55413038  0.20335615  0.87756259  1
  N  N47  1  0.44539522  0.09396905  0.62267327  1
  N  N48  1  0.22270922  0.53913385  0.37192997  1
  N  N49  1  0.11171094  0.42657813  0.12528117  1
  N  N50  1  0.89251347  0.53746371  0.87756259  1
  N  N51  1  0.81132108  0.41100611  0.63488612  1
  N  N52  1  0.55555555  0.53888888  0.35012176  1
  N  N53  1  0.44349315  0.42682648  0.11810110  1
  N  N54  1  0.22002282  0.53746371  0.87756259  1
  N  N55  1  0.11063571  0.42872855  0.62267326  1
  N  N56  1  0.88815692  0.53913385  0.37192997  1
  N  N57  1  0.77968037  0.42682649  0.11810111  1
  N  N58  1  0.55555556  0.53888889  0.86599424  1
  N  N59  1  0.42767279  0.41100613  0.63488612  1
  N  N60  1  0.22270924  0.87149026  0.37192997  1
  N  N61  1  0.11278039  0.76027648  0.11813298  1
  N  N62  1  0.88888889  0.87222223  0.86431111  1
  N  N63  1  0.76015407  0.74348740  0.63177367  1
  N  N64  1  0.55580052  0.87149026  0.37192997  1
  N  N65  1  0.44349316  0.76301371  0.11810111  1
  N  N66  1  0.22002282  0.87584681  0.87756259  1
  N  N67  1  0.14635851  0.74348739  0.63177367  1
  N  N68  1  0.88888889  0.87222222  0.34996959  1
  N  N69  1  0.77694315  0.76027649  0.11813298  1
  N  N70  1  0.55413037  0.87584680  0.87756259  1
  N  N71  1  0.42767278  0.79465441  0.63488612  1
