# generated using pymatgen
data_GdAl17N18
_symmetry_space_group_name_H-M   'P 1'
_cell_length_a   9.51730551
_cell_length_b   9.51730550
_cell_length_c   10.11277924
_cell_angle_alpha   89.99999977
_cell_angle_beta   89.99999964
_cell_angle_gamma   60.00000162
_symmetry_Int_Tables_number   1
_chemical_formula_structural   GdAl17N18
_chemical_formula_sum   'Gd2 Al34 N36'
_cell_volume   793.28489726
_cell_formula_units_Z   2
loop_
 _symmetry_equiv_pos_site_id
 _symmetry_equiv_pos_as_xyz
  1  'x, y, z'
loop_
 _atom_site_type_symbol
 _atom_site_label
 _atom_site_symmetry_multiplicity
 _atom_site_fract_x
 _atom_site_fract_y
 _atom_site_fract_z
 _atom_site_occupancy
  Al  Al0  1  0.11149590  0.09482924  0.30186130  1
  Al  Al1  1  0.22222223  0.20555556  0.05112254  1
  Al  Al2  1  0.77340555  0.10318890  0.80609498  1
  Al  Al3  1  0.89327819  0.20751897  0.55160277  1
  Al  Al4  1  0.44367486  0.09482923  0.30186129  1
  Al  Al5  1  0.55418711  0.20447164  0.05123735  1
  Al  Al6  1  0.11104790  0.09438124  0.80078319  1
  Al  Al7  1  0.22222222  0.20555556  0.55277681  1
  Al  Al8  1  0.77667987  0.09664026  0.29418190  1
  Al  Al9  1  0.89134126  0.20447165  0.05123735  1
  Al  Al10  1  0.44457085  0.09438123  0.80078320  1
  Al  Al11  1  0.54920281  0.20751898  0.55160277  1
  Al  Al12  1  0.11149589  0.42700819  0.30186129  1
  Al  Al13  1  0.22113831  0.53752044  0.05123735  1
  Al  Al14  1  0.78703946  0.42314693  0.80655255  1
  Al  Al15  1  0.89327819  0.53253614  0.55160277  1
  Al  Al16  1  0.44367245  0.42700579  0.29391705  1
  Al  Al17  1  0.55555556  0.53888890  0.04951440  1
  Al  Al18  1  0.11104790  0.42790419  0.80078320  1
  Al  Al19  1  0.22418565  0.53253614  0.55160277  1
  Al  Al20  1  0.77932174  0.42700580  0.29391704  1
  Al  Al21  1  0.89134126  0.53752045  0.05123735  1
  Al  Al22  1  0.43981360  0.42314693  0.80655255  1
  Al  Al23  1  0.11330693  0.76001320  0.29418190  1
  Al  Al24  1  0.22113832  0.87467459  0.05123735  1
  Al  Al25  1  0.77340555  0.75673888  0.80609498  1
  Al  Al26  1  0.44367246  0.76265507  0.29391704  1
  Al  Al27  1  0.55418712  0.87467459  0.05123735  1
  Al  Al28  1  0.11985557  0.75673889  0.80609498  1
  Al  Al29  1  0.22418564  0.87661152  0.55160277  1
  Al  Al30  1  0.77667987  0.76001321  0.29418190  1
  Al  Al31  1  0.88888890  0.87222224  0.04911670  1
  Al  Al32  1  0.43981360  0.77037280  0.80655255  1
  Al  Al33  1  0.54920281  0.87661153  0.55160277  1
  Gd  Gd34  1  0.55555555  0.53888889  0.56066299  1
  Gd  Gd35  1  0.88888889  0.87222222  0.55879392  1
  N  N36  1  0.22222222  0.20555556  0.36188916  1
  N  N37  1  0.11170885  0.09504218  0.11214932  1
  N  N38  1  0.89251274  0.20335666  0.86442292  1
  N  N39  1  0.76016409  0.12967179  0.61864571  1
  N  N40  1  0.55580218  0.20604300  0.35880411  1
  N  N41  1  0.44324898  0.09504218  0.11214932  1
  N  N42  1  0.22222222  0.20555556  0.85938775  1
  N  N43  1  0.11063830  0.09397163  0.60954395  1
  N  N44  1  0.88815482  0.20604301  0.35880411  1
  N  N45  1  0.77693763  0.09612474  0.10499354  1
  N  N46  1  0.55413061  0.20335665  0.86442292  1
  N  N47  1  0.44539006  0.09397163  0.60954395  1
  N  N48  1  0.22270966  0.53913552  0.35880411  1
  N  N49  1  0.11170885  0.42658231  0.11214932  1
  N  N50  1  0.89251274  0.53746394  0.86442292  1
  N  N51  1  0.81130303  0.41101514  0.62175615  1
  N  N52  1  0.55555555  0.53888888  0.33694981  1
  N  N53  1  0.44348814  0.42682147  0.10496392  1
  N  N54  1  0.22002332  0.53746394  0.86442292  1
  N  N55  1  0.11063829  0.42872340  0.60954395  1
  N  N56  1  0.88815482  0.53913552  0.35880411  1
  N  N57  1  0.77969040  0.42682148  0.10496393  1
  N  N58  1  0.55555556  0.53888889  0.85288433  1
  N  N59  1  0.42768182  0.41101515  0.62175615  1
  N  N60  1  0.22270967  0.87148815  0.35880411  1
  N  N61  1  0.11279141  0.76027097  0.10499354  1
  N  N62  1  0.88888890  0.87222223  0.85120386  1
  N  N63  1  0.76016410  0.74349743  0.61864572  1
  N  N64  1  0.55580219  0.87148815  0.35880411  1
  N  N65  1  0.44348814  0.76302374  0.10496393  1
  N  N66  1  0.22002332  0.87584608  0.86442292  1
  N  N67  1  0.14633846  0.74349742  0.61864572  1
  N  N68  1  0.88888889  0.87222222  0.33679296  1
  N  N69  1  0.77693764  0.76027097  0.10499354  1
  N  N70  1  0.55413060  0.87584607  0.86442292  1
  N  N71  1  0.42768181  0.79463636  0.62175615  1
