# generated using pymatgen
data_GdAl17N18
_symmetry_space_group_name_H-M   'P 1'
_cell_length_a   9.66544999
_cell_length_b   9.66545088
_cell_length_c   9.71901926
_cell_angle_alpha   89.99999626
_cell_angle_beta   89.99999596
_cell_angle_gamma   60.00000711
_symmetry_Int_Tables_number   1
_chemical_formula_structural   GdAl17N18
_chemical_formula_sum   'Gd2 Al34 N36'
_cell_volume   786.31634191
_cell_formula_units_Z   2
loop_
 _symmetry_equiv_pos_site_id
 _symmetry_equiv_pos_as_xyz
  1  'x, y, z'
loop_
 _atom_site_type_symbol
 _atom_site_label
 _atom_site_symmetry_multiplicity
 _atom_site_fract_x
 _atom_site_fract_y
 _atom_site_fract_z
 _atom_site_occupancy
  Al  Al0  1  0.11208090  0.09541424  0.32859415  1
  Al  Al1  1  0.22222221  0.20555553  0.07545316  1
  Al  Al2  1  0.77265451  0.10469101  0.83481213  1
  Al  Al3  1  0.89282782  0.20751523  0.57626420  1
  Al  Al4  1  0.44250482  0.09541423  0.32859406  1
  Al  Al5  1  0.55364703  0.20406882  0.07918762  1
  Al  Al6  1  0.11070626  0.09403964  0.82602717  1
  Al  Al7  1  0.22222224  0.20555559  0.58057945  1
  Al  Al8  1  0.77677493  0.09645007  0.32108786  1
  Al  Al9  1  0.89228413  0.20406882  0.07918764  1
  Al  Al10  1  0.44525410  0.09403962  0.82602726  1
  Al  Al11  1  0.54965699  0.20751513  0.57626422  1
  Al  Al12  1  0.11208089  0.42583817  0.32859406  1
  Al  Al13  1  0.22073552  0.53698033  0.07918759  1
  Al  Al14  1  0.78909344  0.42211994  0.83461055  1
  Al  Al15  1  0.89282791  0.53299021  0.57626422  1
  Al  Al16  1  0.44381094  0.42714427  0.32030550  1
  Al  Al17  1  0.55555555  0.53888888  0.07740084  1
  Al  Al18  1  0.11070628  0.42858740  0.82602727  1
  Al  Al19  1  0.22418199  0.53299019  0.57626426  1
  Al  Al20  1  0.77904471  0.42714427  0.32030546  1
  Al  Al21  1  0.89228410  0.53698041  0.07918765  1
  Al  Al22  1  0.43878666  0.42211991  0.83461047  1
  Al  Al23  1  0.11311676  0.76010825  0.32108784  1
  Al  Al24  1  0.22073547  0.87561750  0.07918761  1
  Al  Al25  1  0.77265449  0.75598781  0.83481206  1
  Al  Al26  1  0.44381092  0.76237807  0.32030540  1
  Al  Al27  1  0.55364709  0.87561746  0.07918765  1
  Al  Al28  1  0.12135774  0.75598780  0.83481214  1
  Al  Al29  1  0.22418199  0.87616117  0.57626424  1
  Al  Al30  1  0.77677492  0.76010826  0.32108795  1
  Al  Al31  1  0.88888888  0.87222220  0.07781223  1
  Al  Al32  1  0.43878662  0.77242684  0.83461060  1
  Al  Al33  1  0.54965690  0.87616132  0.57626421  1
  Gd  Gd34  1  0.55555550  0.53888904  0.59431789  1
  Gd  Gd35  1  0.88888904  0.87222219  0.59340997  1
  N  N36  1  0.22222219  0.20555559  0.38362084  1
  N  N37  1  0.11244933  0.09578264  0.13279290  1
  N  N38  1  0.89345448  0.20281551  0.88589015  1
  N  N39  1  0.75948798  0.13102400  0.63876915  1
  N  N40  1  0.55556991  0.20600240  0.37726351  1
  N  N41  1  0.44176796  0.09578267  0.13279283  1
  N  N42  1  0.22222219  0.20555556  0.87715466  1
  N  N43  1  0.11003755  0.09337096  0.62863136  1
  N  N44  1  0.88842763  0.20600242  0.37726351  1
  N  N45  1  0.77696315  0.09607368  0.12511813  1
  N  N46  1  0.55373005  0.20281552  0.88589014  1
  N  N47  1  0.44659148  0.09337095  0.62863145  1
  N  N48  1  0.22266903  0.53890327  0.37726353  1
  N  N49  1  0.11244934  0.42510130  0.13279282  1
  N  N50  1  0.89345445  0.53706340  0.88589014  1
  N  N51  1  0.81266829  0.41033252  0.64143161  1
  N  N52  1  0.55555552  0.53888891  0.35902955  1
  N  N53  1  0.44347198  0.42680532  0.12469071  1
  N  N54  1  0.21948220  0.53706335  0.88589012  1
  N  N55  1  0.11003758  0.42992480  0.62863147  1
  N  N56  1  0.88842767  0.53890321  0.37726353  1
  N  N57  1  0.77972268  0.42680530  0.12469069  1
  N  N58  1  0.55555555  0.53888892  0.87296790  1
  N  N59  1  0.42699914  0.41033262  0.64143153  1
  N  N60  1  0.22266906  0.87176098  0.37726351  1
  N  N61  1  0.11274042  0.76029641  0.12511809  1
  N  N62  1  0.88888894  0.87222219  0.87188074  1
  N  N63  1  0.75948798  0.74282131  0.63876906  1
  N  N64  1  0.55556985  0.87176101  0.37726351  1
  N  N65  1  0.44347197  0.76305600  0.12469063  1
  N  N66  1  0.21948213  0.87678786  0.88589015  1
  N  N67  1  0.14769079  0.74282126  0.63876919  1
  N  N68  1  0.88888889  0.87222220  0.35970203  1
  N  N69  1  0.77696316  0.76029643  0.12511822  1
  N  N70  1  0.55373010  0.87678781  0.88589016  1
  N  N71  1  0.42699905  0.79600175  0.64143168  1
