# generated using pymatgen
data_Sc11Al25N36
_symmetry_space_group_name_H-M   'P 1'
_cell_length_a   9.86575082
_cell_length_b   9.83643478
_cell_length_c   10.19827084
_cell_angle_alpha   89.94619981
_cell_angle_beta   90.08591494
_cell_angle_gamma   60.17061488
_symmetry_Int_Tables_number   1
_chemical_formula_structural   Sc11Al25N36
_chemical_formula_sum   'Sc11 Al25 N36'
_cell_volume   858.55438755
_cell_formula_units_Z   1
loop_
 _symmetry_equiv_pos_site_id
 _symmetry_equiv_pos_as_xyz
  1  'x, y, z'
loop_
 _atom_site_type_symbol
 _atom_site_label
 _atom_site_symmetry_multiplicity
 _atom_site_fract_x
 _atom_site_fract_y
 _atom_site_fract_z
 _atom_site_occupancy
  Al  Al0  1  0.11541215  0.09536903  0.39678130  1
  Al  Al1  1  0.22724240  0.19874266  0.16024900  1
  Al  Al2  1  0.44471598  0.09457301  0.40259105  1
  Al  Al3  1  0.55603640  0.20792392  0.16040782  1
  Al  Al4  1  0.11092588  0.09855473  0.92027439  1
  Al  Al5  1  0.76916482  0.09962082  0.41101362  1
  Al  Al6  1  0.88373585  0.20806485  0.16361227  1
  Al  Al7  1  0.43881096  0.09761510  0.91328222  1
  Al  Al8  1  0.55394339  0.20281937  0.65302777  1
  Al  Al9  1  0.11606228  0.41837527  0.40489017  1
  Al  Al10  1  0.77440517  0.42755255  0.91387190  1
  Al  Al11  1  0.45269864  0.42255634  0.40811806  1
  Al  Al12  1  0.55557325  0.53743155  0.15715747  1
  Al  Al13  1  0.11468943  0.42024755  0.91674485  1
  Al  Al14  1  0.77338779  0.42880987  0.40386325  1
  Al  Al15  1  0.44615803  0.42770481  0.90892531  1
  Al  Al16  1  0.55857336  0.53886430  0.65513594  1
  Al  Al17  1  0.22852614  0.87601270  0.15669291  1
  Al  Al18  1  0.76851530  0.76408229  0.90979005  1
  Al  Al19  1  0.88271187  0.87291056  0.66646113  1
  Al  Al20  1  0.44665060  0.76251560  0.40368450  1
  Al  Al21  1  0.54349846  0.87851190  0.15571089  1
  Al  Al22  1  0.11394657  0.76237942  0.91556626  1
  Al  Al23  1  0.44454578  0.76154681  0.91231090  1
  Al  Al24  1  0.55707316  0.87396766  0.66055805  1
  Sc  Sc25  1  0.76931448  0.10552142  0.89740862  1
  Sc  Sc26  1  0.88885294  0.20699740  0.64333502  1
  Sc  Sc27  1  0.23313504  0.19737846  0.65521034  1
  Sc  Sc28  1  0.23352199  0.53033770  0.14889471  1
  Sc  Sc29  1  0.88586031  0.53990598  0.66356410  1
  Sc  Sc30  1  0.22888251  0.53506645  0.65850379  1
  Sc  Sc31  1  0.88589081  0.53461370  0.14510369  1
  Sc  Sc32  1  0.10944057  0.76471085  0.40002141  1
  Sc  Sc33  1  0.22839541  0.86941476  0.65810903  1
  Sc  Sc34  1  0.76820153  0.76504020  0.40814977  1
  Sc  Sc35  1  0.88028625  0.88265176  0.14596063  1
  N  N36  1  0.22641101  0.20359317  0.34958753  1
  N  N37  1  0.10796588  0.09707520  0.11021552  1
  N  N38  1  0.90094099  0.21691479  0.85314371  1
  N  N39  1  0.76799147  0.08564389  0.60674484  1
  N  N40  1  0.55479401  0.20680765  0.34989310  1
  N  N41  1  0.44449529  0.09672557  0.10233081  1
  N  N42  1  0.22218276  0.20237024  0.86508201  1
  N  N43  1  0.11737793  0.09002364  0.58073761  1
  N  N44  1  0.88571503  0.20605934  0.35677156  1
  N  N45  1  0.76520739  0.11761519  0.10273411  1
  N  N46  1  0.52798917  0.21806488  0.84120497  1
  N  N47  1  0.46482987  0.08218452  0.58969238  1
  N  N48  1  0.23531358  0.51913985  0.36095540  1
  N  N49  1  0.12293407  0.40489865  0.09953817  1
  N  N50  1  0.88754652  0.53883674  0.87809561  1
  N  N51  1  0.76025345  0.43986875  0.58875892  1
  N  N52  1  0.55361123  0.54108710  0.34587071  1
  N  N53  1  0.46676066  0.41648046  0.09460824  1
  N  N54  1  0.22197258  0.53967652  0.87441317  1
  N  N55  1  0.11245624  0.42487545  0.59169096  1
  N  N56  1  0.89796519  0.52194493  0.35647319  1
  N  N57  1  0.76573032  0.41778104  0.10000598  1
  N  N58  1  0.55476142  0.54053729  0.84810173  1
  N  N59  1  0.46645739  0.41755539  0.59555741  1
  N  N60  1  0.23374628  0.87941970  0.34575788  1
  N  N61  1  0.12044812  0.77139360  0.10431049  1
  N  N62  1  0.89536358  0.85776385  0.86085999  1
  N  N63  1  0.76905259  0.77592239  0.61670117  1
  N  N64  1  0.53548020  0.88336267  0.34148552  1
  N  N65  1  0.44525781  0.75927095  0.09992965  1
  N  N66  1  0.22171362  0.87629789  0.86776356  1
  N  N67  1  0.09141674  0.77076687  0.60795881  1
  N  N68  1  0.87370988  0.89312104  0.35116865  1
  N  N69  1  0.75075267  0.77438282  0.09608780  1
  N  N70  1  0.54809649  0.87717608  0.85135296  1
  N  N71  1  0.46493714  0.75250036  0.59381511  1
