# generated using pymatgen
data_Sc11Al25N36
_symmetry_space_group_name_H-M   'P 1'
_cell_length_a   10.17758750
_cell_length_b   10.12363719
_cell_length_c   9.33426389
_cell_angle_alpha   90.03740882
_cell_angle_beta   89.84402849
_cell_angle_gamma   60.33944643
_symmetry_Int_Tables_number   1
_chemical_formula_structural   Sc11Al25N36
_chemical_formula_sum   'Sc11 Al25 N36'
_cell_volume   835.72755943
_cell_formula_units_Z   1
loop_
 _symmetry_equiv_pos_site_id
 _symmetry_equiv_pos_as_xyz
  1  'x, y, z'
loop_
 _atom_site_type_symbol
 _atom_site_label
 _atom_site_symmetry_multiplicity
 _atom_site_fract_x
 _atom_site_fract_y
 _atom_site_fract_z
 _atom_site_occupancy
  Al  Al0  1  0.11422377  0.09524857  0.33963529  1
  Al  Al1  1  0.23131105  0.19441436  0.08412251  1
  Al  Al2  1  0.44210359  0.09433694  0.32460353  1
  Al  Al3  1  0.54756734  0.21293433  0.08417034  1
  Al  Al4  1  0.11207373  0.09659120  0.86326620  1
  Al  Al5  1  0.76694309  0.10732126  0.32152098  1
  Al  Al6  1  0.88708591  0.21019238  0.09073308  1
  Al  Al7  1  0.44677257  0.09512004  0.83513530  1
  Al  Al8  1  0.56027339  0.19922279  0.57606735  1
  Al  Al9  1  0.11851073  0.41411166  0.31748996  1
  Al  Al10  1  0.77094437  0.43215740  0.83397173  1
  Al  Al11  1  0.45269433  0.42226079  0.33620979  1
  Al  Al12  1  0.55623258  0.53595661  0.08192105  1
  Al  Al13  1  0.11486746  0.42263266  0.84696438  1
  Al  Al14  1  0.77460511  0.42494506  0.32527454  1
  Al  Al15  1  0.45090866  0.42685917  0.82490929  1
  Al  Al16  1  0.55806866  0.54147790  0.57754059  1
  Al  Al17  1  0.22739773  0.87292548  0.08596755  1
  Al  Al18  1  0.77329446  0.76433402  0.82542734  1
  Al  Al19  1  0.87523784  0.88431644  0.58106132  1
  Al  Al20  1  0.44331501  0.76603044  0.32331715  1
  Al  Al21  1  0.54946246  0.87587882  0.07509645  1
  Al  Al22  1  0.10690034  0.76177541  0.83695882  1
  Al  Al23  1  0.45331435  0.75488754  0.83873190  1
  Al  Al24  1  0.55034254  0.87726477  0.58751991  1
  Sc  Sc25  1  0.76985814  0.09837094  0.85130748  1
  Sc  Sc26  1  0.88176815  0.20609806  0.58854689  1
  Sc  Sc27  1  0.23364097  0.20036815  0.59215338  1
  Sc  Sc28  1  0.23647418  0.53355944  0.09106394  1
  Sc  Sc29  1  0.88974969  0.53550884  0.59741094  1
  Sc  Sc30  1  0.22812685  0.53343938  0.59791943  1
  Sc  Sc31  1  0.88371011  0.53793784  0.09057492  1
  Sc  Sc32  1  0.11197644  0.76500619  0.34865091  1
  Sc  Sc33  1  0.23074155  0.87039407  0.60267236  1
  Sc  Sc34  1  0.76240955  0.76597091  0.35237174  1
  Sc  Sc35  1  0.88464915  0.87299059  0.09872637  1
  N  N36  1  0.22597149  0.20349060  0.35431292  1
  N  N37  1  0.11242007  0.09277754  0.10847817  1
  N  N38  1  0.89713258  0.21630705  0.87232438  1
  N  N39  1  0.76437909  0.08972844  0.62292665  1
  N  N40  1  0.55404625  0.20377281  0.36886720  1
  N  N41  1  0.44690290  0.09139977  0.11981386  1
  N  N42  1  0.22941391  0.19695770  0.87059133  1
  N  N43  1  0.10907408  0.09713357  0.60352046  1
  N  N44  1  0.88662855  0.20602785  0.35024572  1
  N  N45  1  0.76423889  0.11376962  0.10995234  1
  N  N46  1  0.53023049  0.22159346  0.88184956  1
  N  N47  1  0.46627155  0.08619329  0.63181782  1
  N  N48  1  0.23244543  0.51696528  0.35753584  1
  N  N49  1  0.12287828  0.40719787  0.10542514  1
  N  N50  1  0.88246163  0.54393510  0.85693766  1
  N  N51  1  0.75827866  0.43597285  0.62971124  1
  N  N52  1  0.55551351  0.54523886  0.37153383  1
  N  N53  1  0.46617829  0.41940980  0.13339760  1
  N  N54  1  0.22975707  0.54127130  0.85518630  1
  N  N55  1  0.11425724  0.42330833  0.64287496  1
  N  N56  1  0.90257148  0.51603829  0.35590118  1
  N  N57  1  0.76520640  0.42241918  0.12083347  1
  N  N58  1  0.55455936  0.53709434  0.87841766  1
  N  N59  1  0.46898451  0.41518670  0.61839755  1
  N  N60  1  0.23394664  0.87986713  0.36088417  1
  N  N61  1  0.12063467  0.76941299  0.11543269  1
  N  N62  1  0.89443562  0.85450986  0.86762136  1
  N  N63  1  0.76587319  0.77849878  0.61096398  1
  N  N64  1  0.52721873  0.88792863  0.38168168  1
  N  N65  1  0.44557175  0.76124517  0.11476662  1
  N  N66  1  0.22372068  0.87188120  0.86434576  1
  N  N67  1  0.08772897  0.77317293  0.61107399  1
  N  N68  1  0.87266064  0.89687869  0.36158063  1
  N  N69  1  0.75181015  0.77058585  0.12614051  1
  N  N70  1  0.55647450  0.87388579  0.87110534  1
  N  N71  1  0.46775219  0.74889063  0.63488084  1
