# generated using pymatgen
data_Sc11Al25N36
_symmetry_space_group_name_H-M   'P 1'
_cell_length_a   9.92674161
_cell_length_b   9.89579661
_cell_length_c   10.01942774
_cell_angle_alpha   90.04318666
_cell_angle_beta   89.81967371
_cell_angle_gamma   60.27078224
_symmetry_Int_Tables_number   1
_chemical_formula_structural   Sc11Al25N36
_chemical_formula_sum   'Sc11 Al25 N36'
_cell_volume   854.68461504
_cell_formula_units_Z   1
loop_
 _symmetry_equiv_pos_site_id
 _symmetry_equiv_pos_as_xyz
  1  'x, y, z'
loop_
 _atom_site_type_symbol
 _atom_site_label
 _atom_site_symmetry_multiplicity
 _atom_site_fract_x
 _atom_site_fract_y
 _atom_site_fract_z
 _atom_site_occupancy
  Al  Al0  1  0.11347121  0.09511485  0.31221871  1
  Al  Al1  1  0.22846535  0.19753321  0.07366494  1
  Al  Al2  1  0.44060153  0.09628794  0.31939770  1
  Al  Al3  1  0.54875832  0.21131979  0.07722124  1
  Al  Al4  1  0.11167483  0.09963073  0.83543524  1
  Al  Al5  1  0.76839576  0.10708225  0.31584066  1
  Al  Al6  1  0.88767142  0.21071209  0.07759879  1
  Al  Al7  1  0.44403091  0.09626663  0.82850725  1
  Al  Al8  1  0.56030487  0.20013563  0.57293755  1
  Al  Al9  1  0.11731740  0.41457217  0.31649067  1
  Al  Al10  1  0.77237419  0.43072200  0.82639275  1
  Al  Al11  1  0.45160145  0.42236644  0.32599748  1
  Al  Al12  1  0.55566793  0.53777350  0.07719421  1
  Al  Al13  1  0.11455685  0.42302770  0.82841943  1
  Al  Al14  1  0.77585165  0.42398098  0.31960743  1
  Al  Al15  1  0.44944541  0.42719619  0.82214485  1
  Al  Al16  1  0.55932322  0.53803578  0.57428910  1
  Al  Al17  1  0.22701717  0.87313556  0.06793419  1
  Al  Al18  1  0.77352510  0.76478977  0.81721049  1
  Al  Al19  1  0.87504257  0.88469300  0.57149004  1
  Al  Al20  1  0.44002434  0.76830825  0.32193612  1
  Al  Al21  1  0.54844933  0.87610891  0.07224835  1
  Al  Al22  1  0.10602979  0.76089322  0.81969989  1
  Al  Al23  1  0.45327313  0.75575842  0.82911455  1
  Al  Al24  1  0.55200332  0.87723479  0.57963156  1
  Sc  Sc25  1  0.77206012  0.09803504  0.83942002  1
  Sc  Sc26  1  0.88566009  0.20297062  0.57415198  1
  Sc  Sc27  1  0.23278329  0.19611268  0.57493700  1
  Sc  Sc28  1  0.23323776  0.53445657  0.07714739  1
  Sc  Sc29  1  0.88812293  0.53575349  0.58876311  1
  Sc  Sc30  1  0.23083073  0.53143749  0.58695770  1
  Sc  Sc31  1  0.88428873  0.53729673  0.07699676  1
  Sc  Sc32  1  0.11494150  0.76401258  0.33873015  1
  Sc  Sc33  1  0.23032818  0.87176356  0.59269040  1
  Sc  Sc34  1  0.76476816  0.76380043  0.34230012  1
  Sc  Sc35  1  0.88677575  0.87268413  0.08702980  1
  N  N36  1  0.22293056  0.20196222  0.36215971  1
  N  N37  1  0.11310279  0.09175045  0.11971180  1
  N  N38  1  0.89632757  0.21857235  0.88595566  1
  N  N39  1  0.76624241  0.08953375  0.62965904  1
  N  N40  1  0.55419438  0.20511168  0.37814435  1
  N  N41  1  0.44540303  0.09298320  0.12802153  1
  N  N42  1  0.22676454  0.20293236  0.88138193  1
  N  N43  1  0.10806735  0.09877405  0.64868833  1
  N  N44  1  0.88972591  0.20454213  0.35949871  1
  N  N45  1  0.76537722  0.11379705  0.12012181  1
  N  N46  1  0.53107233  0.22032553  0.88873812  1
  N  N47  1  0.46384952  0.08692852  0.63923946  1
  N  N48  1  0.23350684  0.51598089  0.36877056  1
  N  N49  1  0.12116398  0.40851145  0.12520733  1
  N  N50  1  0.88518335  0.54271344  0.85833925  1
  N  N51  1  0.76003267  0.43072917  0.63890933  1
  N  N52  1  0.55436390  0.54359904  0.38043690  1
  N  N53  1  0.46403264  0.41975772  0.13728152  1
  N  N54  1  0.22592292  0.54050081  0.85763777  1
  N  N55  1  0.11702376  0.41850259  0.64244674  1
  N  N56  1  0.90102472  0.51549279  0.36883136  1
  N  N57  1  0.76563622  0.42246232  0.13105890  1
  N  N58  1  0.55483170  0.53866100  0.88567614  1
  N  N59  1  0.47028789  0.41400027  0.63195666  1
  N  N60  1  0.23008985  0.88736421  0.37933730  1
  N  N61  1  0.12362238  0.76976436  0.12865030  1
  N  N62  1  0.89578254  0.85316562  0.87536214  1
  N  N63  1  0.76629506  0.77963456  0.61943514  1
  N  N64  1  0.52735707  0.88920779  0.38896737  1
  N  N65  1  0.44304103  0.76277159  0.12684767  1
  N  N66  1  0.22478238  0.86938336  0.87101305  1
  N  N67  1  0.08731613  0.77301546  0.62253150  1
  N  N68  1  0.87372856  0.89740340  0.37476675  1
  N  N69  1  0.75284437  0.77018270  0.13380530  1
  N  N70  1  0.55579668  0.87396006  0.88011130  1
  N  N71  1  0.46978670  0.74780668  0.63989675  1
