# generated using pymatgen
data_Sc11Al25N36
_symmetry_space_group_name_H-M   'P 1'
_cell_length_a   10.25777671
_cell_length_b   10.19499714
_cell_length_c   9.11528658
_cell_angle_alpha   90.04942415
_cell_angle_beta   90.02915540
_cell_angle_gamma   60.34446576
_symmetry_Int_Tables_number   1
_chemical_formula_structural   Sc11Al25N36
_chemical_formula_sum   'Sc11 Al25 N36'
_cell_volume   828.39633515
_cell_formula_units_Z   1
loop_
 _symmetry_equiv_pos_site_id
 _symmetry_equiv_pos_as_xyz
  1  'x, y, z'
loop_
 _atom_site_type_symbol
 _atom_site_label
 _atom_site_symmetry_multiplicity
 _atom_site_fract_x
 _atom_site_fract_y
 _atom_site_fract_z
 _atom_site_occupancy
  Al  Al0  1  0.11606950  0.09414892  0.35116458  1
  Al  Al1  1  0.23104517  0.19588502  0.11003020  1
  Al  Al2  1  0.44662412  0.09278325  0.36221797  1
  Al  Al3  1  0.55586234  0.20935621  0.12493715  1
  Al  Al4  1  0.11111029  0.09606090  0.88687436  1
  Al  Al5  1  0.76766656  0.10188666  0.37022521  1
  Al  Al6  1  0.88161368  0.20870523  0.12341392  1
  Al  Al7  1  0.44270322  0.09590382  0.88012171  1
  Al  Al8  1  0.55233953  0.20327364  0.61626232  1
  Al  Al9  1  0.11911789  0.41577837  0.32679863  1
  Al  Al10  1  0.77432731  0.42740839  0.87584503  1
  Al  Al11  1  0.45405824  0.42293658  0.37312832  1
  Al  Al12  1  0.55458871  0.53868803  0.11999848  1
  Al  Al13  1  0.11470295  0.42035665  0.85351755  1
  Al  Al14  1  0.77094114  0.42880711  0.36354278  1
  Al  Al15  1  0.44988464  0.42617769  0.86812188  1
  Al  Al16  1  0.55900987  0.53877344  0.62334607  1
  Al  Al17  1  0.23169421  0.87120320  0.11642180  1
  Al  Al18  1  0.76912150  0.76257377  0.86676434  1
  Al  Al19  1  0.87961043  0.87515122  0.62142650  1
  Al  Al20  1  0.44845694  0.76047744  0.37228165  1
  Al  Al21  1  0.54323807  0.87616628  0.11571341  1
  Al  Al22  1  0.11261735  0.76314193  0.86706518  1
  Al  Al23  1  0.44608405  0.75982869  0.87063071  1
  Al  Al24  1  0.55638452  0.87566005  0.62793398  1
  Sc  Sc25  1  0.76830154  0.10561264  0.85263984  1
  Sc  Sc26  1  0.88923273  0.20792678  0.60084806  1
  Sc  Sc27  1  0.23398202  0.19640809  0.60865705  1
  Sc  Sc28  1  0.23582097  0.53169921  0.10043339  1
  Sc  Sc29  1  0.88601420  0.54112034  0.60874301  1
  Sc  Sc30  1  0.22785385  0.53607043  0.60884601  1
  Sc  Sc31  1  0.88683929  0.53390581  0.10195201  1
  Sc  Sc32  1  0.10681920  0.76584550  0.35294254  1
  Sc  Sc33  1  0.22642277  0.87176192  0.61057649  1
  Sc  Sc34  1  0.76464326  0.76897428  0.35635985  1
  Sc  Sc35  1  0.88058465  0.88316662  0.10058117  1
  N  N36  1  0.22897799  0.20268798  0.33575106  1
  N  N37  1  0.10930723  0.09411551  0.10317795  1
  N  N38  1  0.90159002  0.21476482  0.84363462  1
  N  N39  1  0.76608106  0.08984836  0.59468699  1
  N  N40  1  0.55424378  0.20807248  0.33636051  1
  N  N41  1  0.44822348  0.09541222  0.09116713  1
  N  N42  1  0.22755484  0.19427430  0.85946315  1
  N  N43  1  0.11327956  0.09372730  0.56396987  1
  N  N44  1  0.88342627  0.20714783  0.33882820  1
  N  N45  1  0.76373201  0.11686232  0.08788059  1
  N  N46  1  0.53038187  0.21605116  0.82872858  1
  N  N47  1  0.46575781  0.08149475  0.57451727  1
  N  N48  1  0.23443320  0.51782407  0.34954973  1
  N  N49  1  0.12282388  0.40721203  0.09497637  1
  N  N50  1  0.88217509  0.54037106  0.85539824  1
  N  N51  1  0.75874953  0.43808400  0.57487214  1
  N  N52  1  0.55188971  0.54324104  0.33036679  1
  N  N53  1  0.46685793  0.41694055  0.08064119  1
  N  N54  1  0.22823117  0.54185749  0.85440337  1
  N  N55  1  0.11392442  0.42309116  0.63353048  1
  N  N56  1  0.90282548  0.52068462  0.34759191  1
  N  N57  1  0.76571766  0.42019984  0.09019929  1
  N  N58  1  0.55792053  0.53818881  0.83564963  1
  N  N59  1  0.46675054  0.41830888  0.58459156  1
  N  N60  1  0.23685001  0.87457669  0.33673213  1
  N  N61  1  0.11877707  0.77103261  0.09422303  1
  N  N62  1  0.89307927  0.85941795  0.84696564  1
  N  N63  1  0.76514899  0.77863090  0.60011609  1
  N  N64  1  0.53251315  0.88251281  0.32576842  1
  N  N65  1  0.44533937  0.75767488  0.08021992  1
  N  N66  1  0.22181813  0.87688469  0.85142744  1
  N  N67  1  0.08940527  0.77253729  0.59646800  1
  N  N68  1  0.87321364  0.89446966  0.33903131  1
  N  N69  1  0.75370091  0.77122474  0.09032478  1
  N  N70  1  0.54965543  0.87746819  0.84131148  1
  N  N71  1  0.46544234  0.75227058  0.58745710  1
