# generated using pymatgen
data_Sc11Al25N36
_symmetry_space_group_name_H-M   'P 1'
_cell_length_a   9.89360974
_cell_length_b   9.87055365
_cell_length_c   10.11535996
_cell_angle_alpha   89.92892068
_cell_angle_beta   90.06546959
_cell_angle_gamma   60.23004177
_symmetry_Int_Tables_number   1
_chemical_formula_structural   Sc11Al25N36
_chemical_formula_sum   'Sc11 Al25 N36'
_cell_volume   857.45057255
_cell_formula_units_Z   1
loop_
 _symmetry_equiv_pos_site_id
 _symmetry_equiv_pos_as_xyz
  1  'x, y, z'
loop_
 _atom_site_type_symbol
 _atom_site_label
 _atom_site_symmetry_multiplicity
 _atom_site_fract_x
 _atom_site_fract_y
 _atom_site_fract_z
 _atom_site_occupancy
  Al  Al0  1  0.11599597  0.09492276  0.36900906  1
  Al  Al1  1  0.22817817  0.19762255  0.13107116  1
  Al  Al2  1  0.44518588  0.09393398  0.37520733  1
  Al  Al3  1  0.55712803  0.20734117  0.13293439  1
  Al  Al4  1  0.11113171  0.09760131  0.89268033  1
  Al  Al5  1  0.76930852  0.09901196  0.38452815  1
  Al  Al6  1  0.88370840  0.20748188  0.13628345  1
  Al  Al7  1  0.44012874  0.09673962  0.88631224  1
  Al  Al8  1  0.55308864  0.20354017  0.62547363  1
  Al  Al9  1  0.11672602  0.41739088  0.37427931  1
  Al  Al10  1  0.77400128  0.42658600  0.88660486  1
  Al  Al11  1  0.45236923  0.42201201  0.37990146  1
  Al  Al12  1  0.55583965  0.53720558  0.13006269  1
  Al  Al13  1  0.11513266  0.41934768  0.88787491  1
  Al  Al14  1  0.77367030  0.42874099  0.37539734  1
  Al  Al15  1  0.44818847  0.42677111  0.88176267  1
  Al  Al16  1  0.55826308  0.53882794  0.62725815  1
  Al  Al17  1  0.22935199  0.87572066  0.13020037  1
  Al  Al18  1  0.76775324  0.76497254  0.88336880  1
  Al  Al19  1  0.88285256  0.87245172  0.63776338  1
  Al  Al20  1  0.44735948  0.76169945  0.37711854  1
  Al  Al21  1  0.54327777  0.87826687  0.12878494  1
  Al  Al22  1  0.11417869  0.76356518  0.88869009  1
  Al  Al23  1  0.44464727  0.76144485  0.88389915  1
  Al  Al24  1  0.55708752  0.87450565  0.63235332  1
  Sc  Sc25  1  0.76998646  0.10518000  0.86663857  1
  Sc  Sc26  1  0.88913148  0.20824495  0.61392529  1
  Sc  Sc27  1  0.23329202  0.19766580  0.62898466  1
  Sc  Sc28  1  0.23404008  0.52998616  0.11668181  1
  Sc  Sc29  1  0.88350347  0.54190001  0.63699548  1
  Sc  Sc30  1  0.22848640  0.53665236  0.63249423  1
  Sc  Sc31  1  0.88633137  0.53405755  0.11407593  1
  Sc  Sc32  1  0.10972319  0.76282403  0.36911627  1
  Sc  Sc33  1  0.22751173  0.86994706  0.62772717  1
  Sc  Sc34  1  0.76930510  0.76375776  0.37754016  1
  Sc  Sc35  1  0.87983016  0.88392462  0.11687143  1
  N  N36  1  0.22732018  0.20240608  0.32222981  1
  N  N37  1  0.10826246  0.09594376  0.08395847  1
  N  N38  1  0.90168303  0.21715001  0.82564930  1
  N  N39  1  0.76790570  0.08624035  0.58229107  1
  N  N40  1  0.55563319  0.20602311  0.32358679  1
  N  N41  1  0.44582204  0.09574903  0.07609224  1
  N  N42  1  0.22354812  0.20058793  0.84027536  1
  N  N43  1  0.11755011  0.09124108  0.55417482  1
  N  N44  1  0.88575555  0.20554235  0.33091439  1
  N  N45  1  0.76531152  0.11800450  0.07394723  1
  N  N46  1  0.52785427  0.21820608  0.81483317  1
  N  N47  1  0.46456884  0.08269495  0.56337522  1
  N  N48  1  0.23589561  0.51728571  0.33164282  1
  N  N49  1  0.12352946  0.40372508  0.07253454  1
  N  N50  1  0.88634112  0.53953170  0.85380053  1
  N  N51  1  0.75957662  0.44076203  0.56157290  1
  N  N52  1  0.55355677  0.54104107  0.31947784  1
  N  N53  1  0.46834279  0.41551701  0.06845869  1
  N  N54  1  0.22310700  0.54028589  0.85091785  1
  N  N55  1  0.11144339  0.42614885  0.57089126  1
  N  N56  1  0.89928819  0.52035190  0.32797810  1
  N  N57  1  0.76573865  0.41694505  0.07399640  1
  N  N58  1  0.55530996  0.54008352  0.82129917  1
  N  N59  1  0.46568332  0.41788148  0.56880077  1
  N  N60  1  0.23442841  0.87861227  0.32080051  1
  N  N61  1  0.12033172  0.77238780  0.07929015  1
  N  N62  1  0.89596250  0.85689403  0.83468740  1
  N  N63  1  0.76839443  0.77692211  0.58786820  1
  N  N64  1  0.53539271  0.88286678  0.31565754  1
  N  N65  1  0.44535473  0.75900918  0.07297960  1
  N  N66  1  0.22194273  0.87608864  0.83956062  1
  N  N67  1  0.09080026  0.77083574  0.57912994  1
  N  N68  1  0.87348607  0.89379085  0.32386447  1
  N  N69  1  0.75051170  0.77483317  0.07123190  1
  N  N70  1  0.54876513  0.87698288  0.82461043  1
  N  N71  1  0.46509226  0.75237094  0.56809697  1
