# generated using pymatgen
data_Sc11Al25N36
_symmetry_space_group_name_H-M   'P 1'
_cell_length_a   9.86603407
_cell_length_b   9.83670802
_cell_length_c   10.19734203
_cell_angle_alpha   89.94517358
_cell_angle_beta   90.08621658
_cell_angle_gamma   60.17204692
_symmetry_Int_Tables_number   1
_chemical_formula_structural   Sc11Al25N36
_chemical_formula_sum   'Sc11 Al25 N36'
_cell_volume   858.53694643
_cell_formula_units_Z   1
loop_
 _symmetry_equiv_pos_site_id
 _symmetry_equiv_pos_as_xyz
  1  'x, y, z'
loop_
 _atom_site_type_symbol
 _atom_site_label
 _atom_site_symmetry_multiplicity
 _atom_site_fract_x
 _atom_site_fract_y
 _atom_site_fract_z
 _atom_site_occupancy
  Al  Al0  1  0.11558374  0.09520978  0.37321551  1
  Al  Al1  1  0.22743265  0.19858394  0.13668605  1
  Al  Al2  1  0.44489667  0.09441372  0.37903027  1
  Al  Al3  1  0.55622542  0.20776682  0.13683661  1
  Al  Al4  1  0.11108985  0.09841780  0.89670653  1
  Al  Al5  1  0.76933768  0.09945329  0.38746388  1
  Al  Al6  1  0.88390173  0.20791623  0.14005257  1
  Al  Al7  1  0.43899180  0.09746304  0.88972099  1
  Al  Al8  1  0.55411499  0.20266819  0.62947014  1
  Al  Al9  1  0.11623761  0.41820547  0.38132978  1
  Al  Al10  1  0.77456965  0.42740455  0.89031323  1
  Al  Al11  1  0.45289371  0.42239015  0.38455395  1
  Al  Al12  1  0.55575288  0.53729040  0.13359509  1
  Al  Al13  1  0.11489938  0.42009200  0.89317646  1
  Al  Al14  1  0.77356731  0.42866410  0.38028510  1
  Al  Al15  1  0.44634126  0.42755831  0.88536205  1
  Al  Al16  1  0.55875091  0.53872106  0.63156878  1
  Al  Al17  1  0.22869600  0.87586761  0.13312892  1
  Al  Al18  1  0.76867386  0.76394291  0.88625318  1
  Al  Al19  1  0.88287923  0.87274480  0.64289228  1
  Al  Al20  1  0.44681628  0.76236241  0.38012743  1
  Al  Al21  1  0.54366619  0.87836219  0.13215781  1
  Al  Al22  1  0.11412663  0.76222377  0.89199368  1
  Al  Al23  1  0.44471194  0.76140983  0.88873830  1
  Al  Al24  1  0.55724720  0.87381611  0.63697666  1
  Sc  Sc25  1  0.76949431  0.10537201  0.87380398  1
  Sc  Sc26  1  0.88901903  0.20687224  0.61974526  1
  Sc  Sc27  1  0.23331072  0.19721168  0.63164777  1
  Sc  Sc28  1  0.23372147  0.53018461  0.12534767  1
  Sc  Sc29  1  0.88602856  0.53977307  0.64002873  1
  Sc  Sc30  1  0.22907428  0.53489685  0.63490660  1
  Sc  Sc31  1  0.88610642  0.53443915  0.12149063  1
  Sc  Sc32  1  0.10960276  0.76455263  0.37644764  1
  Sc  Sc33  1  0.22855632  0.86925785  0.63453232  1
  Sc  Sc34  1  0.76838836  0.76485516  0.38453415  1
  Sc  Sc35  1  0.88046561  0.88251096  0.12237311  1
  N  N36  1  0.22659224  0.20342876  0.32604054  1
  N  N37  1  0.10813286  0.09693223  0.08666683  1
  N  N38  1  0.90111018  0.21678696  0.82957361  1
  N  N39  1  0.76816890  0.08548816  0.58322058  1
  N  N40  1  0.55497892  0.20664591  0.32633701  1
  N  N41  1  0.44468163  0.09656437  0.07878198  1
  N  N42  1  0.22236475  0.20221838  0.84153194  1
  N  N43  1  0.11754266  0.08986864  0.55718456  1
  N  N44  1  0.88587905  0.20590427  0.33323206  1
  N  N45  1  0.76538410  0.11746918  0.07915189  1
  N  N46  1  0.52815999  0.21792288  0.81765873  1
  N  N47  1  0.46500151  0.08203936  0.56614192  1
  N  N48  1  0.23549884  0.51897466  0.33743260  1
  N  N49  1  0.12315985  0.40473646  0.07598390  1
  N  N50  1  0.88772484  0.53869537  0.85458660  1
  N  N51  1  0.76042879  0.43974989  0.56519698  1
  N  N52  1  0.55378575  0.54094172  0.32231661  1
  N  N53  1  0.46694726  0.41633067  0.07106195  1
  N  N54  1  0.22216331  0.53953142  0.85083906  1
  N  N55  1  0.11261282  0.42471537  0.56815511  1
  N  N56  1  0.89816659  0.52176185  0.33287893  1
  N  N57  1  0.76590543  0.41763082  0.07646237  1
  N  N58  1  0.55493674  0.54039838  0.82454784  1
  N  N59  1  0.46665927  0.41738907  0.57200176  1
  N  N60  1  0.23391234  0.87926314  0.32221263  1
  N  N61  1  0.12062979  0.77123534  0.08076099  1
  N  N62  1  0.89553451  0.85760217  0.83731839  1
  N  N63  1  0.76922023  0.77576925  0.59310686  1
  N  N64  1  0.53564455  0.88320944  0.31794328  1
  N  N65  1  0.44542365  0.75912965  0.07637381  1
  N  N66  1  0.22187645  0.87616272  0.84420157  1
  N  N67  1  0.09157708  0.77060033  0.58440188  1
  N  N68  1  0.87387858  0.89297165  0.32760377  1
  N  N69  1  0.75092487  0.77423009  0.07257092  1
  N  N70  1  0.54827764  0.87702801  0.82779369  1
  N  N71  1  0.46509645  0.75235263  0.57026503  1
