# generated using pymatgen
data_Sc11Al25N36
_symmetry_space_group_name_H-M   'P 1'
_cell_length_a   9.86564906
_cell_length_b   9.83623758
_cell_length_c   10.19860916
_cell_angle_alpha   89.94542425
_cell_angle_beta   90.08668130
_cell_angle_gamma   60.17075992
_symmetry_Int_Tables_number   1
_chemical_formula_structural   Sc11Al25N36
_chemical_formula_sum   'Sc11 Al25 N36'
_cell_volume   858.55799138
_cell_formula_units_Z   1
loop_
 _symmetry_equiv_pos_site_id
 _symmetry_equiv_pos_as_xyz
  1  'x, y, z'
loop_
 _atom_site_type_symbol
 _atom_site_label
 _atom_site_symmetry_multiplicity
 _atom_site_fract_x
 _atom_site_fract_y
 _atom_site_fract_z
 _atom_site_occupancy
  Al  Al0  1  0.11547460  0.09530335  0.38737556  1
  Al  Al1  1  0.22731644  0.19868866  0.15084661  1
  Al  Al2  1  0.44478638  0.09450844  0.39318565  1
  Al  Al3  1  0.55610689  0.20786234  0.15099905  1
  Al  Al4  1  0.11098055  0.09851725  0.91086972  1
  Al  Al5  1  0.76923604  0.09954828  0.40160908  1
  Al  Al6  1  0.88380026  0.20801108  0.15420655  1
  Al  Al7  1  0.43887424  0.09756247  0.90387347  1
  Al  Al8  1  0.55402470  0.20274667  0.64362242  1
  Al  Al9  1  0.11612721  0.41830501  0.39549250  1
  Al  Al10  1  0.77446102  0.42750556  0.90447018  1
  Al  Al11  1  0.45278817  0.42248482  0.39871317  1
  Al  Al12  1  0.55564609  0.53738056  0.14774735  1
  Al  Al13  1  0.11478299  0.42019973  0.90734393  1
  Al  Al14  1  0.77346744  0.42874488  0.39445209  1
  Al  Al15  1  0.44622003  0.42765745  0.89951594  1
  Al  Al16  1  0.55865308  0.53880442  0.64571808  1
  Al  Al17  1  0.22858027  0.87596366  0.14727262  1
  Al  Al18  1  0.76857244  0.76403619  0.90039738  1
  Al  Al19  1  0.88277606  0.87284075  0.65706199  1
  Al  Al20  1  0.44670722  0.76245886  0.39426831  1
  Al  Al21  1  0.54356602  0.87845656  0.14630864  1
  Al  Al22  1  0.11401009  0.76231713  0.90614016  1
  Al  Al23  1  0.44460551  0.76150223  0.90290629  1
  Al  Al24  1  0.55714354  0.87389969  0.65114154  1
  Sc  Sc25  1  0.76937847  0.10546365  0.88801606  1
  Sc  Sc26  1  0.88891689  0.20693715  0.63393502  1
  Sc  Sc27  1  0.23320769  0.19729362  0.64580758  1
  Sc  Sc28  1  0.23360794  0.53029333  0.13953542  1
  Sc  Sc29  1  0.88594049  0.53983765  0.65419695  1
  Sc  Sc30  1  0.22898145  0.53496825  0.64907509  1
  Sc  Sc31  1  0.88598448  0.53454589  0.13567493  1
  Sc  Sc32  1  0.10950648  0.76465717  0.39066191  1
  Sc  Sc33  1  0.22847326  0.86934111  0.64872492  1
  Sc  Sc34  1  0.76827549  0.76495003  0.39874230  1
  Sc  Sc35  1  0.88036940  0.88258260  0.13657409  1
  N  N36  1  0.22647936  0.20352715  0.34018065  1
  N  N37  1  0.10802386  0.09703624  0.10080430  1
  N  N38  1  0.90099146  0.21687115  0.84373613  1
  N  N39  1  0.76806856  0.08556963  0.59732919  1
  N  N40  1  0.55486526  0.20674086  0.34047808  1
  N  N41  1  0.44456490  0.09666612  0.09291943  1
  N  N42  1  0.22224313  0.20232724  0.85567320  1
  N  N43  1  0.11744033  0.08994457  0.57132654  1
  N  N44  1  0.88577968  0.20599396  0.34736013  1
  N  N45  1  0.76528081  0.11754755  0.09333495  1
  N  N46  1  0.52805733  0.21801091  0.83179474  1
  N  N47  1  0.46489921  0.08212285  0.58028026  1
  N  N48  1  0.23538354  0.51908506  0.35159070  1
  N  N49  1  0.12304125  0.40485226  0.09013299  1
  N  N50  1  0.88761982  0.53878474  0.86872113  1
  N  N51  1  0.76033989  0.43981568  0.57934392  1
  N  N52  1  0.55368419  0.54102691  0.33645590  1
  N  N53  1  0.46683051  0.41642742  0.08519790  1
  N  N54  1  0.22204757  0.53962239  0.86496964  1
  N  N55  1  0.11251766  0.42479547  0.58228506  1
  N  N56  1  0.89804809  0.52186584  0.34703539  1
  N  N57  1  0.76579803  0.41772830  0.09059709  1
  N  N58  1  0.55482326  0.54049424  0.83868567  1
  N  N59  1  0.46656129  0.41747397  0.58613983  1
  N  N60  1  0.23380142  0.87935880  0.33633318  1
  N  N61  1  0.12051712  0.77133166  0.09487572  1
  N  N62  1  0.89541880  0.85770862  0.85144728  1
  N  N63  1  0.76912697  0.77584391  0.60728623  1
  N  N64  1  0.53554895  0.88329963  0.33207628  1
  N  N65  1  0.44532006  0.75922211  0.09052052  1
  N  N66  1  0.22176969  0.87625997  0.85836283  1
  N  N67  1  0.09149150  0.77068807  0.59858501  1
  N  N68  1  0.87378639  0.89303979  0.34177567  1
  N  N69  1  0.75082036  0.77433000  0.08668834  1
  N  N70  1  0.54816001  0.87712363  0.84193648  1
  N  N71  1  0.46499818  0.75243987  0.58439180  1
