# generated using pymatgen
data_Sc11Al25N36
_symmetry_space_group_name_H-M   'P 1'
_cell_length_a   10.30690887
_cell_length_b   10.24071685
_cell_length_c   8.97615846
_cell_angle_alpha   90.04494018
_cell_angle_beta   90.01892409
_cell_angle_gamma   60.34079969
_symmetry_Int_Tables_number   1
_chemical_formula_structural   Sc11Al25N36
_chemical_formula_sum   'Sc11 Al25 N36'
_cell_volume   823.30547402
_cell_formula_units_Z   1
loop_
 _symmetry_equiv_pos_site_id
 _symmetry_equiv_pos_as_xyz
  1  'x, y, z'
loop_
 _atom_site_type_symbol
 _atom_site_label
 _atom_site_symmetry_multiplicity
 _atom_site_fract_x
 _atom_site_fract_y
 _atom_site_fract_z
 _atom_site_occupancy
  Al  Al0  1  0.11580291  0.09414115  0.34897786  1
  Al  Al1  1  0.23052473  0.19657682  0.10810503  1
  Al  Al2  1  0.44635905  0.09276948  0.35900376  1
  Al  Al3  1  0.55467125  0.20979637  0.12267213  1
  Al  Al4  1  0.11151777  0.09603666  0.88464806  1
  Al  Al5  1  0.76794326  0.10278698  0.36306019  1
  Al  Al6  1  0.88254514  0.20901575  0.11823816  1
  Al  Al7  1  0.44282797  0.09600516  0.87813313  1
  Al  Al8  1  0.55309471  0.20297811  0.61281185  1
  Al  Al9  1  0.11877354  0.41605396  0.32935104  1
  Al  Al10  1  0.77400461  0.42808147  0.87299915  1
  Al  Al11  1  0.45380467  0.42322972  0.37060080  1
  Al  Al12  1  0.55449858  0.53884526  0.11755549  1
  Al  Al13  1  0.11494445  0.42006631  0.85415876  1
  Al  Al14  1  0.77127012  0.42822554  0.36054857  1
  Al  Al15  1  0.44991608  0.42611753  0.86525162  1
  Al  Al16  1  0.55893838  0.53875342  0.62084325  1
  Al  Al17  1  0.23130313  0.87089718  0.11143053  1
  Al  Al18  1  0.76985622  0.76294077  0.86164129  1
  Al  Al19  1  0.87897510  0.87666812  0.61498022  1
  Al  Al20  1  0.44806402  0.76065734  0.36907245  1
  Al  Al21  1  0.54394975  0.87572365  0.11208233  1
  Al  Al22  1  0.11120249  0.76325167  0.86096029  1
  Al  Al23  1  0.44686737  0.75919675  0.86814665  1
  Al  Al24  1  0.55576861  0.87600424  0.62668138  1
  Sc  Sc25  1  0.76805185  0.10463807  0.85251069  1
  Sc  Sc26  1  0.88883947  0.20737481  0.59958072  1
  Sc  Sc27  1  0.23393543  0.19663387  0.60632762  1
  Sc  Sc28  1  0.23524611  0.53212254  0.09986736  1
  Sc  Sc29  1  0.88658661  0.54034397  0.60738180  1
  Sc  Sc30  1  0.22807199  0.53540682  0.60780510  1
  Sc  Sc31  1  0.88695760  0.53419304  0.10137668  1
  Sc  Sc32  1  0.10769585  0.76588810  0.35258411  1
  Sc  Sc33  1  0.22713538  0.87202107  0.60959194  1
  Sc  Sc34  1  0.76390525  0.76884528  0.35546472  1
  Sc  Sc35  1  0.88152684  0.88153120  0.10027419  1
  N  N36  1  0.22843467  0.20321445  0.33726001  1
  N  N37  1  0.11006637  0.09398558  0.10476226  1
  N  N38  1  0.90082040  0.21419288  0.84947756  1
  N  N39  1  0.76583326  0.09093409  0.59517066  1
  N  N40  1  0.55355323  0.20836984  0.33911324  1
  N  N41  1  0.44772456  0.09570669  0.09405942  1
  N  N42  1  0.22779762  0.19433470  0.86094751  1
  N  N43  1  0.11280128  0.09399525  0.56803171  1
  N  N44  1  0.88440752  0.20719045  0.33878576  1
  N  N45  1  0.76391411  0.11560965  0.09432872  1
  N  N46  1  0.53144650  0.21552791  0.83201293  1
  N  N47  1  0.46533912  0.08170330  0.57730298  1
  N  N48  1  0.23394274  0.51842773  0.35047736  1
  N  N49  1  0.12248843  0.40771732  0.09455892  1
  N  N50  1  0.88246589  0.54002552  0.85488663  1
  N  N51  1  0.75943201  0.43722594  0.57840343  1
  N  N52  1  0.55195473  0.54328078  0.33319470  1
  N  N53  1  0.46599809  0.41754302  0.08367791  1
  N  N54  1  0.22842898  0.54131537  0.85394463  1
  N  N55  1  0.11406657  0.42277718  0.63072852  1
  N  N56  1  0.90254023  0.52108758  0.34882070  1
  N  N57  1  0.76555535  0.42120299  0.09311015  1
  N  N58  1  0.55795213  0.53796556  0.83831571  1
  N  N59  1  0.46622755  0.41858796  0.58748774  1
  N  N60  1  0.23663379  0.87463312  0.33851375  1
  N  N61  1  0.11824258  0.77071078  0.09527796  1
  N  N62  1  0.89229779  0.86047185  0.84740413  1
  N  N63  1  0.76492987  0.77827642  0.60456734  1
  N  N64  1  0.53283626  0.88227524  0.32789502  1
  N  N65  1  0.44558969  0.75733641  0.08247273  1
  N  N66  1  0.22219093  0.87674915  0.85504974  1
  N  N67  1  0.09049383  0.77239774  0.60203459  1
  N  N68  1  0.87401345  0.89313667  0.34556586  1
  N  N69  1  0.75461254  0.77086968  0.09195990  1
  N  N70  1  0.54950824  0.87772860  0.84494119  1
  N  N71  1  0.46526870  0.75246209  0.59108488  1
