# generated using pymatgen
data_Sc11Al25N36
_symmetry_space_group_name_H-M   'P 1'
_cell_length_a   9.93171721
_cell_length_b   9.91069754
_cell_length_c   10.05912564
_cell_angle_alpha   89.99515197
_cell_angle_beta   90.06210512
_cell_angle_gamma   60.27341906
_symmetry_Int_Tables_number   1
_chemical_formula_structural   Sc11Al25N36
_chemical_formula_sum   'Sc11 Al25 N36'
_cell_volume   859.82294636
_cell_formula_units_Z   1
loop_
 _symmetry_equiv_pos_site_id
 _symmetry_equiv_pos_as_xyz
  1  'x, y, z'
loop_
 _atom_site_type_symbol
 _atom_site_label
 _atom_site_symmetry_multiplicity
 _atom_site_fract_x
 _atom_site_fract_y
 _atom_site_fract_z
 _atom_site_occupancy
  Al  Al0  1  0.11604649  0.09454105  0.36903602  1
  Al  Al1  1  0.23227207  0.19003453  0.12496014  1
  Al  Al2  1  0.44586578  0.09312943  0.37535131  1
  Al  Al3  1  0.55795247  0.20683329  0.13307139  1
  Al  Al4  1  0.11102624  0.09670324  0.89293652  1
  Al  Al5  1  0.76932686  0.09893932  0.38487096  1
  Al  Al6  1  0.88361847  0.20700988  0.13639393  1
  Al  Al7  1  0.44142618  0.09588155  0.88691772  1
  Al  Al8  1  0.55306169  0.20355511  0.62545812  1
  Al  Al9  1  0.11848620  0.41484835  0.30972884  1
  Al  Al10  1  0.77264504  0.42569279  0.88654170  1
  Al  Al11  1  0.45237183  0.42126254  0.37905570  1
  Al  Al12  1  0.55625659  0.53662163  0.13039001  1
  Al  Al13  1  0.11286705  0.42360791  0.84965455  1
  Al  Al14  1  0.77415170  0.42828855  0.37437808  1
  Al  Al15  1  0.45066652  0.42587496  0.88140914  1
  Al  Al16  1  0.55804636  0.53831852  0.62643491  1
  Al  Al17  1  0.22967063  0.87546802  0.13101153  1
  Al  Al18  1  0.76592413  0.76707062  0.88393536  1
  Al  Al19  1  0.88262781  0.87243888  0.63687151  1
  Al  Al20  1  0.44777391  0.76114775  0.37731119  1
  Al  Al21  1  0.54336842  0.87785167  0.12917082  1
  Al  Al22  1  0.11395251  0.76589624  0.88876642  1
  Al  Al23  1  0.44440277  0.76157956  0.88283806  1
  Al  Al24  1  0.55675416  0.87533619  0.63155692  1
  Sc  Sc25  1  0.77021338  0.10488807  0.86530197  1
  Sc  Sc26  1  0.88886659  0.20883483  0.61358213  1
  Sc  Sc27  1  0.23442334  0.19574291  0.63077982  1
  Sc  Sc28  1  0.23610469  0.53254677  0.10586735  1
  Sc  Sc29  1  0.87596377  0.54635144  0.63729815  1
  Sc  Sc30  1  0.23014038  0.53994823  0.63184055  1
  Sc  Sc31  1  0.88274975  0.53609230  0.10513460  1
  Sc  Sc32  1  0.10938778  0.76187954  0.36627731  1
  Sc  Sc33  1  0.22634331  0.87093654  0.62516428  1
  Sc  Sc34  1  0.77003294  0.76348260  0.37484028  1
  Sc  Sc35  1  0.87927546  0.88518013  0.11600975  1
  N  N36  1  0.23036138  0.19681487  0.32234624  1
  N  N37  1  0.10797055  0.09408213  0.08457842  1
  N  N38  1  0.90179298  0.21701757  0.82638239  1
  N  N39  1  0.76792046  0.08647187  0.58379053  1
  N  N40  1  0.55599025  0.20546331  0.32423378  1
  N  N41  1  0.44853345  0.09387967  0.07675619  1
  N  N42  1  0.22579382  0.19685998  0.84852430  1
  N  N43  1  0.11644925  0.09297331  0.55490475  1
  N  N44  1  0.88595909  0.20525239  0.33146893  1
  N  N45  1  0.76537130  0.11812575  0.07374308  1
  N  N46  1  0.52813457  0.21798927  0.81565453  1
  N  N47  1  0.46459173  0.08327251  0.56412239  1
  N  N48  1  0.23627573  0.51647715  0.33184860  1
  N  N49  1  0.12336697  0.40451964  0.10234957  1
  N  N50  1  0.88083416  0.54221177  0.85960626  1
  N  N51  1  0.75869813  0.43970128  0.56100024  1
  N  N52  1  0.55351431  0.54093913  0.32009034  1
  N  N53  1  0.47109038  0.41379806  0.06902184  1
  N  N54  1  0.22644893  0.54308709  0.85786180  1
  N  N55  1  0.10964431  0.42874118  0.64721319  1
  N  N56  1  0.89940843  0.52007675  0.32834442  1
  N  N57  1  0.76521228  0.41567883  0.07484660  1
  N  N58  1  0.55566516  0.53979602  0.82117277  1
  N  N59  1  0.46649935  0.41670377  0.56879865  1
  N  N60  1  0.23483526  0.87784103  0.32264910  1
  N  N61  1  0.11896114  0.77528550  0.08066542  1
  N  N62  1  0.89612211  0.85650345  0.83534239  1
  N  N63  1  0.76691073  0.77941034  0.58634645  1
  N  N64  1  0.53551703  0.88213500  0.31670961  1
  N  N65  1  0.44532155  0.75869518  0.07314359  1
  N  N66  1  0.22200614  0.87622123  0.83847090  1
  N  N67  1  0.08947404  0.77207132  0.57771740  1
  N  N68  1  0.87325234  0.89449442  0.32389666  1
  N  N69  1  0.74935977  0.77723081  0.07269066  1
  N  N70  1  0.54882335  0.87700587  0.82467906  1
  N  N71  1  0.46501159  0.75214530  0.56922812  1
