# generated using pymatgen
data_Sc11Al25N36
_symmetry_space_group_name_H-M   'P 1'
_cell_length_a   9.86565587
_cell_length_b   9.83624495
_cell_length_c   10.19858879
_cell_angle_alpha   89.94540369
_cell_angle_beta   90.08665564
_cell_angle_gamma   60.17077512
_symmetry_Int_Tables_number   1
_chemical_formula_structural   Sc11Al25N36
_chemical_formula_sum   'Sc11 Al25 N36'
_cell_volume   858.55764312
_cell_formula_units_Z   1
loop_
 _symmetry_equiv_pos_site_id
 _symmetry_equiv_pos_as_xyz
  1  'x, y, z'
loop_
 _atom_site_type_symbol
 _atom_site_label
 _atom_site_symmetry_multiplicity
 _atom_site_fract_x
 _atom_site_fract_y
 _atom_site_fract_z
 _atom_site_occupancy
  Al  Al0  1  0.11544051  0.09533473  0.39208252  1
  Al  Al1  1  0.22728005  0.19872031  0.15554883  1
  Al  Al2  1  0.44474987  0.09454044  0.39788734  1
  Al  Al3  1  0.55607239  0.20789343  0.15570213  1
  Al  Al4  1  0.11094470  0.09854642  0.91557792  1
  Al  Al5  1  0.76920015  0.09957887  0.40631564  1
  Al  Al6  1  0.88376531  0.20804087  0.15891619  1
  Al  Al7  1  0.43884053  0.09759141  0.90858271  1
  Al  Al8  1  0.55398906  0.20277673  0.64832630  1
  Al  Al9  1  0.11609369  0.41833348  0.40020162  1
  Al  Al10  1  0.77442708  0.42753525  0.90917955  1
  Al  Al11  1  0.45275324  0.42251494  0.40341694  1
  Al  Al12  1  0.55561040  0.53741115  0.15245313  1
  Al  Al13  1  0.11474635  0.42023098  0.91204651  1
  Al  Al14  1  0.77343133  0.42877563  0.39915747  1
  Al  Al15  1  0.44618516  0.42768756  0.90421733  1
  Al  Al16  1  0.55861817  0.53883445  0.65042725  1
  Al  Al17  1  0.22854552  0.87599390  0.15198092  1
  Al  Al18  1  0.76853708  0.76406633  0.90509801  1
  Al  Al19  1  0.88274094  0.87287145  0.66176174  1
  Al  Al20  1  0.44667277  0.76248790  0.39897615  1
  Al  Al21  1  0.54353153  0.87848588  0.15101718  1
  Al  Al22  1  0.11397510  0.76234795  0.91084259  1
  Al  Al23  1  0.44456956  0.76153369  0.90761247  1
  Al  Al24  1  0.55710786  0.87393105  0.65584401  1
  Sc  Sc25  1  0.76934407  0.10549382  0.89272216  1
  Sc  Sc26  1  0.88888167  0.20696841  0.63863941  1
  Sc  Sc27  1  0.23317531  0.19732217  0.65051937  1
  Sc  Sc28  1  0.23357327  0.53032259  0.14423672  1
  Sc  Sc29  1  0.88590418  0.53986833  0.65889983  1
  Sc  Sc30  1  0.22894592  0.53500019  0.65377666  1
  Sc  Sc31  1  0.88595011  0.53457682  0.14038338  1
  Sc  Sc32  1  0.10947132  0.76468627  0.39536082  1
  Sc  Sc33  1  0.22843719  0.86937157  0.65342594  1
  Sc  Sc34  1  0.76824068  0.76498096  0.40344464  1
  Sc  Sc35  1  0.88033384  0.88261271  0.14127735  1
  N  N36  1  0.22644350  0.20355836  0.34488375  1
  N  N37  1  0.10798826  0.09706573  0.10551231  1
  N  N38  1  0.90095623  0.21690185  0.84844213  1
  N  N39  1  0.76803286  0.08560082  0.60203384  1
  N  N40  1  0.55483044  0.20677175  0.34518192  1
  N  N41  1  0.44453080  0.09669572  0.09762756  1
  N  N42  1  0.22220896  0.20235588  0.86038387  1
  N  N43  1  0.11740609  0.08997770  0.57603354  1
  N  N44  1  0.88574472  0.20602421  0.35206849  1
  N  N45  1  0.76524676  0.11757794  0.09804100  1
  N  N46  1  0.52802246  0.21803990  0.83649977  1
  N  N47  1  0.46486326  0.08215419  0.58498289  1
  N  N48  1  0.23534892  0.51911344  0.35629421  1
  N  N49  1  0.12300448  0.40488391  0.09483593  1
  N  N50  1  0.88758391  0.53881494  0.87342383  1
  N  N51  1  0.76030313  0.43984646  0.58404937  1
  N  N52  1  0.55364851  0.54105746  0.34116123  1
  N  N53  1  0.46679585  0.41645790  0.08990044  1
  N  N54  1  0.22201242  0.53965303  0.86967232  1
  N  N55  1  0.11248418  0.42482293  0.58699391  1
  N  N56  1  0.89801414  0.52189555  0.35174399  1
  N  N57  1  0.76576407  0.41775861  0.09530666  1
  N  N58  1  0.55478916  0.54052441  0.84339328  1
  N  N59  1  0.46652643  0.41750440  0.59084487  1
  N  N60  1  0.23376692  0.87938931  0.34104128  1
  N  N61  1  0.12048249  0.77136207  0.09958061  1
  N  N62  1  0.89538401  0.85773891  0.85614946  1
  N  N63  1  0.76909119  0.77587487  0.61198823  1
  N  N64  1  0.53551339  0.88332939  0.33678383  1
  N  N65  1  0.44528431  0.75925333  0.09522741  1
  N  N66  1  0.22173448  0.87629028  0.86306556  1
  N  N67  1  0.09145550  0.77071883  0.60328394  1
  N  N68  1  0.87375014  0.89307171  0.34647879  1
  N  N69  1  0.75078467  0.77435982  0.09139168  1
  N  N70  1  0.54812439  0.87715458  0.84664046  1
  N  N71  1  0.46496360  0.75246920  0.58909870  1
