# generated using pymatgen
data_Sc11Al25N36
_symmetry_space_group_name_H-M   'P 1'
_cell_length_a   10.39104835
_cell_length_b   10.32265967
_cell_length_c   8.75172837
_cell_angle_alpha   90.07914118
_cell_angle_beta   89.92194055
_cell_angle_gamma   60.32062199
_symmetry_Int_Tables_number   1
_chemical_formula_structural   Sc11Al25N36
_chemical_formula_sum   'Sc11 Al25 N36'
_cell_volume   815.58248309
_cell_formula_units_Z   1
loop_
 _symmetry_equiv_pos_site_id
 _symmetry_equiv_pos_as_xyz
  1  'x, y, z'
loop_
 _atom_site_type_symbol
 _atom_site_label
 _atom_site_symmetry_multiplicity
 _atom_site_fract_x
 _atom_site_fract_y
 _atom_site_fract_z
 _atom_site_occupancy
  Al  Al0  1  0.11535984  0.09421828  0.34675200  1
  Al  Al1  1  0.22945221  0.19677156  0.10083844  1
  Al  Al2  1  0.44371352  0.09412915  0.33924348  1
  Al  Al3  1  0.55085842  0.21141278  0.09985780  1
  Al  Al4  1  0.11177576  0.09633307  0.87626732  1
  Al  Al5  1  0.76871754  0.10302478  0.34565709  1
  Al  Al6  1  0.88476935  0.20971689  0.10654203  1
  Al  Al7  1  0.44430743  0.09604467  0.85594071  1
  Al  Al8  1  0.55699850  0.20118659  0.58648329  1
  Al  Al9  1  0.11726589  0.41661065  0.33123243  1
  Al  Al10  1  0.77202945  0.42999371  0.84585075  1
  Al  Al11  1  0.45253141  0.42295403  0.34753830  1
  Al  Al12  1  0.55700729  0.53486104  0.09297428  1
  Al  Al13  1  0.11538128  0.41968610  0.85492673  1
  Al  Al14  1  0.77364708  0.42615965  0.34181421  1
  Al  Al15  1  0.45048845  0.42704443  0.83631695  1
  Al  Al16  1  0.55721540  0.54196587  0.58818641  1
  Al  Al17  1  0.22732036  0.87321720  0.10005123  1
  Al  Al18  1  0.77072740  0.76372777  0.85283618  1
  Al  Al19  1  0.87864955  0.87836704  0.60722808  1
  Al  Al20  1  0.44522803  0.76274310  0.33182594  1
  Al  Al21  1  0.54689297  0.87716937  0.09346885  1
  Al  Al22  1  0.11017651  0.76335277  0.85407419  1
  Al  Al23  1  0.45031183  0.75626753  0.85432970  1
  Al  Al24  1  0.55413902  0.87490153  0.61332560  1
  Sc  Sc25  1  0.76740180  0.10379285  0.85233959  1
  Sc  Sc26  1  0.88811651  0.20522447  0.59612136  1
  Sc  Sc27  1  0.23310140  0.19813806  0.60263791  1
  Sc  Sc28  1  0.23548652  0.53197758  0.09772703  1
  Sc  Sc29  1  0.88769088  0.53969238  0.60463978  1
  Sc  Sc30  1  0.22699800  0.53500318  0.60338049  1
  Sc  Sc31  1  0.88624337  0.53379443  0.09807014  1
  Sc  Sc32  1  0.10823820  0.76640095  0.35202275  1
  Sc  Sc33  1  0.23112446  0.87014815  0.60726904  1
  Sc  Sc34  1  0.76307720  0.76857366  0.35424162  1
  Sc  Sc35  1  0.88314255  0.87853682  0.09956136  1
  N  N36  1  0.22716573  0.20385993  0.34151790  1
  N  N37  1  0.11072403  0.09428016  0.10673315  1
  N  N38  1  0.89899426  0.21368413  0.86195753  1
  N  N39  1  0.76582298  0.09166493  0.60002628  1
  N  N40  1  0.55258929  0.20465157  0.35501402  1
  N  N41  1  0.44598898  0.09415344  0.10511583  1
  N  N42  1  0.22759169  0.19543658  0.86453073  1
  N  N43  1  0.11266194  0.09364152  0.58140182  1
  N  N44  1  0.88649009  0.20671540  0.34164463  1
  N  N45  1  0.76443478  0.11388466  0.10766509  1
  N  N46  1  0.53355064  0.21903117  0.86582014  1
  N  N47  1  0.46382888  0.08543279  0.61092460  1
  N  N48  1  0.23024414  0.52042607  0.35266897  1
  N  N49  1  0.12187042  0.40844543  0.09558431  1
  N  N50  1  0.88316897  0.54063760  0.85452370  1
  N  N51  1  0.76055129  0.43509294  0.60975120  1
  N  N52  1  0.55442667  0.54549633  0.35831232  1
  N  N53  1  0.46367835  0.42024602  0.12038367  1
  N  N54  1  0.23125692  0.53976773  0.85298608  1
  N  N55  1  0.11373065  0.42301742  0.62834580  1
  N  N56  1  0.90101372  0.52021553  0.35180826  1
  N  N57  1  0.76597795  0.42203206  0.11000719  1
  N  N58  1  0.55619615  0.53554140  0.86518463  1
  N  N59  1  0.46613286  0.41733289  0.60346394  1
  N  N60  1  0.23498649  0.87601176  0.34236985  1
  N  N61  1  0.11764107  0.76965752  0.09625919  1
  N  N62  1  0.89164201  0.86146177  0.84838399  1
  N  N63  1  0.76491115  0.77793483  0.61084001  1
  N  N64  1  0.53238245  0.88385084  0.35149352  1
  N  N65  1  0.44626139  0.75845914  0.09895943  1
  N  N66  1  0.22314552  0.87611897  0.86279272  1
  N  N67  1  0.09230047  0.77243544  0.60863258  1
  N  N68  1  0.87508330  0.89157633  0.35453966  1
  N  N69  1  0.75642464  0.76986577  0.09824993  1
  N  N70  1  0.55190063  0.87640885  0.85887683  1
  N  N71  1  0.46482939  0.75117667  0.62200253  1
