# generated using pymatgen
data_Sc11Al25N36
_symmetry_space_group_name_H-M   'P 1'
_cell_length_a   9.86732246
_cell_length_b   9.83867475
_cell_length_c   10.18649292
_cell_angle_alpha   90.04824622
_cell_angle_beta   89.78415436
_cell_angle_gamma   60.19339186
_symmetry_Int_Tables_number   1
_chemical_formula_structural   Sc11Al25N36
_chemical_formula_sum   'Sc11 Al25 N36'
_cell_volume   858.08255257
_cell_formula_units_Z   1
loop_
 _symmetry_equiv_pos_site_id
 _symmetry_equiv_pos_as_xyz
  1  'x, y, z'
loop_
 _atom_site_type_symbol
 _atom_site_label
 _atom_site_symmetry_multiplicity
 _atom_site_fract_x
 _atom_site_fract_y
 _atom_site_fract_z
 _atom_site_occupancy
  Al  Al0  1  0.11317447  0.09542702  0.28304000  1
  Al  Al1  1  0.22787670  0.19837219  0.04625790  1
  Al  Al2  1  0.44080013  0.09621144  0.29120979  1
  Al  Al3  1  0.55032707  0.21040043  0.04963818  1
  Al  Al4  1  0.11242233  0.09914153  0.80750958  1
  Al  Al5  1  0.76933301  0.10526531  0.28958571  1
  Al  Al6  1  0.88734609  0.21012268  0.05029649  1
  Al  Al7  1  0.44353086  0.09659377  0.80097328  1
  Al  Al8  1  0.56000550  0.20026913  0.54466814  1
  Al  Al9  1  0.11652828  0.41544927  0.28902650  1
  Al  Al10  1  0.77300628  0.43000479  0.79816356  1
  Al  Al11  1  0.45105258  0.42224811  0.29757812  1
  Al  Al12  1  0.55563820  0.53770469  0.04925513  1
  Al  Al13  1  0.11449068  0.42273988  0.79776553  1
  Al  Al14  1  0.77579065  0.42413709  0.29126728  1
  Al  Al15  1  0.44915023  0.42716142  0.79418738  1
  Al  Al16  1  0.55972798  0.53699434  0.54728773  1
  Al  Al17  1  0.22747098  0.87316482  0.04046859  1
  Al  Al18  1  0.77335664  0.76494226  0.78888503  1
  Al  Al19  1  0.87670678  0.88303718  0.54446607  1
  Al  Al20  1  0.44095392  0.76740103  0.29438877  1
  Al  Al21  1  0.54859345  0.87592874  0.04404301  1
  Al  Al22  1  0.10730367  0.76143054  0.79142542  1
  Al  Al23  1  0.45227477  0.75650367  0.80079141  1
  Al  Al24  1  0.55322702  0.87668880  0.55205353  1
  Sc  Sc25  1  0.77224762  0.09955274  0.80592427  1
  Sc  Sc26  1  0.88762101  0.20245643  0.54305341  1
  Sc  Sc27  1  0.23346811  0.19516536  0.54441503  1
  Sc  Sc28  1  0.23347011  0.53307356  0.04518314  1
  Sc  Sc29  1  0.88728819  0.53620586  0.55975511  1
  Sc  Sc30  1  0.23054023  0.53190103  0.55772360  1
  Sc  Sc31  1  0.88458339  0.53646829  0.04533889  1
  Sc  Sc32  1  0.11499037  0.76298990  0.30592758  1
  Sc  Sc33  1  0.23065210  0.87128920  0.56056117  1
  Sc  Sc34  1  0.76597603  0.76349460  0.31090067  1
  Sc  Sc35  1  0.88646854  0.87368046  0.05338965  1
  N  N36  1  0.22271647  0.20184347  0.33490472  1
  N  N37  1  0.11305365  0.09190476  0.09393878  1
  N  N38  1  0.89653031  0.21825692  0.86162135  1
  N  N39  1  0.76722891  0.09014174  0.60037810  1
  N  N40  1  0.55375446  0.20492641  0.35252177  1
  N  N41  1  0.44571007  0.09290154  0.10217196  1
  N  N42  1  0.22607752  0.20411456  0.85658060  1
  N  N43  1  0.10931017  0.09793134  0.62334859  1
  N  N44  1  0.89014181  0.20435244  0.33242122  1
  N  N45  1  0.76593563  0.11305554  0.09778884  1
  N  N46  1  0.53223178  0.21979741  0.86338408  1
  N  N47  1  0.46353946  0.08717172  0.61396864  1
  N  N48  1  0.23303131  0.51622595  0.34413113  1
  N  N49  1  0.12024183  0.40965415  0.10120260  1
  N  N50  1  0.88574242  0.54236737  0.83102054  1
  N  N51  1  0.76090452  0.42894592  0.61374432  1
  N  N52  1  0.55433943  0.54279167  0.35526450  1
  N  N53  1  0.46332486  0.41990578  0.11143588  1
  N  N54  1  0.22534199  0.54008803  0.83037773  1
  N  N55  1  0.11735697  0.41740314  0.61514755  1
  N  N56  1  0.90017315  0.51581517  0.34463854  1
  N  N57  1  0.76580416  0.42281682  0.10561483  1
  N  N58  1  0.55474366  0.53872620  0.85972616  1
  N  N59  1  0.47004911  0.41373747  0.60690942  1
  N  N60  1  0.22949669  0.88690953  0.35099406  1
  N  N61  1  0.12333328  0.76873158  0.09982457  1
  N  N62  1  0.89512620  0.85517673  0.84638578  1
  N  N63  1  0.76676777  0.77968146  0.59604945  1
  N  N64  1  0.52841547  0.88859682  0.36364731  1
  N  N65  1  0.44380006  0.76234470  0.10170845  1
  N  N66  1  0.22518106  0.86973463  0.84694268  1
  N  N67  1  0.08864387  0.77313341  0.59947056  1
  N  N68  1  0.87515159  0.89569779  0.35232300  1
  N  N69  1  0.75444694  0.76976784  0.10571801  1
  N  N70  1  0.55535719  0.87400115  0.85436433  1
  N  N71  1  0.46960223  0.74773128  0.61392528  1
