# generated using pymatgen
data_Sc11Al25N36
_symmetry_space_group_name_H-M   'P 1'
_cell_length_a   9.87263609
_cell_length_b   9.84383588
_cell_length_c   10.17124543
_cell_angle_alpha   90.04957766
_cell_angle_beta   89.79074696
_cell_angle_gamma   60.20356942
_symmetry_Int_Tables_number   1
_chemical_formula_structural   Sc11Al25N36
_chemical_formula_sum   'Sc11 Al25 N36'
_cell_volume   857.79697440
_cell_formula_units_Z   1
loop_
 _symmetry_equiv_pos_site_id
 _symmetry_equiv_pos_as_xyz
  1  'x, y, z'
loop_
 _atom_site_type_symbol
 _atom_site_label
 _atom_site_symmetry_multiplicity
 _atom_site_fract_x
 _atom_site_fract_y
 _atom_site_fract_z
 _atom_site_occupancy
  Al  Al0  1  0.11302175  0.09557459  0.31017941  1
  Al  Al1  1  0.22775384  0.19845479  0.07322709  1
  Al  Al2  1  0.44061535  0.09640149  0.31823364  1
  Al  Al3  1  0.54997113  0.21065410  0.07657352  1
  Al  Al4  1  0.11214510  0.09936660  0.83452393  1
  Al  Al5  1  0.76903334  0.10564482  0.31638364  1
  Al  Al6  1  0.88720953  0.21035465  0.07724446  1
  Al  Al7  1  0.44338432  0.09669198  0.82792648  1
  Al  Al8  1  0.55984164  0.20041068  0.57174521  1
  Al  Al9  1  0.11642977  0.41553443  0.31598965  1
  Al  Al10  1  0.77277306  0.43020580  0.82517244  1
  Al  Al11  1  0.45095023  0.42243525  0.32460508  1
  Al  Al12  1  0.55547261  0.53788281  0.07625444  1
  Al  Al13  1  0.11437185  0.42289135  0.82503471  1
  Al  Al14  1  0.77564249  0.42429964  0.31831586  1
  Al  Al15  1  0.44899335  0.42731496  0.82121344  1
  Al  Al16  1  0.55950378  0.53726574  0.57419092  1
  Al  Al17  1  0.22723376  0.87333805  0.06742082  1
  Al  Al18  1  0.77319292  0.76505440  0.81592012  1
  Al  Al19  1  0.87631150  0.88337163  0.57138688  1
  Al  Al20  1  0.44064984  0.76769023  0.32138267  1
  Al  Al21  1  0.54838991  0.87610327  0.07110223  1
  Al  Al22  1  0.10698556  0.76147085  0.81846569  1
  Al  Al23  1  0.45220098  0.75657305  0.82783110  1
  Al  Al24  1  0.55290080  0.87689662  0.57900125  1
  Sc  Sc25  1  0.77208765  0.09948140  0.83356202  1
  Sc  Sc26  1  0.88718008  0.20265421  0.57034671  1
  Sc  Sc27  1  0.23319131  0.19539404  0.57162088  1
  Sc  Sc28  1  0.23323698  0.53342522  0.07264954  1
  Sc  Sc29  1  0.88724578  0.53627566  0.58689725  1
  Sc  Sc30  1  0.23042154  0.53198378  0.58478898  1
  Sc  Sc31  1  0.88437393  0.53672678  0.07265839  1
  Sc  Sc32  1  0.11479448  0.76330712  0.33349270  1
  Sc  Sc33  1  0.23038315  0.87152317  0.58808741  1
  Sc  Sc34  1  0.76568817  0.76365232  0.33830323  1
  Sc  Sc35  1  0.88632969  0.87369726  0.08103245  1
  N  N36  1  0.22257679  0.20202839  0.36184609  1
  N  N37  1  0.11288194  0.09204619  0.12077188  1
  N  N38  1  0.89632507  0.21845719  0.88832209  1
  N  N39  1  0.76691823  0.09021380  0.62764971  1
  N  N40  1  0.55362883  0.20513747  0.37934669  1
  N  N41  1  0.44550672  0.09307542  0.12899724  1
  N  N42  1  0.22597062  0.20413965  0.88332697  1
  N  N43  1  0.10891213  0.09824377  0.65014656  1
  N  N44  1  0.88991222  0.20454568  0.35935532  1
  N  N45  1  0.76568539  0.11330590  0.12422599  1
  N  N46  1  0.53193159  0.21998838  0.89012993  1
  N  N47  1  0.46335853  0.08728920  0.64072856  1
  N  N48  1  0.23292342  0.51637814  0.37080859  1
  N  N49  1  0.12013909  0.40971155  0.12787156  1
  N  N50  1  0.88553836  0.54252238  0.85794821  1
  N  N51  1  0.76062928  0.42927542  0.64048876  1
  N  N52  1  0.55417000  0.54305518  0.38202094  1
  N  N53  1  0.46323904  0.42003927  0.13823723  1
  N  N54  1  0.22523729  0.54026175  0.85741638  1
  N  N55  1  0.11722752  0.41762772  0.64211832  1
  N  N56  1  0.90012327  0.51591226  0.37137526  1
  N  N57  1  0.76561671  0.42295440  0.13240758  1
  N  N58  1  0.55459248  0.53886755  0.88655520  1
  N  N59  1  0.46989533  0.41392578  0.63367569  1
  N  N60  1  0.22937219  0.88717780  0.37819054  1
  N  N61  1  0.12318394  0.76904374  0.12705873  1
  N  N62  1  0.89504425  0.85503283  0.87360878  1
  N  N63  1  0.76652039  0.77981708  0.62262262  1
  N  N64  1  0.52812199  0.88884735  0.39041555  1
  N  N65  1  0.44351533  0.76255666  0.12848292  1
  N  N66  1  0.22494307  0.86984179  0.87356462  1
  N  N67  1  0.08828258  0.77323559  0.62603632  1
  N  N68  1  0.87477784  0.89609830  0.37884300  1
  N  N69  1  0.75408701  0.76994405  0.13283842  1
  N  N70  1  0.55523538  0.87413009  0.88119340  1
  N  N71  1  0.46943111  0.74789339  0.64075858  1
