# generated using pymatgen
data_Sc11Al25N36
_symmetry_space_group_name_H-M   'P 1'
_cell_length_a   9.86565009
_cell_length_b   9.83623811
_cell_length_c   10.19860379
_cell_angle_alpha   89.94537889
_cell_angle_beta   90.08667636
_cell_angle_gamma   60.17076492
_symmetry_Int_Tables_number   1
_chemical_formula_structural   Sc11Al25N36
_chemical_formula_sum   'Sc11 Al25 N36'
_cell_volume   858.55771670
_cell_formula_units_Z   1
loop_
 _symmetry_equiv_pos_site_id
 _symmetry_equiv_pos_as_xyz
  1  'x, y, z'
loop_
 _atom_site_type_symbol
 _atom_site_label
 _atom_site_symmetry_multiplicity
 _atom_site_fract_x
 _atom_site_fract_y
 _atom_site_fract_z
 _atom_site_occupancy
  Al  Al0  1  0.11551167  0.09527364  0.38266372  1
  Al  Al1  1  0.22735108  0.19865892  0.14613133  1
  Al  Al2  1  0.44482040  0.09447944  0.38846991  1
  Al  Al3  1  0.55614274  0.20783270  0.14628505  1
  Al  Al4  1  0.11101493  0.09848587  0.90616095  1
  Al  Al5  1  0.76927042  0.09951783  0.39689750  1
  Al  Al6  1  0.88383588  0.20797998  0.14950036  1
  Al  Al7  1  0.43891126  0.09753063  0.89916534  1
  Al  Al8  1  0.55405971  0.20271568  0.63890894  1
  Al  Al9  1  0.11616328  0.41827271  0.39078374  1
  Al  Al10  1  0.77449719  0.42747404  0.89976390  1
  Al  Al11  1  0.45282386  0.42245410  0.39400416  1
  Al  Al12  1  0.55568077  0.53735041  0.14303912  1
  Al  Al13  1  0.11481812  0.42017053  0.90263437  1
  Al  Al14  1  0.77350238  0.42871528  0.38973932  1
  Al  Al15  1  0.44625512  0.42762702  0.89480390  1
  Al  Al16  1  0.55868955  0.53877337  0.64101092  1
  Al  Al17  1  0.22861607  0.87593270  0.14256624  1
  Al  Al18  1  0.76860705  0.76400658  0.89568224  1
  Al  Al19  1  0.88281127  0.87281086  0.65234748  1
  Al  Al20  1  0.44674308  0.76242740  0.38955879  1
  Al  Al21  1  0.54360228  0.87842495  0.14159969  1
  Al  Al22  1  0.11404591  0.76228667  0.90143023  1
  Al  Al23  1  0.44464047  0.76147250  0.89819550  1
  Al  Al24  1  0.55717786  0.87387025  0.64642656  1
  Sc  Sc25  1  0.76941453  0.10543351  0.88330493  1
  Sc  Sc26  1  0.88895280  0.20690705  0.62922098  1
  Sc  Sc27  1  0.23324488  0.19726197  0.64110335  1
  Sc  Sc28  1  0.23364410  0.53026240  0.13482674  1
  Sc  Sc29  1  0.88597549  0.53980612  0.64948724  1
  Sc  Sc30  1  0.22901593  0.53493854  0.64436238  1
  Sc  Sc31  1  0.88601981  0.53451708  0.13096455  1
  Sc  Sc32  1  0.10954076  0.76462674  0.38594965  1
  Sc  Sc33  1  0.22850788  0.86931129  0.64401253  1
  Sc  Sc34  1  0.76831160  0.76491913  0.39403111  1
  Sc  Sc35  1  0.88040411  0.88255199  0.13186164  1
  N  N36  1  0.22651435  0.20349738  0.33546575  1
  N  N37  1  0.10805852  0.09700492  0.09609575  1
  N  N38  1  0.90102692  0.21684147  0.83902403  1
  N  N39  1  0.76810358  0.08553942  0.59261640  1
  N  N40  1  0.55490049  0.20671157  0.33576506  1
  N  N41  1  0.44460151  0.09663489  0.08821033  1
  N  N42  1  0.22227885  0.20229618  0.85096835  1
  N  N43  1  0.11747776  0.08991561  0.56661534  1
  N  N44  1  0.88581537  0.20596314  0.34265169  1
  N  N45  1  0.76531720  0.11751746  0.08862398  1
  N  N46  1  0.52809280  0.21797958  0.82708302  1
  N  N47  1  0.46493314  0.08209361  0.57556581  1
  N  N48  1  0.23541906  0.51905396  0.34688209  1
  N  N49  1  0.12307609  0.40482384  0.08542273  1
  N  N50  1  0.88765495  0.53875391  0.86401125  1
  N  N51  1  0.76037459  0.43978600  0.57463178  1
  N  N52  1  0.55371870  0.54099661  0.33174634  1
  N  N53  1  0.46686560  0.41639779  0.08048612  1
  N  N54  1  0.22208278  0.53959248  0.86025769  1
  N  N55  1  0.11255348  0.42476260  0.57757667  1
  N  N56  1  0.89808426  0.52183535  0.34232497  1
  N  N57  1  0.76583400  0.41769748  0.08589090  1
  N  N58  1  0.55485983  0.54046340  0.83397744  1
  N  N59  1  0.46659687  0.41744381  0.58143049  1
  N  N60  1  0.23383722  0.87932790  0.33162533  1
  N  N61  1  0.12055301  0.77130083  0.09016653  1
  N  N62  1  0.89545477  0.85767841  0.84673435  1
  N  N63  1  0.76916258  0.77581282  0.60257460  1
  N  N64  1  0.53558486  0.88326802  0.32736667  1
  N  N65  1  0.44535491  0.75919216  0.08581098  1
  N  N66  1  0.22180474  0.87622946  0.85365113  1
  N  N67  1  0.09152612  0.77065830  0.59387151  1
  N  N68  1  0.87382067  0.89300987  0.33706313  1
  N  N69  1  0.75085471  0.77430031  0.08197450  1
  N  N70  1  0.54819440  0.87709398  0.83722336  1
  N  N71  1  0.46503351  0.75240849  0.57968210  1
