# generated using pymatgen
data_Sc11Al25N36
_symmetry_space_group_name_H-M   'P 1'
_cell_length_a   10.14640512
_cell_length_b   10.09637215
_cell_length_c   9.41522582
_cell_angle_alpha   90.02959284
_cell_angle_beta   89.84096543
_cell_angle_gamma   60.33928025
_symmetry_Int_Tables_number   1
_chemical_formula_structural   Sc11Al25N36
_chemical_formula_sum   'Sc11 Al25 N36'
_cell_volume   838.12899165
_cell_formula_units_Z   1
loop_
 _symmetry_equiv_pos_site_id
 _symmetry_equiv_pos_as_xyz
  1  'x, y, z'
loop_
 _atom_site_type_symbol
 _atom_site_label
 _atom_site_symmetry_multiplicity
 _atom_site_fract_x
 _atom_site_fract_y
 _atom_site_fract_z
 _atom_site_occupancy
  Al  Al0  1  0.11442743  0.09485256  0.32684643  1
  Al  Al1  1  0.23067287  0.19421250  0.07978369  1
  Al  Al2  1  0.44150667  0.09464925  0.32396840  1
  Al  Al3  1  0.54743952  0.21278692  0.08308212  1
  Al  Al4  1  0.11166361  0.09761598  0.84545519  1
  Al  Al5  1  0.76729180  0.10766592  0.32004353  1
  Al  Al6  1  0.88794441  0.21017716  0.08593327  1
  Al  Al7  1  0.44657264  0.09523816  0.83385146  1
  Al  Al8  1  0.56045712  0.19935481  0.57560709  1
  Al  Al9  1  0.11862450  0.41357062  0.31711600  1
  Al  Al10  1  0.77096380  0.43209164  0.83294577  1
  Al  Al11  1  0.45268012  0.42221001  0.33450760  1
  Al  Al12  1  0.55614506  0.53627752  0.08136527  1
  Al  Al13  1  0.11491580  0.42288182  0.84476976  1
  Al  Al14  1  0.77507840  0.42439419  0.32446632  1
  Al  Al15  1  0.45079146  0.42690607  0.82468081  1
  Al  Al16  1  0.55824207  0.54103749  0.57681858  1
  Al  Al17  1  0.22677265  0.87341968  0.07897682  1
  Al  Al18  1  0.77344377  0.76444388  0.82415834  1
  Al  Al19  1  0.87482649  0.88485760  0.57864146  1
  Al  Al20  1  0.44208984  0.76692513  0.32309399  1
  Al  Al21  1  0.54920617  0.87597159  0.07492151  1
  Al  Al22  1  0.10631600  0.76153604  0.83274688  1
  Al  Al23  1  0.45364071  0.75475097  0.83712200  1
  Al  Al24  1  0.55041676  0.87735837  0.58608843  1
  Sc  Sc25  1  0.77020164  0.09797796  0.85067536  1
  Sc  Sc26  1  0.88241652  0.20552242  0.58674619  1
  Sc  Sc27  1  0.23327922  0.19984316  0.58977741  1
  Sc  Sc28  1  0.23585904  0.53407829  0.08998256  1
  Sc  Sc29  1  0.88970663  0.53541024  0.59659097  1
  Sc  Sc30  1  0.22873380  0.53288462  0.59657105  1
  Sc  Sc31  1  0.88378554  0.53789188  0.08965821  1
  Sc  Sc32  1  0.11269042  0.76513817  0.34808420  1
  Sc  Sc33  1  0.23102369  0.87049484  0.60120807  1
  Sc  Sc34  1  0.76255392  0.76556130  0.35161949  1
  Sc  Sc35  1  0.88525330  0.87265336  0.09830116  1
  N  N36  1  0.22487647  0.20291730  0.35771831  1
  N  N37  1  0.11272776  0.09239612  0.11370263  1
  N  N38  1  0.89661290  0.21695178  0.87497761  1
  N  N39  1  0.76460079  0.08963295  0.62464236  1
  N  N40  1  0.55426402  0.20393830  0.37013474  1
  N  N41  1  0.44619449  0.09180852  0.12122464  1
  N  N42  1  0.22936306  0.19779377  0.87206707  1
  N  N43  1  0.10873440  0.09752800  0.62711019  1
  N  N44  1  0.88802614  0.20528410  0.35355622  1
  N  N45  1  0.76456685  0.11390354  0.11074423  1
  N  N46  1  0.53022474  0.22142328  0.88275800  1
  N  N47  1  0.46604195  0.08629301  0.63265302  1
  N  N48  1  0.23274745  0.51662522  0.35865605  1
  N  N49  1  0.12301931  0.40674997  0.10813265  1
  N  N50  1  0.88276314  0.54386448  0.85724048  1
  N  N51  1  0.75845581  0.43530991  0.63098939  1
  N  N52  1  0.55527874  0.54507122  0.37264616  1
  N  N53  1  0.46601821  0.41938411  0.13372190  1
  N  N54  1  0.22914912  0.54133191  0.85551872  1
  N  N55  1  0.11470233  0.42275451  0.64303379  1
  N  N56  1  0.90251195  0.51582738  0.35709214  1
  N  N57  1  0.76536973  0.42200443  0.12249330  1
  N  N58  1  0.55463253  0.53740008  0.87958555  1
  N  N59  1  0.46931652  0.41499960  0.62043418  1
  N  N60  1  0.23296675  0.88228808  0.36744801  1
  N  N61  1  0.12140201  0.76985883  0.11906073  1
  N  N62  1  0.89482056  0.85386006  0.86965341  1
  N  N63  1  0.76594246  0.77868926  0.61137834  1
  N  N64  1  0.52700516  0.88818329  0.38257853  1
  N  N65  1  0.44448164  0.76188500  0.11675632  1
  N  N66  1  0.22411727  0.87075138  0.86535558  1
  N  N67  1  0.08739915  0.77318527  0.61237056  1
  N  N68  1  0.87271620  0.89717413  0.36275969  1
  N  N69  1  0.75164356  0.77062086  0.12785270  1
  N  N70  1  0.55654138  0.87385351  0.87249509  1
  N  N71  1  0.46831737  0.74860244  0.63559744  1
