# generated using pymatgen
data_Sc11Al25N36
_symmetry_space_group_name_H-M   'P 1'
_cell_length_a   9.86748369
_cell_length_b   9.83888953
_cell_length_c   10.18585470
_cell_angle_alpha   90.04876479
_cell_angle_beta   89.78478692
_cell_angle_gamma   60.19317845
_symmetry_Int_Tables_number   1
_chemical_formula_structural   Sc11Al25N36
_chemical_formula_sum   'Sc11 Al25 N36'
_cell_volume   858.05973713
_cell_formula_units_Z   1
loop_
 _symmetry_equiv_pos_site_id
 _symmetry_equiv_pos_as_xyz
  1  'x, y, z'
loop_
 _atom_site_type_symbol
 _atom_site_label
 _atom_site_symmetry_multiplicity
 _atom_site_fract_x
 _atom_site_fract_y
 _atom_site_fract_z
 _atom_site_occupancy
  Al  Al0  1  0.11304712  0.09555636  0.30102494  1
  Al  Al1  1  0.22775232  0.19847565  0.06421969  1
  Al  Al2  1  0.44066760  0.09633997  0.30918010  1
  Al  Al3  1  0.55017489  0.21051911  0.06759179  1
  Al  Al4  1  0.11227541  0.09926596  0.82548189  1
  Al  Al5  1  0.76918209  0.10541201  0.30752503  1
  Al  Al6  1  0.88722428  0.21024345  0.06826631  1
  Al  Al7  1  0.44340511  0.09668464  0.81893322  1
  Al  Al8  1  0.55986856  0.20038403  0.56265069  1
  Al  Al9  1  0.11639681  0.41556009  0.30698536  1
  Al  Al10  1  0.77287454  0.43011531  0.81612595  1
  Al  Al11  1  0.45093693  0.42237331  0.31553235  1
  Al  Al12  1  0.55550911  0.53782576  0.06721772  1
  Al  Al13  1  0.11438688  0.42285340  0.81576959  1
  Al  Al14  1  0.77566742  0.42425952  0.30923740  1
  Al  Al15  1  0.44900231  0.42727952  0.81217071  1
  Al  Al16  1  0.55958807  0.53712521  0.56524873  1
  Al  Al17  1  0.22732602  0.87329297  0.05842542  1
  Al  Al18  1  0.77322574  0.76504095  0.80685725  1
  Al  Al19  1  0.87654658  0.88316203  0.56242750  1
  Al  Al20  1  0.44080148  0.76753924  0.31236053  1
  Al  Al21  1  0.54845350  0.87604123  0.06202427  1
  Al  Al22  1  0.10716115  0.76150703  0.80940487  1
  Al  Al23  1  0.45215009  0.75660896  0.81876406  1
  Al  Al24  1  0.55307827  0.87680168  0.57000766  1
  Sc  Sc25  1  0.77213429  0.09962865  0.82395930  1
  Sc  Sc26  1  0.88744891  0.20257475  0.56102914  1
  Sc  Sc27  1  0.23331800  0.19528511  0.56240289  1
  Sc  Sc28  1  0.23331269  0.53322523  0.06324233  1
  Sc  Sc29  1  0.88718926  0.53629767  0.57774041  1
  Sc  Sc30  1  0.23041911  0.53200561  0.57563273  1
  Sc  Sc31  1  0.88444953  0.53658860  0.06331221  1
  Sc  Sc32  1  0.11483943  0.76316041  0.32395276  1
  Sc  Sc33  1  0.23049217  0.87142099  0.57860501  1
  Sc  Sc34  1  0.76584607  0.76359534  0.32890830  1
  Sc  Sc35  1  0.88633043  0.87377596  0.07142499  1
  N  N36  1  0.22259309  0.20196822  0.35288842  1
  N  N37  1  0.11292596  0.09202099  0.11190642  1
  N  N38  1  0.89638921  0.21837800  0.87958056  1
  N  N39  1  0.76707828  0.09024481  0.61839785  1
  N  N40  1  0.55362327  0.20506147  0.37048926  1
  N  N41  1  0.44557888  0.09301892  0.12013357  1
  N  N42  1  0.22595567  0.20421167  0.87453071  1
  N  N43  1  0.10912459  0.09808366  0.64130981  1
  N  N44  1  0.89000230  0.20447376  0.35038241  1
  N  N45  1  0.76579299  0.11318265  0.11571022  1
  N  N46  1  0.53209581  0.21990212  0.88132396  1
  N  N47  1  0.46340822  0.08727586  0.63191934  1
  N  N48  1  0.23289917  0.51636512  0.36203105  1
  N  N49  1  0.12010677  0.40975834  0.11915369  1
  N  N50  1  0.88561819  0.54246828  0.84897620  1
  N  N51  1  0.76076278  0.42907423  0.63169558  1
  N  N52  1  0.55420571  0.54292375  0.37321998  1
  N  N53  1  0.46321370  0.42001286  0.12938145  1
  N  N54  1  0.22521805  0.54019791  0.84841434  1
  N  N55  1  0.11726280  0.41753045  0.63312970  1
  N  N56  1  0.90005966  0.51591534  0.36261387  1
  N  N57  1  0.76567043  0.42293418  0.12357281  1
  N  N58  1  0.55461812  0.53883234  0.87767953  1
  N  N59  1  0.46990734  0.41386424  0.62487267  1
  N  N60  1  0.22936718  0.88705821  0.36902603  1
  N  N61  1  0.12318638  0.76889413  0.11784798  1
  N  N62  1  0.89500420  0.85524196  0.86439570  1
  N  N63  1  0.76663016  0.77978507  0.61399022  1
  N  N64  1  0.52827621  0.88872276  0.38160123  1
  N  N65  1  0.44364764  0.76246494  0.11966726  1
  N  N66  1  0.22503323  0.86984007  0.86487602  1
  N  N67  1  0.08848995  0.77322229  0.61741620  1
  N  N68  1  0.87498222  0.89585299  0.37027113  1
  N  N69  1  0.75429977  0.76986974  0.12371946  1
  N  N70  1  0.55523636  0.87410006  0.87232768  1
  N  N71  1  0.46946538  0.74784922  0.63188423  1
