# generated using pymatgen
data_Sc11Al25N36
_symmetry_space_group_name_H-M   'P 1'
_cell_length_a   10.09613297
_cell_length_b   10.05167012
_cell_length_c   9.55227716
_cell_angle_alpha   90.02428012
_cell_angle_beta   89.83881677
_cell_angle_gamma   60.33595791
_symmetry_Int_Tables_number   1
_chemical_formula_structural   Sc11Al25N36
_chemical_formula_sum   'Sc11 Al25 N36'
_cell_volume   842.34202591
_cell_formula_units_Z   1
loop_
 _symmetry_equiv_pos_site_id
 _symmetry_equiv_pos_as_xyz
  1  'x, y, z'
loop_
 _atom_site_type_symbol
 _atom_site_label
 _atom_site_symmetry_multiplicity
 _atom_site_fract_x
 _atom_site_fract_y
 _atom_site_fract_z
 _atom_site_occupancy
  Al  Al0  1  0.11448648  0.09456488  0.31963519  1
  Al  Al1  1  0.23020454  0.19464014  0.07631161  1
  Al  Al2  1  0.44081858  0.09517350  0.32289299  1
  Al  Al3  1  0.54737505  0.21251491  0.08135155  1
  Al  Al4  1  0.11132813  0.09866053  0.83867311  1
  Al  Al5  1  0.76766594  0.10809846  0.31817723  1
  Al  Al6  1  0.88823219  0.21045646  0.08176341  1
  Al  Al7  1  0.44618955  0.09539659  0.83200053  1
  Al  Al8  1  0.56067195  0.19954392  0.57487340  1
  Al  Al9  1  0.11866729  0.41310140  0.31681092  1
  Al  Al10  1  0.77114381  0.43197524  0.83116069  1
  Al  Al11  1  0.45260674  0.42217213  0.33192962  1
  Al  Al12  1  0.55602568  0.53675556  0.08034102  1
  Al  Al13  1  0.11482015  0.42323858  0.84075354  1
  Al  Al14  1  0.77558604  0.42376941  0.32325549  1
  Al  Al15  1  0.45052245  0.42698404  0.82418786  1
  Al  Al16  1  0.55852447  0.54030534  0.57577483  1
  Al  Al17  1  0.22654732  0.87331094  0.07321609  1
  Al  Al18  1  0.77362427  0.76456708  0.82227548  1
  Al  Al19  1  0.87438194  0.88545836  0.57562160  1
  Al  Al20  1  0.44073218  0.76790157  0.32275296  1
  Al  Al21  1  0.54889769  0.87604460  0.07444710  1
  Al  Al22  1  0.10567138  0.76117310  0.82780064  1
  Al  Al23  1  0.45406132  0.75466423  0.83470805  1
  Al  Al24  1  0.55058401  0.87747262  0.58392121  1
  Sc  Sc25  1  0.77072375  0.09750308  0.84919522  1
  Sc  Sc26  1  0.88340682  0.20463462  0.58419433  1
  Sc  Sc27  1  0.23278420  0.19883598  0.58647909  1
  Sc  Sc28  1  0.23492625  0.53467221  0.08786635  1
  Sc  Sc29  1  0.88946611  0.53539272  0.59484768  1
  Sc  Sc30  1  0.22957617  0.53213641  0.59421644  1
  Sc  Sc31  1  0.88392462  0.53782311  0.08770043  1
  Sc  Sc32  1  0.11363363  0.76522221  0.34698877  1
  Sc  Sc33  1  0.23094166  0.87108142  0.59991937  1
  Sc  Sc34  1  0.76286284  0.76502894  0.35006416  1
  Sc  Sc35  1  0.88598319  0.87231109  0.09709720  1
  N  N36  1  0.22396256  0.20238630  0.36040004  1
  N  N37  1  0.11306391  0.09191871  0.11579561  1
  N  N38  1  0.89634643  0.21763096  0.87767809  1
  N  N39  1  0.76497884  0.08943569  0.62693461  1
  N  N40  1  0.55451032  0.20423127  0.37213760  1
  N  N41  1  0.44556562  0.09224159  0.12313722  1
  N  N42  1  0.22894676  0.19903685  0.87392738  1
  N  N43  1  0.10836495  0.09789606  0.63882407  1
  N  N44  1  0.88905508  0.20470721  0.35645880  1
  N  N45  1  0.76489845  0.11404053  0.11203265  1
  N  N46  1  0.53021480  0.22116476  0.88417898  1
  N  N47  1  0.46561162  0.08642134  0.63405470  1
  N  N48  1  0.23315395  0.51626474  0.36068860  1
  N  N49  1  0.12299253  0.40645786  0.11251539  1
  N  N50  1  0.88333778  0.54365786  0.85770042  1
  N  N51  1  0.75876922  0.43429689  0.63292707  1
  N  N52  1  0.55496997  0.54476132  0.37444795  1
  N  N53  1  0.46569843  0.41937474  0.13431988  1
  N  N54  1  0.22822478  0.54129028  0.85609721  1
  N  N55  1  0.11528129  0.42180118  0.64299674  1
  N  N56  1  0.90230392  0.51560525  0.35932628  1
  N  N57  1  0.76551869  0.42168518  0.12481324  1
  N  N58  1  0.55476791  0.53778363  0.88128491  1
  N  N59  1  0.46976732  0.41470618  0.62359461  1
  N  N60  1  0.23202211  0.88467275  0.37320512  1
  N  N61  1  0.12236541  0.77032835  0.12328061  1
  N  N62  1  0.89537576  0.85304813  0.87227289  1
  N  N63  1  0.76601637  0.77900321  0.61243049  1
  N  N64  1  0.52677567  0.88857930  0.38399470  1
  N  N65  1  0.44342559  0.76249924  0.11946743  1
  N  N66  1  0.22441788  0.86974722  0.86601039  1
  N  N67  1  0.08705685  0.77317762  0.61416481  1
  N  N68  1  0.87277430  0.89759930  0.36471615  1
  N  N69  1  0.75151434  0.77064508  0.13015115  1
  N  N70  1  0.55652764  0.87384173  0.87457424  1
  N  N71  1  0.46900982  0.74826403  0.63659995  1
