# generated using pymatgen
data_LiAlSe2
_symmetry_space_group_name_H-M   'P 1'
_cell_length_a   6.61446200
_cell_length_b   6.93213867
_cell_length_c   8.56596082
_cell_angle_alpha   89.97139938
_cell_angle_beta   90.07710070
_cell_angle_gamma   90.14131585
_symmetry_Int_Tables_number   1
_chemical_formula_structural   LiAlSe2
_chemical_formula_sum   'Li4 Al4 Se8'
_cell_volume   392.76798795
_cell_formula_units_Z   4
loop_
 _symmetry_equiv_pos_site_id
 _symmetry_equiv_pos_as_xyz
  1  'x, y, z'
loop_
 _atom_site_type_symbol
 _atom_site_label
 _atom_site_symmetry_multiplicity
 _atom_site_fract_x
 _atom_site_fract_y
 _atom_site_fract_z
 _atom_site_occupancy
  Al  Al0  1  0.84359588  0.92904803  0.13961078  1
  Al  Al1  1  0.34176291  0.06166779  0.88670540  1
  Al  Al2  1  0.00328892  0.42714229  0.38588748  1
  Al  Al3  1  0.50522728  0.56146810  0.63901334  1
  Se  Se4  1  0.97542942  0.05341578  0.89956632  1
  Se  Se5  1  0.47668225  0.93511880  0.12501672  1
  Se  Se6  1  0.89784216  0.58131669  0.14869135  1
  Se  Se7  1  0.95458195  0.07981582  0.37682733  1
  Se  Se8  1  0.39644438  0.40881379  0.87570693  1
  Se  Se9  1  0.44814217  0.90794630  0.65030710  1
  Se  Se10  1  0.87117019  0.55266074  0.62552150  1
  Se  Se11  1  0.37027060  0.44367093  0.39817120  1
  Li  Li12  1  0.00491115  0.42510445  0.88876850  1
  Li  Li13  1  0.84042280  0.92424061  0.63700870  1
  Li  Li14  1  0.50781539  0.56433419  0.13465703  1
  Li  Li15  1  0.37796640  0.07683722  0.38961203  1
