# generated using pymatgen
data_LiAlSe2
_symmetry_space_group_name_H-M   'P 1'
_cell_length_a   6.61452153
_cell_length_b   6.94385092
_cell_length_c   8.57410677
_cell_angle_alpha   89.96638567
_cell_angle_beta   89.95254379
_cell_angle_gamma   90.24756329
_symmetry_Int_Tables_number   1
_chemical_formula_structural   LiAlSe2
_chemical_formula_sum   'Li4 Al4 Se8'
_cell_volume   393.80700004
_cell_formula_units_Z   4
loop_
 _symmetry_equiv_pos_site_id
 _symmetry_equiv_pos_as_xyz
  1  'x, y, z'
loop_
 _atom_site_type_symbol
 _atom_site_label
 _atom_site_symmetry_multiplicity
 _atom_site_fract_x
 _atom_site_fract_y
 _atom_site_fract_z
 _atom_site_occupancy
  Al  Al0  1  0.84896231  0.93207271  0.13822423  1
  Al  Al1  1  0.35282987  0.06491024  0.88590988  1
  Al  Al2  1  0.01377107  0.43173279  0.38532220  1
  Al  Al3  1  0.51475624  0.56270925  0.63800391  1
  Se  Se4  1  0.98555344  0.05251818  0.89791166  1
  Se  Se5  1  0.48271374  0.93739079  0.12562652  1
  Se  Se6  1  0.91539674  0.58818696  0.14839940  1
  Se  Se7  1  0.95522755  0.08569204  0.37513638  1
  Se  Se8  1  0.43716700  0.40455735  0.87950960  1
  Se  Se9  1  0.45355623  0.90822978  0.64868183  1
  Se  Se10  1  0.88276530  0.56274856  0.62203378  1
  Se  Se11  1  0.38056893  0.43524981  0.40045944  1
  Li  Li12  1  0.88343191  0.40238646  0.89093969  1
  Li  Li13  1  0.84392376  0.93062698  0.63467378  1
  Li  Li14  1  0.51829752  0.56877173  0.14160631  1
  Li  Li15  1  0.34663224  0.06481789  0.38863309  1
