# generated using pymatgen
data_LiAlSe2
_symmetry_space_group_name_H-M   'P 1'
_cell_length_a   6.61441891
_cell_length_b   6.96530952
_cell_length_c   8.55253604
_cell_angle_alpha   89.92337904
_cell_angle_beta   89.96957487
_cell_angle_gamma   89.91808671
_symmetry_Int_Tables_number   1
_chemical_formula_structural   LiAlSe2
_chemical_formula_sum   'Li4 Al4 Se8'
_cell_volume   394.02713998
_cell_formula_units_Z   4
loop_
 _symmetry_equiv_pos_site_id
 _symmetry_equiv_pos_as_xyz
  1  'x, y, z'
loop_
 _atom_site_type_symbol
 _atom_site_label
 _atom_site_symmetry_multiplicity
 _atom_site_fract_x
 _atom_site_fract_y
 _atom_site_fract_z
 _atom_site_occupancy
  Al  Al0  1  0.82935587  0.92774083  0.13672694  1
  Al  Al1  1  0.33224062  0.06142521  0.88599023  1
  Al  Al2  1  0.99406729  0.42628420  0.38628261  1
  Al  Al3  1  0.49156516  0.56556062  0.63846798  1
  Se  Se4  1  0.96345836  0.06141749  0.90201162  1
  Se  Se5  1  0.46154584  0.93109991  0.12434964  1
  Se  Se6  1  0.89029698  0.58355682  0.14932782  1
  Se  Se7  1  0.89913026  0.09037930  0.37870980  1
  Se  Se8  1  0.39113847  0.40654309  0.87572218  1
  Se  Se9  1  0.39723888  0.90132492  0.64263178  1
  Se  Se10  1  0.85861996  0.55107295  0.62629398  1
  Se  Se11  1  0.36025778  0.43540737  0.39916142  1
  Li  Li12  1  0.00025297  0.42814616  0.89003006  1
  Li  Li13  1  0.94855710  0.90304598  0.63239196  1
  Li  Li14  1  0.49796544  0.56365762  0.13566691  1
  Li  Li15  1  0.49986286  0.09593909  0.39730679  1
