# generated using pymatgen
data_LiAlSe2
_symmetry_space_group_name_H-M   'P 1'
_cell_length_a   6.61452289
_cell_length_b   6.97317830
_cell_length_c   8.47635854
_cell_angle_alpha   90.25426697
_cell_angle_beta   90.79780662
_cell_angle_gamma   90.12370705
_symmetry_Int_Tables_number   1
_chemical_formula_structural   LiAlSe2
_chemical_formula_sum   'Li4 Al4 Se8'
_cell_volume   390.92294403
_cell_formula_units_Z   4
loop_
 _symmetry_equiv_pos_site_id
 _symmetry_equiv_pos_as_xyz
  1  'x, y, z'
loop_
 _atom_site_type_symbol
 _atom_site_label
 _atom_site_symmetry_multiplicity
 _atom_site_fract_x
 _atom_site_fract_y
 _atom_site_fract_z
 _atom_site_occupancy
  Al  Al0  1  0.86442844  0.92474027  0.13876150  1
  Al  Al1  1  0.35704973  0.06763528  0.88859897  1
  Al  Al2  1  0.04384655  0.42778711  0.38492081  1
  Al  Al3  1  0.37316295  0.57091769  0.64717555  1
  Se  Se4  1  0.99211365  0.05754727  0.89809318  1
  Se  Se5  1  0.49651563  0.93576760  0.12732601  1
  Se  Se6  1  0.95951307  0.58975163  0.14166700  1
  Se  Se7  1  0.96446323  0.08642543  0.37787764  1
  Se  Se8  1  0.47178903  0.39905161  0.88180943  1
  Se  Se9  1  0.47191097  0.90516752  0.65301622  1
  Se  Se10  1  0.97066019  0.56593946  0.63234544  1
  Se  Se11  1  0.41723030  0.42677590  0.39434164  1
  Li  Li12  1  0.86386723  0.40069602  0.88678956  1
  Li  Li13  1  0.86294490  0.91463532  0.63318216  1
  Li  Li14  1  0.35235317  0.59841363  0.12449591  1
  Li  Li15  1  0.35370479  0.06134981  0.39067068  1
