# generated using pymatgen
data_LiAlSe2
_symmetry_space_group_name_H-M   'P 1'
_cell_length_a   6.61449445
_cell_length_b   6.95857940
_cell_length_c   8.52699822
_cell_angle_alpha   90.15078329
_cell_angle_beta   89.69393201
_cell_angle_gamma   89.89598734
_symmetry_Int_Tables_number   1
_chemical_formula_structural   LiAlSe2
_chemical_formula_sum   'Li4 Al4 Se8'
_cell_volume   392.46866508
_cell_formula_units_Z   4
loop_
 _symmetry_equiv_pos_site_id
 _symmetry_equiv_pos_as_xyz
  1  'x, y, z'
loop_
 _atom_site_type_symbol
 _atom_site_label
 _atom_site_symmetry_multiplicity
 _atom_site_fract_x
 _atom_site_fract_y
 _atom_site_fract_z
 _atom_site_occupancy
  Al  Al0  1  0.86181155  0.92545827  0.13856603  1
  Al  Al1  1  0.36182718  0.06602047  0.88599997  1
  Al  Al2  1  0.02486060  0.42874441  0.38840366  1
  Al  Al3  1  0.52608498  0.56284317  0.63613210  1
  Se  Se4  1  0.99503733  0.05676881  0.89958170  1
  Se  Se5  1  0.49507082  0.93516366  0.12472011  1
  Se  Se6  1  0.95977017  0.58993161  0.14408567  1
  Se  Se7  1  0.96327059  0.08419628  0.37612163  1
  Se  Se8  1  0.45615756  0.40201005  0.88031352  1
  Se  Se9  1  0.46329030  0.90749916  0.64764471  1
  Se  Se10  1  0.89394760  0.56021279  0.62677262  1
  Se  Se11  1  0.39361700  0.43090345  0.39941942  1
  Li  Li12  1  0.85136888  0.39522571  0.90126450  1
  Li  Li13  1  0.85494172  0.92860228  0.63688542  1
  Li  Li14  1  0.35910757  0.59491828  0.12707628  1
  Li  Li15  1  0.35538999  0.06410315  0.38808437  1
