# generated using pymatgen
data_LiAlSe2
_symmetry_space_group_name_H-M   'P 1'
_cell_length_a   6.61437283
_cell_length_b   6.95105887
_cell_length_c   8.41151215
_cell_angle_alpha   89.88963406
_cell_angle_beta   89.25507613
_cell_angle_gamma   90.09144109
_symmetry_Int_Tables_number   1
_chemical_formula_structural   LiAlSe2
_chemical_formula_sum   'Li4 Al4 Se8'
_cell_volume   386.70129895
_cell_formula_units_Z   4
loop_
 _symmetry_equiv_pos_site_id
 _symmetry_equiv_pos_as_xyz
  1  'x, y, z'
loop_
 _atom_site_type_symbol
 _atom_site_label
 _atom_site_symmetry_multiplicity
 _atom_site_fract_x
 _atom_site_fract_y
 _atom_site_fract_z
 _atom_site_occupancy
  Al  Al0  1  0.99924920  0.92361985  0.13928620  1
  Al  Al1  1  0.37078731  0.07031358  0.87822250  1
  Al  Al2  1  0.99087455  0.42077556  0.38828929  1
  Al  Al3  1  0.49302817  0.56558972  0.63632577  1
  Se  Se4  1  0.89462809  0.06012921  0.89824593  1
  Se  Se5  1  0.36864053  0.92456711  0.13205308  1
  Se  Se6  1  0.88281294  0.59160214  0.15510853  1
  Se  Se7  1  0.88466556  0.08862802  0.37827001  1
  Se  Se8  1  0.37394945  0.41350274  0.87873852  1
  Se  Se9  1  0.37955608  0.89897153  0.63454158  1
  Se  Se10  1  0.85702089  0.55626183  0.63102095  1
  Se  Se11  1  0.35843750  0.43245653  0.39712314  1
  Li  Li12  1  0.97959298  0.41096934  0.89688525  1
  Li  Li13  1  0.98386218  0.90445463  0.63574118  1
  Li  Li14  1  0.49893895  0.57817498  0.13717015  1
  Li  Li15  1  0.49950946  0.09258476  0.38404964  1
