
#======================================================================
# CRYSTAL DATA
#----------------------------------------------------------------------
data_VESTA_phase_1

_chemical_name_common                  'Ti   Zn   N                           '
_cell_length_a                         5.276070
_cell_length_b                         5.749057
_cell_length_c                         6.611804
_cell_angle_alpha                      90.000793
_cell_angle_beta                       90.000023
_cell_angle_gamma                      90.000343
_cell_volume                           200.552062
_space_group_name_H-M_alt              'P 1'
_space_group_IT_number                 1

loop_
_space_group_symop_operation_xyz
   'x, y, z'

loop_
   _atom_site_label
   _atom_site_occupancy
   _atom_site_fract_x
   _atom_site_fract_y
   _atom_site_fract_z
   _atom_site_adp_type
   _atom_site_U_iso_or_equiv
   _atom_site_type_symbol
   Ti1        1.0     0.044440     0.921045     0.374170    Uiso  ? Ti
   Ti2        1.0     0.044440     0.421044     0.125828    Uiso  ? Ti
   Ti3        1.0     0.544441     0.090066     0.625830    Uiso  ? Ti
   Ti4        1.0     0.544441     0.590067     0.874172    Uiso  ? Ti
   Zn1        1.0     0.045577     0.918517     0.876059    Uiso  ? Zn
   Zn2        1.0     0.545577     0.092597     0.123942    Uiso  ? Zn
   Zn3        1.0     0.045577     0.418518     0.623939    Uiso  ? Zn
   Zn4        1.0     0.545576     0.592596     0.376061    Uiso  ? Zn
   N1         1.0     0.938104     0.094230     0.134108    Uiso  ? N
   N2         1.0     0.438104     0.916880     0.865892    Uiso  ? N
   N3         1.0     0.915878     0.077152     0.615483    Uiso  ? N
   N4         1.0     0.915878     0.577152     0.884519    Uiso  ? N
   N5         1.0     0.415877     0.933958     0.384517    Uiso  ? N
   N6         1.0     0.415877     0.433958     0.115481    Uiso  ? N
   N7         1.0     0.938104     0.594231     0.365893    Uiso  ? N
   N8         1.0     0.438105     0.416879     0.634106    Uiso  ? N
