
#======================================================================
# CRYSTAL DATA
#----------------------------------------------------------------------
data_VESTA_phase_1

_chemical_name_common                  'Ti   Zn   N                           '
_cell_length_a                         5.262311
_cell_length_b                         5.754337
_cell_length_c                         6.621227
_cell_angle_alpha                      90.000153
_cell_angle_beta                       89.999893
_cell_angle_gamma                      89.999382
_cell_volume                           200.498096
_space_group_name_H-M_alt              'P 1'
_space_group_IT_number                 1

loop_
_space_group_symop_operation_xyz
   'x, y, z'

loop_
   _atom_site_label
   _atom_site_occupancy
   _atom_site_fract_x
   _atom_site_fract_y
   _atom_site_fract_z
   _atom_site_adp_type
   _atom_site_U_iso_or_equiv
   _atom_site_type_symbol
   Ti1        1.0    -0.027415     0.921007     0.374055    Uiso  ? Ti
   Ti2        1.0    -0.027414     0.421007     0.125945    Uiso  ? Ti
   Ti3        1.0     0.472583     0.090103     0.625944    Uiso  ? Ti
   Ti4        1.0     0.472586     0.590103     0.874056    Uiso  ? Ti
   Zn1        1.0    -0.028353     0.918710     0.876103    Uiso  ? Zn
   Zn2        1.0     0.471647     0.092405     0.123895    Uiso  ? Zn
   Zn3        1.0    -0.028354     0.418712     0.623897    Uiso  ? Zn
   Zn4        1.0     0.471647     0.592406     0.376105    Uiso  ? Zn
   N1         1.0     0.078204     0.094203     0.134092    Uiso  ? N
   N2         1.0     0.578202     0.916911     0.865904    Uiso  ? N
   N3         1.0     0.100329     0.077193     0.615414    Uiso  ? N
   N4         1.0     0.100326     0.577190     0.884589    Uiso  ? N
   N5         1.0     0.600325     0.933920     0.384586    Uiso  ? N
   N6         1.0     0.600332     0.433917     0.115416    Uiso  ? N
   N7         1.0     0.078203     0.594198     0.365906    Uiso  ? N
   N8         1.0     0.578203     0.416904     0.634093    Uiso  ? N
