
#======================================================================
# CRYSTAL DATA
#----------------------------------------------------------------------
data_VESTA_phase_1

_chemical_name_common                  'Ti   Zn   N                           '
_cell_length_a                         4.823556
_cell_length_b                         5.931908
_cell_length_c                         6.858245
_cell_angle_alpha                      90.000023
_cell_angle_beta                       90.000008
_cell_angle_gamma                      89.999847
_cell_volume                           196.234196
_space_group_name_H-M_alt              'P 1'
_space_group_IT_number                 1

loop_
_space_group_symop_operation_xyz
   'x, y, z'

loop_
   _atom_site_label
   _atom_site_occupancy
   _atom_site_fract_x
   _atom_site_fract_y
   _atom_site_fract_z
   _atom_site_adp_type
   _atom_site_U_iso_or_equiv
   _atom_site_type_symbol
   Ti1        1.0    -0.023271     0.920864     0.371251    Uiso  ? Ti
   Ti2        1.0    -0.023271     0.420863     0.128748    Uiso  ? Ti
   Ti3        1.0     0.476728     0.090244     0.628748    Uiso  ? Ti
   Ti4        1.0     0.476728     0.590244     0.871252    Uiso  ? Ti
   Zn1        1.0    -0.015301     0.921950     0.878520    Uiso  ? Zn
   Zn2        1.0     0.484702     0.089170     0.121479    Uiso  ? Zn
   Zn3        1.0    -0.015300     0.421950     0.621481    Uiso  ? Zn
   Zn4        1.0     0.484701     0.589170     0.378521    Uiso  ? Zn
   N1         1.0     0.052996     0.095440     0.133866    Uiso  ? N
   N2         1.0     0.552994     0.915667     0.866134    Uiso  ? N
   N3         1.0     0.069493     0.077891     0.614442    Uiso  ? N
   N4         1.0     0.069493     0.577891     0.885558    Uiso  ? N
   N5         1.0     0.569494     0.933219     0.385556    Uiso  ? N
   N6         1.0     0.569494     0.433219     0.114444    Uiso  ? N
   N7         1.0     0.052996     0.595440     0.366134    Uiso  ? N
   N8         1.0     0.552995     0.415667     0.633866    Uiso  ? N
