
#======================================================================
# CRYSTAL DATA
#----------------------------------------------------------------------
data_VESTA_phase_1

_chemical_name_common                  'Ti   Zn   N                           '
_cell_length_a                         4.403913
_cell_length_b                         6.101147
_cell_length_c                         7.043287
_cell_angle_alpha                      89.999924
_cell_angle_beta                       90.000000
_cell_angle_gamma                      89.999947
_cell_volume                           189.245505
_space_group_name_H-M_alt              'P 1'
_space_group_IT_number                 1

loop_
_space_group_symop_operation_xyz
   'x, y, z'

loop_
   _atom_site_label
   _atom_site_occupancy
   _atom_site_fract_x
   _atom_site_fract_y
   _atom_site_fract_z
   _atom_site_adp_type
   _atom_site_U_iso_or_equiv
   _atom_site_type_symbol
   Ti1        1.0     0.009537     0.923006     0.369812    Uiso  ? Ti
   Ti2        1.0     0.009537     0.423007     0.130187    Uiso  ? Ti
   Ti3        1.0     0.509537     0.088101     0.630186    Uiso  ? Ti
   Ti4        1.0     0.509538     0.588100     0.869815    Uiso  ? Ti
   Zn1        1.0     0.017675     0.920185     0.881686    Uiso  ? Zn
   Zn2        1.0     0.517674     0.090935     0.118311    Uiso  ? Zn
   Zn3        1.0     0.017675     0.420185     0.618315    Uiso  ? Zn
   Zn4        1.0     0.517675     0.590935     0.381688    Uiso  ? Zn
   N1         1.0     0.026570     0.098647     0.133440    Uiso  ? N
   N2         1.0     0.526570     0.912461     0.866559    Uiso  ? N
   N3         1.0     0.029886     0.075853     0.614062    Uiso  ? N
   N4         1.0     0.029886     0.575853     0.885938    Uiso  ? N
   N5         1.0     0.529886     0.935257     0.385935    Uiso  ? N
   N6         1.0     0.529886     0.435257     0.114065    Uiso  ? N
   N7         1.0     0.026570     0.598647     0.366560    Uiso  ? N
   N8         1.0     0.526570     0.412460     0.633441    Uiso  ? N
