
#======================================================================
# CRYSTAL DATA
#----------------------------------------------------------------------
data_VESTA_phase_1

_chemical_name_common                  'Ti   Zn   N                           '
_cell_length_a                         5.276448
_cell_length_b                         5.748919
_cell_length_c                         6.611479
_cell_angle_alpha                      90.000069
_cell_angle_beta                       90.000015
_cell_angle_gamma                      90.000084
_cell_volume                           200.551728
_space_group_name_H-M_alt              'P 1'
_space_group_IT_number                 1

loop_
_space_group_symop_operation_xyz
   'x, y, z'

loop_
   _atom_site_label
   _atom_site_occupancy
   _atom_site_fract_x
   _atom_site_fract_y
   _atom_site_fract_z
   _atom_site_adp_type
   _atom_site_U_iso_or_equiv
   _atom_site_type_symbol
   Ti1        1.0     0.032432     0.921043     0.374174    Uiso  ? Ti
   Ti2        1.0     0.032432     0.421044     0.125825    Uiso  ? Ti
   Ti3        1.0     0.532432     0.090065     0.625825    Uiso  ? Ti
   Ti4        1.0     0.532432     0.590067     0.874174    Uiso  ? Ti
   Zn1        1.0     0.033601     0.918505     0.876056    Uiso  ? Zn
   Zn2        1.0     0.533602     0.092608     0.123944    Uiso  ? Zn
   Zn3        1.0     0.033602     0.418506     0.623944    Uiso  ? Zn
   Zn4        1.0     0.533601     0.592609     0.376057    Uiso  ? Zn
   N1         1.0     0.926072     0.094233     0.134108    Uiso  ? N
   N2         1.0     0.426077     0.916879     0.865894    Uiso  ? N
   N3         1.0     0.903838     0.077154     0.615484    Uiso  ? N
   N4         1.0     0.903838     0.577149     0.884515    Uiso  ? N
   N5         1.0     0.403838     0.933961     0.384514    Uiso  ? N
   N6         1.0     0.403837     0.433957     0.115485    Uiso  ? N
   N7         1.0     0.926077     0.594231     0.365895    Uiso  ? N
   N8         1.0     0.426073     0.416877     0.634107    Uiso  ? N
