
#======================================================================
# CRYSTAL DATA
#----------------------------------------------------------------------
data_VESTA_phase_1

_chemical_name_common                  'Ti   Zn   N                           '
_cell_length_a                         5.274212
_cell_length_b                         5.749716
_cell_length_c                         6.612881
_cell_angle_alpha                      89.999870
_cell_angle_beta                       90.000099
_cell_angle_gamma                      90.000259
_cell_volume                           200.537075
_space_group_name_H-M_alt              'P 1'
_space_group_IT_number                 1

loop_
_space_group_symop_operation_xyz
   'x, y, z'

loop_
   _atom_site_label
   _atom_site_occupancy
   _atom_site_fract_x
   _atom_site_fract_y
   _atom_site_fract_z
   _atom_site_adp_type
   _atom_site_U_iso_or_equiv
   _atom_site_type_symbol
   Ti1        1.0     0.056577     0.921033     0.374158    Uiso  ? Ti
   Ti2        1.0     0.056576     0.421031     0.125845    Uiso  ? Ti
   Ti3        1.0     0.556575     0.090081     0.625844    Uiso  ? Ti
   Ti4        1.0     0.556574     0.590077     0.874154    Uiso  ? Ti
   Zn1        1.0     0.057719     0.918536     0.876064    Uiso  ? Zn
   Zn2        1.0     0.557722     0.092580     0.123935    Uiso  ? Zn
   Zn3        1.0     0.057720     0.418534     0.623936    Uiso  ? Zn
   Zn4        1.0     0.557722     0.592579     0.376065    Uiso  ? Zn
   N1         1.0     0.950327     0.094212     0.134107    Uiso  ? N
   N2         1.0     0.450326     0.916876     0.865903    Uiso  ? N
   N3         1.0     0.928140     0.077155     0.615472    Uiso  ? N
   N4         1.0     0.928119     0.577162     0.884518    Uiso  ? N
   N5         1.0     0.428114     0.933948     0.384516    Uiso  ? N
   N6         1.0     0.428134     0.433955     0.115473    Uiso  ? N
   N7         1.0     0.950327     0.594230     0.365901    Uiso  ? N
   N8         1.0     0.450327     0.416900     0.634109    Uiso  ? N
