
#======================================================================
# CRYSTAL DATA
#----------------------------------------------------------------------
data_VESTA_phase_1

_chemical_name_common                  'Ti   Zn   N                           '
_cell_length_a                         4.823697
_cell_length_b                         5.931933
_cell_length_c                         6.858122
_cell_angle_alpha                      90.000114
_cell_angle_beta                       90.000008
_cell_angle_gamma                      90.000183
_cell_volume                           196.237270
_space_group_name_H-M_alt              'P 1'
_space_group_IT_number                 1

loop_
_space_group_symop_operation_xyz
   'x, y, z'

loop_
   _atom_site_label
   _atom_site_occupancy
   _atom_site_fract_x
   _atom_site_fract_y
   _atom_site_fract_z
   _atom_site_adp_type
   _atom_site_U_iso_or_equiv
   _atom_site_type_symbol
   Ti1        1.0     0.064598     0.920862     0.371252    Uiso  ? Ti
   Ti2        1.0     0.064599     0.420862     0.128748    Uiso  ? Ti
   Ti3        1.0     0.564600     0.090245     0.628747    Uiso  ? Ti
   Ti4        1.0     0.564600     0.590246     0.871253    Uiso  ? Ti
   Zn1        1.0     0.056649     0.921946     0.878519    Uiso  ? Zn
   Zn2        1.0     0.556646     0.089174     0.121480    Uiso  ? Zn
   Zn3        1.0     0.056649     0.421946     0.621481    Uiso  ? Zn
   Zn4        1.0     0.556645     0.589173     0.378521    Uiso  ? Zn
   N1         1.0     0.988311     0.095441     0.133867    Uiso  ? N
   N2         1.0     0.488313     0.915666     0.866134    Uiso  ? N
   N3         1.0     0.971809     0.077893     0.614441    Uiso  ? N
   N4         1.0     0.971809     0.577893     0.885558    Uiso  ? N
   N5         1.0     0.471808     0.933217     0.385557    Uiso  ? N
   N6         1.0     0.471808     0.433217     0.114443    Uiso  ? N
   N7         1.0     0.988312     0.595441     0.366134    Uiso  ? N
   N8         1.0     0.488313     0.415666     0.633866    Uiso  ? N
