
#======================================================================
# CRYSTAL DATA
#----------------------------------------------------------------------
data_VESTA_phase_1

_chemical_name_common                  'Ti   Zn   N                           '
_cell_length_a                         5.180851
_cell_length_b                         5.787574
_cell_length_c                         6.672389
_cell_angle_alpha                      89.999573
_cell_angle_beta                       89.999992
_cell_angle_gamma                      89.999962
_cell_volume                           200.068600
_space_group_name_H-M_alt              'P 1'
_space_group_IT_number                 1

loop_
_space_group_symop_operation_xyz
   'x, y, z'

loop_
   _atom_site_label
   _atom_site_occupancy
   _atom_site_fract_x
   _atom_site_fract_y
   _atom_site_fract_z
   _atom_site_adp_type
   _atom_site_U_iso_or_equiv
   _atom_site_type_symbol
   Ti1        1.0     0.076098     0.920860     0.373393    Uiso  ? Ti
   Ti2        1.0     0.076102     0.420856     0.126605    Uiso  ? Ti
   Ti3        1.0     0.576099     0.090257     0.626610    Uiso  ? Ti
   Ti4        1.0     0.576100     0.590255     0.873392    Uiso  ? Ti
   Zn1        1.0     0.075615     0.919734     0.876463    Uiso  ? Zn
   Zn2        1.0     0.575614     0.091374     0.123537    Uiso  ? Zn
   Zn3        1.0     0.075614     0.419734     0.623538    Uiso  ? Zn
   Zn4        1.0     0.575615     0.591375     0.376462    Uiso  ? Zn
   N1         1.0     0.974862     0.094227     0.134045    Uiso  ? N
   N2         1.0     0.474861     0.916884     0.865956    Uiso  ? N
   N3         1.0     0.953504     0.077463     0.615078    Uiso  ? N
   N4         1.0     0.953504     0.577463     0.884920    Uiso  ? N
   N5         1.0     0.453501     0.933645     0.384919    Uiso  ? N
   N6         1.0     0.453504     0.433647     0.115081    Uiso  ? N
   N7         1.0     0.974860     0.594229     0.365957    Uiso  ? N
   N8         1.0     0.474861     0.416884     0.634044    Uiso  ? N
