
#======================================================================
# CRYSTAL DATA
#----------------------------------------------------------------------
data_VESTA_phase_1

_chemical_name_common                  'Ti   Zn   N                           '
_cell_length_a                         5.276217
_cell_length_b                         5.749035
_cell_length_c                         6.611651
_cell_angle_alpha                      89.999405
_cell_angle_beta                       90.000015
_cell_angle_gamma                      89.999603
_cell_volume                           200.552218
_space_group_name_H-M_alt              'P 1'
_space_group_IT_number                 1

loop_
_space_group_symop_operation_xyz
   'x, y, z'

loop_
   _atom_site_label
   _atom_site_occupancy
   _atom_site_fract_x
   _atom_site_fract_y
   _atom_site_fract_z
   _atom_site_adp_type
   _atom_site_U_iso_or_equiv
   _atom_site_type_symbol
   Ti1        1.0    -0.003138     0.921044     0.374173    Uiso  ? Ti
   Ti2        1.0    -0.003139     0.421045     0.125829    Uiso  ? Ti
   Ti3        1.0     0.496861     0.090066     0.625828    Uiso  ? Ti
   Ti4        1.0     0.496861     0.590066     0.874171    Uiso  ? Ti
   Zn1        1.0    -0.004280     0.918514     0.876060    Uiso  ? Zn
   Zn2        1.0     0.495720     0.092600     0.123940    Uiso  ? Zn
   Zn3        1.0    -0.004280     0.418513     0.623941    Uiso  ? Zn
   Zn4        1.0     0.495720     0.592601     0.376059    Uiso  ? Zn
   N1         1.0     0.103204     0.094234     0.134108    Uiso  ? N
   N2         1.0     0.603204     0.916876     0.865892    Uiso  ? N
   N3         1.0     0.125433     0.077153     0.615482    Uiso  ? N
   N4         1.0     0.125433     0.577153     0.884516    Uiso  ? N
   N5         1.0     0.625434     0.933957     0.384518    Uiso  ? N
   N6         1.0     0.625433     0.433957     0.115484    Uiso  ? N
   N7         1.0     0.103205     0.594233     0.365891    Uiso  ? N
   N8         1.0     0.603205     0.416876     0.634109    Uiso  ? N
