
#======================================================================
# CRYSTAL DATA
#----------------------------------------------------------------------
data_VESTA_phase_1

_chemical_name_common                  'Ti   Zn   N                           '
_cell_length_a                         5.060331
_cell_length_b                         5.836987
_cell_length_c                         6.740510
_cell_angle_alpha                      90.000046
_cell_angle_beta                       90.000015
_cell_angle_gamma                      90.000053
_cell_volume                           199.095055
_space_group_name_H-M_alt              'P 1'
_space_group_IT_number                 1

loop_
_space_group_symop_operation_xyz
   'x, y, z'

loop_
   _atom_site_label
   _atom_site_occupancy
   _atom_site_fract_x
   _atom_site_fract_y
   _atom_site_fract_z
   _atom_site_adp_type
   _atom_site_U_iso_or_equiv
   _atom_site_type_symbol
   Ti1        1.0     0.073110     0.920715     0.372541    Uiso  ? Ti
   Ti2        1.0     0.073111     0.420719     0.127461    Uiso  ? Ti
   Ti3        1.0     0.573110     0.090398     0.627459    Uiso  ? Ti
   Ti4        1.0     0.573110     0.590394     0.872538    Uiso  ? Ti
   Zn1        1.0     0.070306     0.920873     0.877103    Uiso  ? Zn
   Zn2        1.0     0.570305     0.090235     0.122897    Uiso  ? Zn
   Zn3        1.0     0.070305     0.420874     0.622897    Uiso  ? Zn
   Zn4        1.0     0.570304     0.590235     0.377104    Uiso  ? Zn
   N1         1.0     0.979081     0.094459     0.133987    Uiso  ? N
   N2         1.0     0.479080     0.916653     0.866012    Uiso  ? N
   N3         1.0     0.959094     0.077771     0.614747    Uiso  ? N
   N4         1.0     0.959095     0.577771     0.885254    Uiso  ? N
   N5         1.0     0.459095     0.933340     0.385253    Uiso  ? N
   N6         1.0     0.459095     0.433340     0.114747    Uiso  ? N
   N7         1.0     0.979082     0.594459     0.366012    Uiso  ? N
   N8         1.0     0.479082     0.416652     0.633989    Uiso  ? N
