
#======================================================================
# CRYSTAL DATA
#----------------------------------------------------------------------
data_VESTA_phase_1

_chemical_name_common                  'Ti   Zn   N                           '
_cell_length_a                         4.600708
_cell_length_b                         6.018737
_cell_length_c                         6.956779
_cell_angle_alpha                      89.999985
_cell_angle_beta                       89.999977
_cell_angle_gamma                      90.000107
_cell_volume                           192.636382
_space_group_name_H-M_alt              'P 1'
_space_group_IT_number                 1

loop_
_space_group_symop_operation_xyz
   'x, y, z'

loop_
   _atom_site_label
   _atom_site_occupancy
   _atom_site_fract_x
   _atom_site_fract_y
   _atom_site_fract_z
   _atom_site_adp_type
   _atom_site_U_iso_or_equiv
   _atom_site_type_symbol
   Ti1        1.0     0.052592     0.921631     0.370405    Uiso  ? Ti
   Ti2        1.0     0.052591     0.421631     0.129595    Uiso  ? Ti
   Ti3        1.0     0.552592     0.089477     0.629593    Uiso  ? Ti
   Ti4        1.0     0.552593     0.589476     0.870406    Uiso  ? Ti
   Zn1        1.0     0.039920     0.921634     0.879993    Uiso  ? Zn
   Zn2        1.0     0.539926     0.089486     0.120006    Uiso  ? Zn
   Zn3        1.0     0.039925     0.421633     0.620007    Uiso  ? Zn
   Zn4        1.0     0.539920     0.589485     0.379994    Uiso  ? Zn
   N1         1.0     1.000272     0.096889     0.133604    Uiso  ? N
   N2         1.0     0.500273     0.914218     0.866396    Uiso  ? N
   N3         1.0     0.988576     0.077267     0.614347    Uiso  ? N
   N4         1.0     0.988575     0.577268     0.885652    Uiso  ? N
   N5         1.0     0.488575     0.933843     0.385650    Uiso  ? N
   N6         1.0     0.488576     0.433843     0.114350    Uiso  ? N
   N7         1.0     1.000272     0.596890     0.366396    Uiso  ? N
   N8         1.0     0.500272     0.414219     0.633604    Uiso  ? N
