# generated using pymatgen
data_GaCuO2
_symmetry_space_group_name_H-M   'P 1'
_cell_length_a   5.57379206
_cell_length_b   6.75903301
_cell_length_c   5.32718049
_cell_angle_alpha   90.71171555
_cell_angle_beta   89.71398148
_cell_angle_gamma   89.67097096
_symmetry_Int_Tables_number   1
_chemical_formula_structural   GaCuO2
_chemical_formula_sum   'Ga4 Cu4 O8'
_cell_volume   200.67187343
_cell_formula_units_Z   4
loop_
 _symmetry_equiv_pos_site_id
 _symmetry_equiv_pos_as_xyz
  1  'x, y, z'
loop_
 _atom_site_type_symbol
 _atom_site_label
 _atom_site_symmetry_multiplicity
 _atom_site_fract_x
 _atom_site_fract_y
 _atom_site_fract_z
 _atom_site_occupancy
  O  O0  1  0.92713211  -0.10315487  -0.08219095  1
  O  O1  1  0.06805066  -0.88315179  -0.47337544  1
  O  O2  1  0.89221139  -0.64281532  -0.99943261  1
  O  O3  1  0.39741861  -0.83572604  -0.99902360  1
  O  O4  1  0.09351145  -0.34365122  -0.55535229  1
  O  O5  1  0.58814971  -0.13970955  -0.50431951  1
  O  O6  1  0.44118319  -0.38874727  -0.95450338  1
  O  O7  1  0.55768681  -0.59332833  -0.45522615  1
  Ga  Ga8  1  0.07975214  -0.85708492  -0.09924586  1
  Ga  Ga9  1  0.91441260  -0.12873079  -0.44652555  1
  Ga  Ga10  1  0.57433905  -0.61419554  -0.10550093  1
  Ga  Ga11  1  0.42653253  -0.36801007  -0.60163288  1
  Cu  Cu12  1  0.03267411  -0.37225848  -0.99728113  1
  Cu  Cu13  1  0.52726982  -0.11078120  -0.04326910  1
  Cu  Cu14  1  0.97033239  -0.61492259  -0.55218348  1
  Cu  Cu15  1  0.44272715  -0.87023072  -0.58014839  1
