# generated using pymatgen
data_GaCuO2
_symmetry_space_group_name_H-M   'P 1'
_cell_length_a   5.54954222
_cell_length_b   6.73060179
_cell_length_c   5.32730836
_cell_angle_alpha   90.75010606
_cell_angle_beta   89.51072722
_cell_angle_gamma   90.53030732
_symmetry_Int_Tables_number   1
_chemical_formula_structural   GaCuO2
_chemical_formula_sum   'Ga4 Cu4 O8'
_cell_volume   198.95171094
_cell_formula_units_Z   4
loop_
 _symmetry_equiv_pos_site_id
 _symmetry_equiv_pos_as_xyz
  1  'x, y, z'
loop_
 _atom_site_type_symbol
 _atom_site_label
 _atom_site_symmetry_multiplicity
 _atom_site_fract_x
 _atom_site_fract_y
 _atom_site_fract_z
 _atom_site_occupancy
  O  O0  1  0.92883238  -0.09815641  -0.05024802  1
  O  O1  1  0.07337693  -0.88382168  -0.46492405  1
  O  O2  1  0.89909211  -0.64008322  -0.00180035  1
  O  O3  1  0.40035607  -0.82990954  -0.99642929  1
  O  O4  1  0.09188312  -0.35863877  -0.51807216  1
  O  O5  1  0.58873671  -0.13903885  -0.49155773  1
  O  O6  1  0.44075284  -0.38441454  -0.94786302  1
  O  O7  1  0.55584764  -0.59195414  -0.45196906  1
  Ga  Ga8  1  0.08425318  -0.85772853  -0.10428282  1
  Ga  Ga9  1  0.91903840  -0.13114735  -0.46428870  1
  Ga  Ga10  1  0.57809133  -0.60648860  -0.10275741  1
  Ga  Ga11  1  0.41914015  -0.36744287  -0.59563618  1
  Cu  Cu12  1  0.03577740  -0.36861290  -0.02543720  1
  Cu  Cu13  1  0.55000470  -0.10178472  -0.03279890  1
  Cu  Cu14  1  0.91583009  -0.63455880  -0.59893155  1
  Cu  Cu15  1  0.45237067  -0.87271781  -0.60221482  1
