# generated using pymatgen
data_GaCuO2
_symmetry_space_group_name_H-M   'P 1'
_cell_length_a   5.32727543
_cell_length_b   5.56097339
_cell_length_c   6.73545031
_cell_angle_alpha   89.84028874
_cell_angle_beta   89.48643236
_cell_angle_gamma   90.44587885
_symmetry_Int_Tables_number   1
_chemical_formula_structural   GaCuO2
_chemical_formula_sum   'Ga4 Cu4 O8'
_cell_volume   199.52174490
_cell_formula_units_Z   4
loop_
 _symmetry_equiv_pos_site_id
 _symmetry_equiv_pos_as_xyz
  1  'x, y, z'
loop_
 _atom_site_type_symbol
 _atom_site_label
 _atom_site_symmetry_multiplicity
 _atom_site_fract_x
 _atom_site_fract_y
 _atom_site_fract_z
 _atom_site_occupancy
  O  O0  1  0.09878885  0.93553839  0.09385798  1
  O  O1  1  0.60187318  0.05004368  0.88902324  1
  O  O2  1  0.05781502  0.90137638  0.64055827  1
  O  O3  1  0.00540827  0.39801701  0.84294323  1
  O  O4  1  0.55086407  0.09265213  0.33956299  1
  O  O5  1  0.52307136  0.59620360  0.13895284  1
  O  O6  1  0.95719003  0.43796497  0.39322785  1
  O  O7  1  0.45683084  0.55358549  0.59419923  1
  Ga  Ga8  1  0.95419552  0.06479854  0.86685124  1
  Ga  Ga9  1  0.44902677  0.92203617  0.11614224  1
  Ga  Ga10  1  0.10499816  0.57012331  0.61820944  1
  Ga  Ga11  1  0.59904559  0.42442798  0.36619116  1
  Cu  Cu12  1  0.99299872  0.03830777  0.37081469  1
  Cu  Cu13  1  0.03374103  0.51767547  0.11398985  1
  Cu  Cu14  1  0.50542722  0.97068257  0.61295396  1
  Cu  Cu15  1  0.55793665  0.45995028  0.86902052  1
