# generated using pymatgen
data_GaCuO2
_symmetry_space_group_name_H-M   'P 1'
_cell_length_a   5.32715866
_cell_length_b   5.57086618
_cell_length_c   6.75833734
_cell_angle_alpha   89.64816831
_cell_angle_beta   89.22808949
_cell_angle_gamma   90.23431414
_symmetry_Int_Tables_number   1
_chemical_formula_structural   GaCuO2
_chemical_formula_sum   'Ga4 Cu4 O8'
_cell_volume   200.54269175
_cell_formula_units_Z   4
loop_
 _symmetry_equiv_pos_site_id
 _symmetry_equiv_pos_as_xyz
  1  'x, y, z'
loop_
 _atom_site_type_symbol
 _atom_site_label
 _atom_site_symmetry_multiplicity
 _atom_site_fract_x
 _atom_site_fract_y
 _atom_site_fract_z
 _atom_site_occupancy
  O  O0  1  0.10126501  0.93390382  0.09325689  1
  O  O1  1  0.60201084  0.05013054  0.88849815  1
  O  O2  1  0.05204536  0.90386845  0.63945420  1
  O  O3  1  0.00070875  0.39859691  0.84418735  1
  O  O4  1  0.55732169  0.09365029  0.33521880  1
  O  O5  1  0.55828231  0.59876947  0.14325136  1
  O  O6  1  0.08443741  0.42369529  0.38320794  1
  O  O7  1  0.47461592  0.56394832  0.60302057  1
  Ga  Ga8  1  0.95491582  0.06558586  0.86795120  1
  Ga  Ga9  1  0.45099069  0.91657350  0.11387435  1
  Ga  Ga10  1  0.11027898  0.57747807  0.62932482  1
  Ga  Ga11  1  0.45493336  0.41094702  0.35683071  1
  Cu  Cu12  1  0.97361956  0.04907079  0.36999802  1
  Cu  Cu13  1  0.00054388  0.52467542  0.11571508  1
  Cu  Cu14  1  0.51496048  0.96286709  0.61036005  1
  Cu  Cu15  1  0.55828119  0.45962289  0.87234921  1
