# generated using pymatgen
data_GaCuO2
_symmetry_space_group_name_H-M   'P 1'
_cell_length_a   5.32735008
_cell_length_b   5.55150391
_cell_length_c   6.73667446
_cell_angle_alpha   90.51508407
_cell_angle_beta   89.12458112
_cell_angle_gamma   90.53925943
_symmetry_Int_Tables_number   1
_chemical_formula_structural   GaCuO2
_chemical_formula_sum   'Ga4 Cu4 O8'
_cell_volume   199.19595731
_cell_formula_units_Z   4
loop_
 _symmetry_equiv_pos_site_id
 _symmetry_equiv_pos_as_xyz
  1  'x, y, z'
loop_
 _atom_site_type_symbol
 _atom_site_label
 _atom_site_symmetry_multiplicity
 _atom_site_fract_x
 _atom_site_fract_y
 _atom_site_fract_z
 _atom_site_occupancy
  O  O0  1  0.10419559  0.93681605  0.09120174  1
  O  O1  1  0.60816760  0.04906748  0.88432998  1
  O  O2  1  0.06146671  0.90238362  0.63887770  1
  O  O3  1  0.02362722  0.40246650  0.85723891  1
  O  O4  1  0.55972140  0.09150258  0.32927799  1
  O  O5  1  0.55578169  0.59349735  0.14052260  1
  O  O6  1  0.08710828  0.41703004  0.38406484  1
  O  O7  1  0.48434943  0.56204031  0.59978150  1
  Ga  Ga8  1  0.96151671  0.07264292  0.86644972  1
  Ga  Ga9  1  0.45288904  0.91289731  0.10660578  1
  Ga  Ga10  1  0.11170891  0.57320076  0.63364037  1
  Ga  Ga11  1  0.44697902  0.40580008  0.35380306  1
  Cu  Cu12  1  0.95661824  0.03958764  0.37408636  1
  Cu  Cu13  1  0.96172546  0.57549569  0.13616544  1
  Cu  Cu14  1  0.52778239  0.94784518  0.60181570  1
  Cu  Cu15  1  0.54557358  0.45111023  0.86863699  1
