# generated using pymatgen
data_GaCuO2
_symmetry_space_group_name_H-M   'P 1'
_cell_length_a   5.55907370
_cell_length_b   6.74936000
_cell_length_c   5.32713575
_cell_angle_alpha   88.72383072
_cell_angle_beta   89.83670177
_cell_angle_gamma   90.29191265
_symmetry_Int_Tables_number   1
_chemical_formula_structural   GaCuO2
_chemical_formula_sum   'Ga4 Cu4 O8'
_cell_volume   199.82209490
_cell_formula_units_Z   4
loop_
 _symmetry_equiv_pos_site_id
 _symmetry_equiv_pos_as_xyz
  1  'x, y, z'
loop_
 _atom_site_type_symbol
 _atom_site_label
 _atom_site_symmetry_multiplicity
 _atom_site_fract_x
 _atom_site_fract_y
 _atom_site_fract_z
 _atom_site_occupancy
  O  O0  1  0.93541138  -0.09344278  -0.10178496  1
  O  O1  1  0.04673226  -0.88528977  -0.60535234  1
  O  O2  1  0.90432266  -0.63935522  -0.05931417  1
  O  O3  1  0.40165575  -0.85076616  -0.00308392  1
  O  O4  1  0.08953917  -0.33042188  -0.55703671  1
  O  O5  1  0.59446807  -0.14246184  -0.56047326  1
  O  O6  1  0.42115727  -0.38527401  -0.08672652  1
  O  O7  1  0.55961318  -0.60004797  -0.47888419  1
  Ga  Ga8  1  0.06871924  -0.86746427  -0.95845674  1
  Ga  Ga9  1  0.91244287  -0.10972261  -0.45092886  1
  Ga  Ga10  1  0.57613535  -0.63316184  -0.11416775  1
  Ga  Ga11  1  0.40496137  -0.35420805  -0.44740722  1
  Cu  Cu12  1  0.04770111  -0.37382749  -0.95804567  1
  Cu  Cu13  1  0.55289891  -0.12578226  -0.97938757  1
  Cu  Cu14  1  0.95446021  -0.60618468  -0.52743819  1
  Cu  Cu15  1  0.46316493  -0.86908790  -0.56072320  1
