# generated using pymatgen
data_GaCuO2
_symmetry_space_group_name_H-M   'P 1'
_cell_length_a   5.54875720
_cell_length_b   6.72858995
_cell_length_c   5.32731951
_cell_angle_alpha   89.29974664
_cell_angle_beta   89.49688403
_cell_angle_gamma   89.45460070
_symmetry_Int_Tables_number   1
_chemical_formula_structural   GaCuO2
_chemical_formula_sum   'Ga4 Cu4 O8'
_cell_volume   198.86580340
_cell_formula_units_Z   4
loop_
 _symmetry_equiv_pos_site_id
 _symmetry_equiv_pos_as_xyz
  1  'x, y, z'
loop_
 _atom_site_type_symbol
 _atom_site_label
 _atom_site_symmetry_multiplicity
 _atom_site_fract_x
 _atom_site_fract_y
 _atom_site_fract_z
 _atom_site_occupancy
  O  O0  1  0.93573571  -0.09207444  -0.10433485  1
  O  O1  1  0.05106177  -0.88462130  -0.60837258  1
  O  O2  1  0.90291986  -0.63896622  -0.06513236  1
  O  O3  1  0.39924994  -0.85855984  -0.04037410  1
  O  O4  1  0.09158194  -0.33027974  -0.55966847  1
  O  O5  1  0.59241541  -0.14013540  -0.55413590  1
  O  O6  1  0.41884893  -0.38387394  -0.09231806  1
  O  O7  1  0.56287211  -0.59776799  -0.51548461  1
  Ga  Ga8  1  0.07232082  -0.86765637  -0.96029119  1
  Ga  Ga9  1  0.91368462  -0.10676498  -0.45370887  1
  Ga  Ga10  1  0.57245581  -0.63033887  -0.08166040  1
  Ga  Ga11  1  0.40832385  -0.35920565  -0.45303062  1
  Cu  Cu12  1  0.03950536  -0.37218300  -0.95377562  1
  Cu  Cu13  1  0.57557270  -0.13375312  -0.95674296  1
  Cu  Cu14  1  0.94070585  -0.60191516  -0.52200503  1
  Cu  Cu15  1  0.45612903  -0.86840270  -0.52817565  1
