# generated using pymatgen
data_GaCuO2
_symmetry_space_group_name_H-M   'P 1'
_cell_length_a   5.32732075
_cell_length_b   5.50391634
_cell_length_c   6.65094744
_cell_angle_alpha   89.52622014
_cell_angle_beta   90.32512797
_cell_angle_gamma   90.50463875
_symmetry_Int_Tables_number   1
_chemical_formula_structural   GaCuO2
_chemical_formula_sum   'Ga4 Cu4 O8'
_cell_volume   194.99598867
_cell_formula_units_Z   4
loop_
 _symmetry_equiv_pos_site_id
 _symmetry_equiv_pos_as_xyz
  1  'x, y, z'
loop_
 _atom_site_type_symbol
 _atom_site_label
 _atom_site_symmetry_multiplicity
 _atom_site_fract_x
 _atom_site_fract_y
 _atom_site_fract_z
 _atom_site_occupancy
  O  O0  1  0.94056508  0.93630737  0.09407765  1
  O  O1  1  0.44385023  0.06041723  0.88897360  1
  O  O2  1  0.99437307  0.89853901  0.63855803  1
  O  O3  1  0.99121012  0.39772791  0.83976417  1
  O  O4  1  0.48951362  0.09084138  0.34757651  1
  O  O5  1  0.48358869  0.59451670  0.13965322  1
  O  O6  1  0.94128056  0.43761410  0.38640483  1
  O  O7  1  0.44498551  0.55433973  0.59447302  1
  Ga  Ga8  1  0.09372361  0.07443125  0.86750365  1
  Ga  Ga9  1  0.58893083  0.91970476  0.11804187  1
  Ga  Ga10  1  0.09526304  0.57514470  0.61182458  1
  Ga  Ga11  1  0.58975677  0.41635503  0.36727424  1
  Cu  Cu12  1  0.08323724  0.05572032  0.36299209  1
  Cu  Cu13  1  0.07560945  0.55428268  0.11296736  1
  Cu  Cu14  1  0.59703242  0.92428625  0.62657197  1
  Cu  Cu15  1  0.59628906  0.44315530  0.86984192  1
