# generated using pymatgen
data_GaCuO2
_symmetry_space_group_name_H-M   'P 1'
_cell_length_a   5.52055384
_cell_length_b   6.67852937
_cell_length_c   5.32741236
_cell_angle_alpha   89.51458294
_cell_angle_beta   89.39373886
_cell_angle_gamma   89.40227174
_symmetry_Int_Tables_number   1
_chemical_formula_structural   GaCuO2
_chemical_formula_sum   'Ga4 Cu4 O8'
_cell_volume   196.38877968
_cell_formula_units_Z   4
loop_
 _symmetry_equiv_pos_site_id
 _symmetry_equiv_pos_as_xyz
  1  'x, y, z'
loop_
 _atom_site_type_symbol
 _atom_site_label
 _atom_site_symmetry_multiplicity
 _atom_site_fract_x
 _atom_site_fract_y
 _atom_site_fract_z
 _atom_site_occupancy
  O  O0  1  0.93691428  -0.09379411  -0.10551506  1
  O  O1  1  0.05165490  -0.88451828  -0.61124642  1
  O  O2  1  0.89631788  -0.63991865  -0.07233066  1
  O  O3  1  0.40050939  -0.85142076  -0.05967723  1
  O  O4  1  0.09388439  -0.33433134  -0.56056234  1
  O  O5  1  0.59337924  -0.14106122  -0.55515495  1
  O  O6  1  0.42678186  -0.38993020  -0.10663529  1
  O  O7  1  0.55524407  -0.59278416  -0.61158671  1
  Ga  Ga8  1  0.07475202  -0.86645236  -0.96441011  1
  Ga  Ga9  1  0.91560314  -0.10846661  -0.45493259  1
  Ga  Ga10  1  0.57042335  -0.62117216  -0.97180226  1
  Ga  Ga11  1  0.41505132  -0.36790851  -0.45730005  1
  Cu  Cu12  1  0.04106235  -0.37263510  -0.95566055  1
  Cu  Cu13  1  0.57118609  -0.13009604  -0.95712786  1
  Cu  Cu14  1  0.94003116  -0.60587126  -0.50339066  1
  Cu  Cu15  1  0.45058830  -0.86613794  -0.50187854  1
