# generated using pymatgen
data_GaCuO2
_symmetry_space_group_name_H-M   'P 1'
_cell_length_a   5.32741236
_cell_length_b   5.52055384
_cell_length_c   6.67852937
_cell_angle_alpha   90.59772826
_cell_angle_beta   89.51458294
_cell_angle_gamma   90.60626114
_symmetry_Int_Tables_number   1
_chemical_formula_structural   GaCuO2
_chemical_formula_sum   'Ga4 Cu4 O8'
_cell_volume   196.38877968
_cell_formula_units_Z   4
loop_
 _symmetry_equiv_pos_site_id
 _symmetry_equiv_pos_as_xyz
  1  'x, y, z'
loop_
 _atom_site_type_symbol
 _atom_site_label
 _atom_site_symmetry_multiplicity
 _atom_site_fract_x
 _atom_site_fract_y
 _atom_site_fract_z
 _atom_site_occupancy
  O  O0  1  0.10551506  0.93691428  0.09379411  1
  O  O1  1  0.61124642  0.05165490  0.88451828  1
  O  O2  1  0.07233066  0.89631788  0.63991865  1
  O  O3  1  0.05967723  0.40050939  0.85142076  1
  O  O4  1  0.56056234  0.09388439  0.33433134  1
  O  O5  1  0.55515495  0.59337924  0.14106122  1
  O  O6  1  0.10663529  0.42678186  0.38993020  1
  O  O7  1  0.61158671  0.55524407  0.59278416  1
  Ga  Ga8  1  0.96441011  0.07475202  0.86645236  1
  Ga  Ga9  1  0.45493259  0.91560314  0.10846661  1
  Ga  Ga10  1  0.97180226  0.57042335  0.62117216  1
  Ga  Ga11  1  0.45730005  0.41505132  0.36790851  1
  Cu  Cu12  1  0.95566055  0.04106235  0.37263510  1
  Cu  Cu13  1  0.95712786  0.57118609  0.13009604  1
  Cu  Cu14  1  0.50339066  0.94003116  0.60587126  1
  Cu  Cu15  1  0.50187854  0.45058830  0.86613794  1
