# generated using pymatgen
data_GaCuO2
_symmetry_space_group_name_H-M   'P 1'
_cell_length_a   5.58016619
_cell_length_b   6.76178541
_cell_length_c   5.32722384
_cell_angle_alpha   90.66989320
_cell_angle_beta   89.63225882
_cell_angle_gamma   89.76107250
_symmetry_Int_Tables_number   1
_chemical_formula_structural   GaCuO2
_chemical_formula_sum   'Ga4 Cu4 O8'
_cell_volume   200.98651473
_cell_formula_units_Z   4
loop_
 _symmetry_equiv_pos_site_id
 _symmetry_equiv_pos_as_xyz
  1  'x, y, z'
loop_
 _atom_site_type_symbol
 _atom_site_label
 _atom_site_symmetry_multiplicity
 _atom_site_fract_x
 _atom_site_fract_y
 _atom_site_fract_z
 _atom_site_occupancy
  O  O0  1  0.92790234  -0.10191590  -0.08706665  1
  O  O1  1  0.06709918  -0.88603705  -0.50762759  1
  O  O2  1  0.89026526  -0.63899954  -0.00752732  1
  O  O3  1  0.39899739  -0.83728600  -0.00139991  1
  O  O4  1  0.09285986  -0.34398166  -0.55296591  1
  O  O5  1  0.58877171  -0.14093167  -0.50187409  1
  O  O6  1  0.44026211  -0.38893365  -0.95433191  1
  O  O7  1  0.55703226  -0.59342241  -0.45674937  1
  Ga  Ga8  1  0.07591806  -0.85912079  -0.06452649  1
  Ga  Ga9  1  0.91666455  -0.12394096  -0.45161891  1
  Ga  Ga10  1  0.57142430  -0.61373382  -0.10804740  1
  Ga  Ga11  1  0.42619687  -0.36784716  -0.60098247  1
  Cu  Cu12  1  0.03605432  -0.37059016  -0.99544233  1
  Cu  Cu13  1  0.52494613  -0.11265306  -0.04808731  1
  Cu  Cu14  1  0.97758777  -0.61496548  -0.54021729  1
  Cu  Cu15  1  0.44140164  -0.87213939  -0.57074631  1
