# generated using pymatgen
data_GaCuO2
_symmetry_space_group_name_H-M   'P 1'
_cell_length_a   5.50295147
_cell_length_b   6.64872352
_cell_length_c   5.32730022
_cell_angle_alpha   89.70719613
_cell_angle_beta   89.52109063
_cell_angle_gamma   89.54188215
_symmetry_Int_Tables_number   1
_chemical_formula_structural   GaCuO2
_chemical_formula_sum   'Ga4 Cu4 O8'
_cell_volume   194.89762650
_cell_formula_units_Z   4
loop_
 _symmetry_equiv_pos_site_id
 _symmetry_equiv_pos_as_xyz
  1  'x, y, z'
loop_
 _atom_site_type_symbol
 _atom_site_label
 _atom_site_symmetry_multiplicity
 _atom_site_fract_x
 _atom_site_fract_y
 _atom_site_fract_z
 _atom_site_occupancy
  O  O0  1  0.93729257  -0.09449621  -0.11187726  1
  O  O1  1  0.05427306  -0.88670777  -0.61518276  1
  O  O2  1  0.89737806  -0.63953016  -0.07220462  1
  O  O3  1  0.40081869  -0.84726686  -0.06676372  1
  O  O4  1  0.09391872  -0.34043814  -0.56541021  1
  O  O5  1  0.59301088  -0.13833706  -0.56243087  1
  O  O6  1  0.43172891  -0.38881401  -0.11278416  1
  O  O7  1  0.55560037  -0.59427465  -0.61564841  1
  Ga  Ga8  1  0.07529904  -0.86739055  -0.96650751  1
  Ga  Ga9  1  0.91656674  -0.11228076  -0.46163487  1
  Ga  Ga10  1  0.57218799  -0.61770359  -0.96701643  1
  Ga  Ga11  1  0.41741934  -0.36747716  -0.46294029  1
  Cu  Cu12  1  0.04961307  -0.36924507  -0.96042251  1
  Cu  Cu13  1  0.56703520  -0.12608797  -0.95936451  1
  Cu  Cu14  1  0.93696475  -0.61377655  -0.47824262  1
  Cu  Cu15  1  0.43427634  -0.86267219  -0.47078275  1
