# generated using pymatgen
data_GaCuO2
_symmetry_space_group_name_H-M   'P 1'
_cell_length_a   5.55789635
_cell_length_b   6.73317938
_cell_length_c   5.32729844
_cell_angle_alpha   90.46310564
_cell_angle_beta   89.52337877
_cell_angle_gamma   89.83527909
_symmetry_Int_Tables_number   1
_chemical_formula_structural   GaCuO2
_chemical_formula_sum   'Ga4 Cu4 O8'
_cell_volume   199.34555765
_cell_formula_units_Z   4
loop_
 _symmetry_equiv_pos_site_id
 _symmetry_equiv_pos_as_xyz
  1  'x, y, z'
loop_
 _atom_site_type_symbol
 _atom_site_label
 _atom_site_symmetry_multiplicity
 _atom_site_fract_x
 _atom_site_fract_y
 _atom_site_fract_z
 _atom_site_occupancy
  O  O0  1  0.93961607  -0.09389643  -0.09923249  1
  O  O1  1  0.05187102  -0.89281149  -0.59949548  1
  O  O2  1  0.89681955  -0.63961771  -0.03981381  1
  O  O3  1  0.39901033  -0.83975313  -0.00380585  1
  O  O4  1  0.09354755  -0.34257007  -0.55215297  1
  O  O5  1  0.59027208  -0.14080218  -0.49700521  1
  O  O6  1  0.44245211  -0.38915529  -0.95470285  1
  O  O7  1  0.55492969  -0.59386171  -0.45760997  1
  Ga  Ga8  1  0.06671529  -0.86602353  -0.95456358  1
  Ga  Ga9  1  0.92202946  -0.11811819  -0.45030659  1
  Ga  Ga10  1  0.56918324  -0.61664861  -0.10739556  1
  Ga  Ga11  1  0.42702119  -0.36657942  -0.60285971  1
  Cu  Cu12  1  0.02880773  -0.36907575  -0.99762944  1
  Cu  Cu13  1  0.51888785  -0.11318371  -0.05305780  1
  Cu  Cu14  1  0.97504488  -0.61380715  -0.51642926  1
  Cu  Cu15  1  0.45717569  -0.87059435  -0.56315070  1
