# generated using pymatgen
data_GaCuO2
_symmetry_space_group_name_H-M   'P 1'
_cell_length_a   5.54092168
_cell_length_b   6.71159550
_cell_length_c   5.32733669
_cell_angle_alpha   90.62738687
_cell_angle_beta   89.47626139
_cell_angle_gamma   90.59739383
_symmetry_Int_Tables_number   1
_chemical_formula_structural   GaCuO2
_chemical_formula_sum   'Ga4 Cu4 O8'
_cell_volume   198.08454369
_cell_formula_units_Z   4
loop_
 _symmetry_equiv_pos_site_id
 _symmetry_equiv_pos_as_xyz
  1  'x, y, z'
loop_
 _atom_site_type_symbol
 _atom_site_label
 _atom_site_symmetry_multiplicity
 _atom_site_fract_x
 _atom_site_fract_y
 _atom_site_fract_z
 _atom_site_occupancy
  O  O0  1  0.93170746  -0.09401331  -0.97753180  1
  O  O1  1  0.06980837  -0.88741467  -0.45648110  1
  O  O2  1  0.89986170  -0.64022498  -0.00340382  1
  O  O3  1  0.39942979  -0.83101587  -0.99711075  1
  O  O4  1  0.09232173  -0.35729646  -0.50800204  1
  O  O5  1  0.59114271  -0.13948597  -0.48663487  1
  O  O6  1  0.44081100  -0.38428779  -0.94735469  1
  O  O7  1  0.55577160  -0.59286912  -0.45204339  1
  Ga  Ga8  1  0.07992890  -0.86503256  -0.10032981  1
  Ga  Ga9  1  0.92040921  -0.12602827  -0.54552452  1
  Ga  Ga10  1  0.57778536  -0.60689439  -0.10241646  1
  Ga  Ga11  1  0.41866852  -0.36780383  -0.59528437  1
  Cu  Cu12  1  0.03353662  -0.36639701  -0.03483652  1
  Cu  Cu13  1  0.55363447  -0.10215211  -0.03845862  1
  Cu  Cu14  1  0.91619969  -0.63354243  -0.60055111  1
  Cu  Cu15  1  0.45236658  -0.87203993  -0.60324740  1
