# generated using pymatgen
data_GaCuO2
_symmetry_space_group_name_H-M   'P 1'
_cell_length_a   5.55157387
_cell_length_b   6.73736978
_cell_length_c   5.32745825
_cell_angle_alpha   91.13288227
_cell_angle_beta   89.34877236
_cell_angle_gamma   90.63624915
_symmetry_Int_Tables_number   1
_chemical_formula_structural   GaCuO2
_chemical_formula_sum   'Ga4 Cu4 O8'
_cell_volume   199.19933816
_cell_formula_units_Z   4
loop_
 _symmetry_equiv_pos_site_id
 _symmetry_equiv_pos_as_xyz
  1  'x, y, z'
loop_
 _atom_site_type_symbol
 _atom_site_label
 _atom_site_symmetry_multiplicity
 _atom_site_fract_x
 _atom_site_fract_y
 _atom_site_fract_z
 _atom_site_occupancy
  O  O0  1  0.93036870  -0.09897109  -0.07462800  1
  O  O1  1  0.07606878  -0.88539591  -0.47086309  1
  O  O2  1  0.89925736  -0.63943778  -0.00074821  1
  O  O3  1  0.40065907  -0.82796520  -0.99715631  1
  O  O4  1  0.08688436  -0.35754816  -0.54243265  1
  O  O5  1  0.58913214  -0.13907757  -0.49268418  1
  O  O6  1  0.44567504  -0.38354108  -0.94749037  1
  O  O7  1  0.55377042  -0.59082589  -0.45216765  1
  Ga  Ga8  1  0.08684556  -0.85219656  -0.11127915  1
  Ga  Ga9  1  0.91857502  -0.13538996  -0.44205988  1
  Ga  Ga10  1  0.58046948  -0.60591376  -0.10382439  1
  Ga  Ga11  1  0.41867076  -0.36641552  -0.59409365  1
  Cu  Cu12  1  0.04068887  -0.36529289  -0.99952633  1
  Cu  Cu13  1  0.54091962  -0.10088950  -0.02589283  1
  Cu  Cu14  1  0.91201827  -0.64149029  -0.59358373  1
  Cu  Cu15  1  0.45338029  -0.87614755  -0.60078087  1
