# generated using pymatgen
data_GaCuO2
_symmetry_space_group_name_H-M   'P 1'
_cell_length_a   5.57986966
_cell_length_b   6.75786407
_cell_length_c   5.32724061
_cell_angle_alpha   90.63142977
_cell_angle_beta   89.60515809
_cell_angle_gamma   89.80000677
_symmetry_Int_Tables_number   1
_chemical_formula_structural   GaCuO2
_chemical_formula_sum   'Ga4 Cu4 O8'
_cell_volume   200.86134663
_cell_formula_units_Z   4
loop_
 _symmetry_equiv_pos_site_id
 _symmetry_equiv_pos_as_xyz
  1  'x, y, z'
loop_
 _atom_site_type_symbol
 _atom_site_label
 _atom_site_symmetry_multiplicity
 _atom_site_fract_x
 _atom_site_fract_y
 _atom_site_fract_z
 _atom_site_occupancy
  O  O0  1  0.92965670  -0.10010166  -0.09080397  1
  O  O1  1  0.06478941  -0.88874851  -0.54299653  1
  O  O2  1  0.88995434  -0.63768496  -0.01167430  1
  O  O3  1  0.40031062  -0.83782049  -0.00322127  1
  O  O4  1  0.09270580  -0.34406704  -0.55181486  1
  O  O5  1  0.58927299  -0.14105774  -0.50084220  1
  O  O6  1  0.44013657  -0.38887475  -0.95420375  1
  O  O7  1  0.55712426  -0.59348601  -0.45717049  1
  Ga  Ga8  1  0.07336471  -0.86142143  -0.02441304  1
  Ga  Ga9  1  0.91835556  -0.12114923  -0.45294289  1
  Ga  Ga10  1  0.57052882  -0.61357704  -0.10886498  1
  Ga  Ga11  1  0.42615497  -0.36757785  -0.60062198  1
  Cu  Cu12  1  0.03644247  -0.37008256  -0.99517207  1
  Cu  Cu13  1  0.52435325  -0.11307204  -0.04901362  1
  Cu  Cu14  1  0.97853107  -0.61535896  -0.53726157  1
  Cu  Cu15  1  0.44170219  -0.87241843  -0.56819376  1
