# generated using pymatgen
data_GaCuO2
_symmetry_space_group_name_H-M   'P 1'
_cell_length_a   5.54685700
_cell_length_b   6.72286224
_cell_length_c   5.32731627
_cell_angle_alpha   90.68765815
_cell_angle_beta   89.50086696
_cell_angle_gamma   90.56934797
_symmetry_Int_Tables_number   1
_chemical_formula_structural   GaCuO2
_chemical_formula_sum   'Ga4 Cu4 O8'
_cell_volume   198.62819875
_cell_formula_units_Z   4
loop_
 _symmetry_equiv_pos_site_id
 _symmetry_equiv_pos_as_xyz
  1  'x, y, z'
loop_
 _atom_site_type_symbol
 _atom_site_label
 _atom_site_symmetry_multiplicity
 _atom_site_fract_x
 _atom_site_fract_y
 _atom_site_fract_z
 _atom_site_occupancy
  O  O0  1  0.92977417  -0.09559078  -0.01328929  1
  O  O1  1  0.07175563  -0.88542806  -0.46103999  1
  O  O2  1  0.89995354  -0.63970842  -0.00297148  1
  O  O3  1  0.40002678  -0.83026360  -0.99695760  1
  O  O4  1  0.09268350  -0.35896827  -0.51252689  1
  O  O5  1  0.58912890  -0.13922729  -0.48873410  1
  O  O6  1  0.44073288  -0.38439094  -0.94772470  1
  O  O7  1  0.55596177  -0.59245066  -0.45202130  1
  Ga  Ga8  1  0.08189233  -0.86192972  -0.10146539  1
  Ga  Ga9  1  0.91961798  -0.12913227  -0.50408030  1
  Ga  Ga10  1  0.57811565  -0.60667309  -0.10237164  1
  Ga  Ga11  1  0.41926652  -0.36812494  -0.59620637  1
  Cu  Cu12  1  0.03325761  -0.36678376  -0.03063086  1
  Cu  Cu13  1  0.55324592  -0.10162509  -0.03535288  1
  Cu  Cu14  1  0.91558331  -0.63419725  -0.60042814  1
  Cu  Cu15  1  0.45238723  -0.87200456  -0.60341035  1
