# generated using pymatgen
data_GaCuO2
_symmetry_space_group_name_H-M   'P 1'
_cell_length_a   5.57908632
_cell_length_b   6.75952576
_cell_length_c   5.32721953
_cell_angle_alpha   89.30509474
_cell_angle_beta   89.63955469
_cell_angle_gamma   90.20855056
_symmetry_Int_Tables_number   1
_chemical_formula_structural   GaCuO2
_chemical_formula_sum   'Ga4 Cu4 O8'
_cell_volume   200.87984567
_cell_formula_units_Z   4
loop_
 _symmetry_equiv_pos_site_id
 _symmetry_equiv_pos_as_xyz
  1  'x, y, z'
loop_
 _atom_site_type_symbol
 _atom_site_label
 _atom_site_symmetry_multiplicity
 _atom_site_fract_x
 _atom_site_fract_y
 _atom_site_fract_z
 _atom_site_occupancy
  O  O0  1  0.93465344  -0.09345090  -0.09908107  1
  O  O1  1  0.05144442  -0.88876333  -0.60221325  1
  O  O2  1  0.90279929  -0.64108382  -0.05560568  1
  O  O3  1  0.39944188  -0.84447678  -0.00423586  1
  O  O4  1  0.09099295  -0.33757632  -0.55312053  1
  O  O5  1  0.60146288  -0.13760963  -0.54553627  1
  O  O6  1  0.42657598  -0.38864406  -0.01785413  1
  O  O7  1  0.56198232  -0.60023215  -0.46575413  1
  Ga  Ga8  1  0.06595375  -0.86766564  -0.95585106  1
  Ga  Ga9  1  0.92079634  -0.11333806  -0.44736190  1
  Ga  Ga10  1  0.57367300  -0.62155794  -0.10302405  1
  Ga  Ga11  1  0.41751684  -0.36085799  -0.52566420  1
  Cu  Cu12  1  0.05054529  -0.37256599  -0.98737672  1
  Cu  Cu13  1  0.51421578  -0.11577585  -0.01781435  1
  Cu  Cu14  1  0.96638743  -0.61300643  -0.50811159  1
  Cu  Cu15  1  0.45494214  -0.86989381  -0.56060647  1
