# generated using pymatgen
data_Al35BN36
_symmetry_space_group_name_H-M   'P 1'
_cell_length_a   9.83963412
_cell_length_b   9.83963561
_cell_length_c   8.50088622
_cell_angle_alpha   90.00000111
_cell_angle_beta   89.99999937
_cell_angle_gamma   60.00001351
_symmetry_Int_Tables_number   1
_chemical_formula_structural   Al35BN36
_chemical_formula_sum   'Al35 B1 N36'
_cell_volume   712.77565717
_cell_formula_units_Z   1
loop_
 _symmetry_equiv_pos_site_id
 _symmetry_equiv_pos_as_xyz
  1  'x, y, z'
loop_
 _atom_site_type_symbol
 _atom_site_label
 _atom_site_symmetry_multiplicity
 _atom_site_fract_x
 _atom_site_fract_y
 _atom_site_fract_z
 _atom_site_occupancy
  Al  Al0  1  0.10681253  0.09270986  0.35768343  1
  Al  Al1  1  0.22216490  0.20567027  0.10964978  1
  Al  Al2  1  0.77777778  0.09444444  0.85824895  1
  Al  Al3  1  0.88890762  0.20557433  0.60854303  1
  Al  Al4  1  0.45047760  0.09270986  0.35768344  1
  Al  Al5  1  0.56569054  0.20048807  0.11696433  1
  Al  Al6  1  0.10907725  0.09586508  0.85910264  1
  Al  Al7  1  0.22261433  0.20477140  0.60439895  1
  Al  Al8  1  0.88382141  0.20048811  0.11696432  1
  Al  Al9  1  0.44505769  0.09586505  0.85910264  1
  Al  Al10  1  0.55551809  0.20557432  0.60854304  1
  Al  Al11  1  0.11111113  0.42777778  0.35651673  1
  Al  Al12  1  0.22216492  0.53883160  0.10964977  1
  Al  Al13  1  0.77919842  0.42574391  0.85910264  1
  Al  Al14  1  0.88810471  0.53928102  0.60439896  1
  Al  Al15  1  0.45047764  0.42347916  0.35768344  1
  Al  Al16  1  0.55600750  0.53798506  0.10797821  1
  Al  Al17  1  0.11111112  0.42777777  0.85671344  1
  Al  Al18  1  0.22261434  0.53928103  0.60439895  1
  Al  Al19  1  0.77604319  0.42347920  0.35768343  1
  Al  Al20  1  0.88900358  0.53883159  0.10964978  1
  Al  Al21  1  0.44505769  0.42574389  0.85910265  1
  Al  Al22  1  0.55563923  0.53872159  0.60668458  1
  Al  Al23  1  0.10681249  0.76714430  0.35768343  1
  Al  Al24  1  0.22131836  0.87267420  0.10797822  1
  Al  Al25  1  0.77919839  0.76172434  0.85910265  1
  Al  Al26  1  0.88890762  0.87218477  0.60854305  1
  Al  Al27  1  0.44444443  0.76111110  0.35652769  1
  Al  Al28  1  0.55600747  0.87267417  0.10797822  1
  Al  Al29  1  0.10907724  0.76172434  0.85910266  1
  Al  Al30  1  0.22205488  0.87230594  0.60668457  1
  Al  Al31  1  0.77604320  0.76714426  0.35768344  1
  Al  Al32  1  0.88382137  0.88235724  0.11696432  1
  Al  Al33  1  0.44444443  0.76111110  0.85716572  1
  Al  Al34  1  0.55563922  0.87230592  0.60668456  1
  B  B35  1  0.77777778  0.09444445  0.40048815  1
  N  N36  1  0.22249504  0.20500998  0.35114182  1
  N  N37  1  0.10707928  0.09660314  0.10452850  1
  N  N38  1  0.88910408  0.20577077  0.84143095  1
  N  N39  1  0.77777778  0.09444444  0.58859303  1
  N  N40  1  0.58552370  0.19057151  0.35361851  1
  N  N41  1  0.44631763  0.09660308  0.10452849  1
  N  N42  1  0.22291081  0.20417843  0.85204988  1
  N  N43  1  0.11094032  0.09442816  0.59697051  1
  N  N44  1  0.87390481  0.19057150  0.35361851  1
  N  N45  1  0.77777778  0.09444446  0.07759820  1
  N  N46  1  0.55512516  0.20577076  0.84143095  1
  N  N47  1  0.44463156  0.09442814  0.59697052  1
  N  N48  1  0.22249505  0.53916172  0.35114182  1
  N  N49  1  0.11111114  0.42777779  0.10132574  1
  N  N50  1  0.88751174  0.53957749  0.85204989  1
  N  N51  1  0.77776149  0.42760699  0.59697052  1
  N  N52  1  0.55493377  0.54013248  0.35043709  1
  N  N53  1  0.44631766  0.42374593  0.10452847  1
  N  N54  1  0.22291080  0.53957748  0.85204989  1
  N  N55  1  0.11111114  0.42777780  0.60233963  1
  N  N56  1  0.88834330  0.53916172  0.35114182  1
  N  N57  1  0.77993646  0.42374595  0.10452849  1
  N  N58  1  0.55634428  0.53731148  0.85234391  1
  N  N59  1  0.44463159  0.42760697  0.59697053  1
  N  N60  1  0.22346578  0.87160046  0.35043709  1
  N  N61  1  0.10707927  0.76298431  0.10452849  1
  N  N62  1  0.88910407  0.87179185  0.84143098  1
  N  N63  1  0.77776147  0.76129822  0.59697052  1
  N  N64  1  0.55493375  0.87160045  0.35043710  1
  N  N65  1  0.44444444  0.76111111  0.10013993  1
  N  N66  1  0.22064478  0.87301097  0.85234392  1
  N  N67  1  0.11094031  0.76129824  0.59697053  1
  N  N68  1  0.87390482  0.90219039  0.35361851  1
  N  N69  1  0.77993641  0.76298429  0.10452850  1
  N  N70  1  0.55634425  0.87301094  0.85234391  1
  N  N71  1  0.44444444  0.76111112  0.60328786  1
