# generated using pymatgen
data_Al35BN36
_symmetry_space_group_name_H-M   'P 1'
_cell_length_a   9.34320312
_cell_length_b   9.34320354
_cell_length_c   9.98341607
_cell_angle_alpha   89.99999252
_cell_angle_beta   89.99999736
_cell_angle_gamma   60.00000135
_symmetry_Int_Tables_number   1
_chemical_formula_structural   Al35BN36
_chemical_formula_sum   'Al35 B1 N36'
_cell_volume   754.74702382
_cell_formula_units_Z   1
loop_
 _symmetry_equiv_pos_site_id
 _symmetry_equiv_pos_as_xyz
  1  'x, y, z'
loop_
 _atom_site_type_symbol
 _atom_site_label
 _atom_site_symmetry_multiplicity
 _atom_site_fract_x
 _atom_site_fract_y
 _atom_site_fract_z
 _atom_site_occupancy
  Al  Al0  1  0.10765869  0.09273728  0.40644935  1
  Al  Al1  1  0.22212269  0.20575428  0.15645155  1
  Al  Al2  1  0.77777762  0.09444437  0.90443870  1
  Al  Al3  1  0.88765781  0.20432411  0.64976042  1
  Al  Al4  1  0.44960397  0.09273684  0.40644948  1
  Al  Al5  1  0.56115172  0.20275730  0.16044157  1
  Al  Al6  1  0.10934139  0.09520009  0.90610508  1
  Al  Al7  1  0.22239647  0.20520692  0.65622234  1
  Al  Al8  1  0.88609103  0.20275700  0.16044157  1
  Al  Al9  1  0.44545820  0.09520019  0.90610514  1
  Al  Al10  1  0.55801818  0.20432433  0.64976044  1
  Al  Al11  1  0.11111152  0.42777758  0.40703607  1
  Al  Al12  1  0.22212298  0.53879000  0.15645147  1
  Al  Al13  1  0.77853418  0.42600744  0.90610515  1
  Al  Al14  1  0.88854024  0.53906326  0.65622246  1
  Al  Al15  1  0.44960407  0.42432613  0.40644940  1
  Al  Al16  1  0.55569818  0.53860413  0.15619453  1
  Al  Al17  1  0.11111153  0.42777759  0.90635008  1
  Al  Al18  1  0.22239664  0.53906354  0.65622238  1
  Al  Al19  1  0.77606963  0.42432642  0.40644936  1
  Al  Al20  1  0.88908723  0.53878973  0.15645146  1
  Al  Al21  1  0.44545822  0.42600772  0.90610518  1
  Al  Al22  1  0.55557639  0.53884781  0.65681033  1
  Al  Al23  1  0.10765904  0.76627041  0.40644945  1
  Al  Al24  1  0.22193760  0.87236443  0.15619471  1
  Al  Al25  1  0.77853393  0.76212506  0.90610507  1
  Al  Al26  1  0.88765761  0.87468533  0.64976035  1
  Al  Al27  1  0.44444371  0.76111192  0.40664285  1
  Al  Al28  1  0.55569825  0.87236418  0.15619465  1
  Al  Al29  1  0.10934105  0.76212524  0.90610505  1
  Al  Al30  1  0.22218121  0.87224265  0.65681001  1
  Al  Al31  1  0.77606994  0.76627022  0.40644953  1
  Al  Al32  1  0.88609094  0.87781850  0.16044175  1
  Al  Al33  1  0.44444424  0.76111137  0.90644078  1
  Al  Al34  1  0.55557649  0.87224240  0.65681020  1
  B  B35  1  0.77777755  0.09444463  0.41008842  1
  N  N36  1  0.22251985  0.20496034  0.34772030  1
  N  N37  1  0.10870957  0.09572849  0.09857697  1
  N  N38  1  0.88802035  0.20468659  0.84226530  1
  N  N39  1  0.77777769  0.09444469  0.57541330  1
  N  N40  1  0.58058031  0.19304326  0.35433431  1
  N  N41  1  0.44556181  0.09572853  0.09857707  1
  N  N42  1  0.22243314  0.20513355  0.84770795  1
  N  N43  1  0.11160632  0.09395908  0.59665049  1
  N  N44  1  0.87637608  0.19304345  0.35433417  1
  N  N45  1  0.77777773  0.09444438  0.09322986  1
  N  N46  1  0.55729284  0.20468679  0.84226540  1
  N  N47  1  0.44443475  0.09395901  0.59665074  1
  N  N48  1  0.22251997  0.53918650  0.34772025  1
  N  N49  1  0.11111113  0.42777800  0.09716270  1
  N  N50  1  0.88846721  0.53909974  0.84770810  1
  N  N51  1  0.77729259  0.42827292  0.59665052  1
  N  N52  1  0.55525172  0.53949642  0.34662201  1
  N  N53  1  0.44556197  0.42537607  0.09857706  1
  N  N54  1  0.22243315  0.53910005  0.84770801  1
  N  N55  1  0.11111125  0.42777791  0.59777463  1
  N  N56  1  0.88829385  0.53918634  0.34772031  1
  N  N57  1  0.77906228  0.42537580  0.09857698  1
  N  N58  1  0.55574155  0.53851706  0.84794179  1
  N  N59  1  0.44443473  0.42827306  0.59665065  1
  N  N60  1  0.22282850  0.87191912  0.34662213  1
  N  N61  1  0.10870944  0.76222878  0.09857693  1
  N  N62  1  0.88802020  0.87395976  0.84226529  1
  N  N63  1  0.77729268  0.76110134  0.59665073  1
  N  N64  1  0.55525201  0.87191890  0.34662212  1
  N  N65  1  0.44444448  0.76111113  0.09705798  1
  N  N66  1  0.22185045  0.87240804  0.84794139  1
  N  N67  1  0.11160621  0.76110143  0.59665060  1
  N  N68  1  0.87637618  0.89724707  0.35433433  1
  N  N69  1  0.77906218  0.76222861  0.09857695  1
  N  N70  1  0.55574158  0.87240795  0.84794162  1
  N  N71  1  0.44444451  0.76111117  0.59778645  1
