# generated using pymatgen
data_Al35BN36
_symmetry_space_group_name_H-M   'P 1'
_cell_length_a   9.34320954
_cell_length_b   9.34321011
_cell_length_c   9.98340787
_cell_angle_alpha   90.00000862
_cell_angle_beta   90.00000323
_cell_angle_gamma   60.00000280
_symmetry_Int_Tables_number   1
_chemical_formula_structural   Al35BN36
_chemical_formula_sum   'Al35 B1 N36'
_cell_volume   754.74746444
_cell_formula_units_Z   1
loop_
 _symmetry_equiv_pos_site_id
 _symmetry_equiv_pos_as_xyz
  1  'x, y, z'
loop_
 _atom_site_type_symbol
 _atom_site_label
 _atom_site_symmetry_multiplicity
 _atom_site_fract_x
 _atom_site_fract_y
 _atom_site_fract_z
 _atom_site_occupancy
  Al  Al0  1  0.10765882  0.09273698  0.29663214  1
  Al  Al1  1  0.22239674  0.20520639  0.04686092  1
  Al  Al2  1  0.77777753  0.09444435  0.79863700  1
  Al  Al3  1  0.88609087  0.20275681  0.54263388  1
  Al  Al4  1  0.44960419  0.09273652  0.29663209  1
  Al  Al5  1  0.55801773  0.20432452  0.05331441  1
  Al  Al6  1  0.10934161  0.09520029  0.79697586  1
  Al  Al7  1  0.22212256  0.20575452  0.54663086  1
  Al  Al8  1  0.88765802  0.20432433  0.05331437  1
  Al  Al9  1  0.44545767  0.09520034  0.79697580  1
  Al  Al10  1  0.56115204  0.20275706  0.54263392  1
  Al  Al11  1  0.11111156  0.42777758  0.29604554  1
  Al  Al12  1  0.22239693  0.53906377  0.04686089  1
  Al  Al13  1  0.77853434  0.42600771  0.79697583  1
  Al  Al14  1  0.88908750  0.53878956  0.54663095  1
  Al  Al15  1  0.44960429  0.42432628  0.29663218  1
  Al  Al16  1  0.55557648  0.53884759  0.04627159  1
  Al  Al17  1  0.11111152  0.42777754  0.79673390  1
  Al  Al18  1  0.22212285  0.53878983  0.54663095  1
  Al  Al19  1  0.77606932  0.42432657  0.29663215  1
  Al  Al20  1  0.88853973  0.53906350  0.04686079  1
  Al  Al21  1  0.44545770  0.42600795  0.79697577  1
  Al  Al22  1  0.55569810  0.53860429  0.54688921  1
  Al  Al23  1  0.10765919  0.76627062  0.29663213  1
  Al  Al24  1  0.22218106  0.87224269  0.04627190  1
  Al  Al25  1  0.77853408  0.76212452  0.79697593  1
  Al  Al26  1  0.88609073  0.87781880  0.54263379  1
  Al  Al27  1  0.44444373  0.76111192  0.29644028  1
  Al  Al28  1  0.55557657  0.87224244  0.04627176  1
  Al  Al29  1  0.10934127  0.76212472  0.79697592  1
  Al  Al30  1  0.22193781  0.87236431  0.54688905  1
  Al  Al31  1  0.77606964  0.76627044  0.29663204  1
  Al  Al32  1  0.88765782  0.87468488  0.05331448  1
  Al  Al33  1  0.44444422  0.76111131  0.79664328  1
  Al  Al34  1  0.55569813  0.87236401  0.54688910  1
  B  B35  1  0.77777756  0.09444466  0.29298510  1
  N  N36  1  0.22251977  0.20496052  0.35536070  1
  N  N37  1  0.11160555  0.09395930  0.10642976  1
  N  N38  1  0.88802000  0.20468626  0.86081091  1
  N  N39  1  0.77777771  0.09444437  0.60984579  1
  N  N40  1  0.58058088  0.19304302  0.34874182  1
  N  N41  1  0.44443525  0.09395922  0.10642964  1
  N  N42  1  0.22243330  0.20513316  0.85537407  1
  N  N43  1  0.10870870  0.09572909  0.60450312  1
  N  N44  1  0.87637581  0.19304323  0.34874186  1
  N  N45  1  0.77777771  0.09444470  0.12766034  1
  N  N46  1  0.55729332  0.20468645  0.86081087  1
  N  N47  1  0.44556207  0.09572904  0.60450301  1
  N  N48  1  0.22251991  0.53918644  0.35536079  1
  N  N49  1  0.11111125  0.42777790  0.10530641  1
  N  N50  1  0.88846684  0.53909989  0.85537394  1
  N  N51  1  0.77906292  0.42537488  0.60450307  1
  N  N52  1  0.55525188  0.53949620  0.35646010  1
  N  N53  1  0.44443526  0.42827225  0.10642971  1
  N  N54  1  0.22243330  0.53910021  0.85537406  1
  N  N55  1  0.11111113  0.42777796  0.60592015  1
  N  N56  1  0.88829406  0.53918626  0.35536074  1
  N  N57  1  0.77729286  0.42827213  0.10642973  1
  N  N58  1  0.55574176  0.53851646  0.85513922  1
  N  N59  1  0.44556227  0.42537513  0.60450298  1
  N  N60  1  0.22282831  0.87191928  0.35645999  1
  N  N61  1  0.11160545  0.76110193  0.10642977  1
  N  N62  1  0.88801985  0.87396028  0.86081099  1
  N  N63  1  0.77906275  0.76222882  0.60450314  1
  N  N64  1  0.55525213  0.87191900  0.35646004  1
  N  N65  1  0.44444451  0.76111110  0.10529513  1
  N  N66  1  0.22184986  0.87240827  0.85513955  1
  N  N67  1  0.10870850  0.76222904  0.60450316  1
  N  N68  1  0.87637597  0.89724761  0.34874181  1
  N  N69  1  0.77729296  0.76110180  0.10642966  1
  N  N70  1  0.55574182  0.87240818  0.85513944  1
  N  N71  1  0.44444447  0.76111107  0.60602535  1
