# generated using pymatgen
data_Al35BN36
_symmetry_space_group_name_H-M   'P 1'
_cell_length_a   9.78132796
_cell_length_b   9.78132232
_cell_length_c   8.68375629
_cell_angle_alpha   90.00000083
_cell_angle_beta   89.99999778
_cell_angle_gamma   60.00000819
_symmetry_Int_Tables_number   1
_chemical_formula_structural   Al35BN36
_chemical_formula_sum   'Al35 B1 N36'
_cell_volume   719.50478230
_cell_formula_units_Z   1
loop_
 _symmetry_equiv_pos_site_id
 _symmetry_equiv_pos_as_xyz
  1  'x, y, z'
loop_
 _atom_site_type_symbol
 _atom_site_label
 _atom_site_symmetry_multiplicity
 _atom_site_fract_x
 _atom_site_fract_y
 _atom_site_fract_z
 _atom_site_occupancy
  Al  Al0  1  0.10760862  0.09246054  0.34611419  1
  Al  Al1  1  0.22284879  0.20430246  0.09746451  1
  Al  Al2  1  0.77777778  0.09444446  0.84646392  1
  Al  Al3  1  0.88379466  0.20046135  0.58491937  1
  Al  Al4  1  0.44993081  0.09246056  0.34611418  1
  Al  Al5  1  0.55552483  0.20557092  0.09820595  1
  Al  Al6  1  0.10827102  0.09613699  0.84310973  1
  Al  Al7  1  0.22193281  0.20613446  0.59371306  1
  Al  Al8  1  0.88890431  0.20557094  0.09820595  1
  Al  Al9  1  0.44559204  0.09613698  0.84310973  1
  Al  Al10  1  0.56574409  0.20046131  0.58491935  1
  Al  Al11  1  0.11111112  0.42777779  0.34489478  1
  Al  Al12  1  0.22284878  0.53951544  0.09746450  1
  Al  Al13  1  0.77947028  0.42493773  0.84310975  1
  Al  Al14  1  0.88946784  0.53859944  0.59371305  1
  Al  Al15  1  0.44993084  0.42427530  0.34611418  1
  Al  Al16  1  0.55590504  0.53818994  0.09487852  1
  Al  Al17  1  0.11111111  0.42777778  0.84662777  1
  Al  Al18  1  0.22193281  0.53859944  0.59371306  1
  Al  Al19  1  0.77579381  0.42427534  0.34611418  1
  Al  Al20  1  0.88763584  0.53951543  0.09746449  1
  Al  Al21  1  0.44559201  0.42493769  0.84310974  1
  Al  Al22  1  0.55576016  0.53847971  0.59534924  1
  Al  Al23  1  0.10760859  0.76659753  0.34611418  1
  Al  Al24  1  0.22152324  0.87257173  0.09487851  1
  Al  Al25  1  0.77947026  0.76225873  0.84310974  1
  Al  Al26  1  0.88379465  0.88241071  0.58491937  1
  Al  Al27  1  0.44444439  0.76111116  0.34460660  1
  Al  Al28  1  0.55590505  0.87257172  0.09487853  1
  Al  Al29  1  0.10827099  0.76225871  0.84310974  1
  Al  Al30  1  0.22181302  0.87242683  0.59534925  1
  Al  Al31  1  0.77579385  0.76659750  0.34611416  1
  Al  Al32  1  0.88890430  0.87219142  0.09820591  1
  Al  Al33  1  0.44444440  0.76111116  0.84612699  1
  Al  Al34  1  0.55576018  0.87242682  0.59534923  1
  B  B35  1  0.77777782  0.09444442  0.30949063  1
  N  N36  1  0.22240161  0.20519685  0.36448612  1
  N  N37  1  0.11123342  0.09416312  0.11858508  1
  N  N38  1  0.88863832  0.20530495  0.87413342  1
  N  N39  1  0.77777775  0.09444453  0.63270380  1
  N  N40  1  0.58448133  0.19109268  0.35928157  1
  N  N41  1  0.44460345  0.09416311  0.11858507  1
  N  N42  1  0.22303171  0.20393669  0.86385418  1
  N  N43  1  0.10674311  0.09683122  0.61080669  1
  N  N44  1  0.87442604  0.19109270  0.35928157  1
  N  N45  1  0.77777774  0.09444451  0.12843024  1
  N  N46  1  0.55605685  0.20530491  0.87413341  1
  N  N47  1  0.44642568  0.09683118  0.61080669  1
  N  N48  1  0.22240162  0.53906819  0.36448611  1
  N  N49  1  0.11111109  0.42777781  0.11309929  1
  N  N50  1  0.88727011  0.53969827  0.86385419  1
  N  N51  1  0.78016443  0.42340989  0.61080670  1
  N  N52  1  0.55480702  0.54038600  0.36607802  1
  N  N53  1  0.44460348  0.42790016  0.11858505  1
  N  N54  1  0.22303170  0.53969825  0.86385420  1
  N  N55  1  0.11111109  0.42777781  0.61532133  1
  N  N56  1  0.88853028  0.53906818  0.36448612  1
  N  N57  1  0.77749631  0.42790020  0.11858505  1
  N  N58  1  0.55647920  0.53704166  0.86300755  1
  N  N59  1  0.44642569  0.42340987  0.61080670  1
  N  N60  1  0.22371936  0.87147365  0.36607804  1
  N  N61  1  0.11123343  0.76127019  0.11858507  1
  N  N62  1  0.88863830  0.87272344  0.87413340  1
  N  N63  1  0.78016441  0.76309241  0.61080672  1
  N  N64  1  0.55480703  0.87147364  0.36607802  1
  N  N65  1  0.44444439  0.76111115  0.11219097  1
  N  N66  1  0.22037503  0.87314583  0.86300755  1
  N  N67  1  0.10674312  0.76309241  0.61080671  1
  N  N68  1  0.87442605  0.90114795  0.35928158  1
  N  N69  1  0.77749633  0.76127019  0.11858505  1
  N  N70  1  0.55647919  0.87314581  0.86300758  1
  N  N71  1  0.44444439  0.76111117  0.61659066  1
