# generated using pymatgen
data_Al35BN36
_symmetry_space_group_name_H-M   'P 1'
_cell_length_a   9.34332978
_cell_length_b   9.34332835
_cell_length_c   9.98313330
_cell_angle_alpha   90.00006400
_cell_angle_beta   90.00001001
_cell_angle_gamma   60.00024400
_symmetry_Int_Tables_number   1
_chemical_formula_structural   Al35BN36
_chemical_formula_sum   'Al35 B1 N36'
_cell_volume   754.74780527
_cell_formula_units_Z   1
loop_
 _symmetry_equiv_pos_site_id
 _symmetry_equiv_pos_as_xyz
  1  'x, y, z'
loop_
 _atom_site_type_symbol
 _atom_site_label
 _atom_site_symmetry_multiplicity
 _atom_site_fract_x
 _atom_site_fract_y
 _atom_site_fract_z
 _atom_site_occupancy
  Al  Al0  1  0.10765957  0.09273665  0.31857426  1
  Al  Al1  1  0.22239694  0.20520623  0.06880146  1
  Al  Al2  1  0.77777772  0.09444429  0.82058451  1
  Al  Al3  1  0.88608989  0.20275598  0.56457756  1
  Al  Al4  1  0.44960394  0.09273607  0.31857416  1
  Al  Al5  1  0.55801625  0.20432527  0.07526189  1
  Al  Al6  1  0.10934063  0.09520063  0.81891700  1
  Al  Al7  1  0.22212247  0.20575470  0.56857203  1
  Al  Al8  1  0.88765900  0.20432521  0.07526180  1
  Al  Al9  1  0.44545858  0.09520061  0.81891701  1
  Al  Al10  1  0.56115380  0.20275611  0.56457761  1
  Al  Al11  1  0.11111161  0.42777756  0.31798755  1
  Al  Al12  1  0.22239706  0.53906375  0.06880147  1
  Al  Al13  1  0.77853486  0.42600655  0.81891695  1
  Al  Al14  1  0.88908762  0.53878955  0.56857213  1
  Al  Al15  1  0.44960392  0.42432681  0.31857428  1
  Al  Al16  1  0.55557663  0.53884730  0.06821256  1
  Al  Al17  1  0.11111165  0.42777749  0.81867457  1
  Al  Al18  1  0.22212272  0.53878979  0.56857211  1
  Al  Al19  1  0.77606898  0.42432732  0.31857425  1
  Al  Al20  1  0.88853970  0.53906355  0.06880135  1
  Al  Al21  1  0.44545859  0.42600669  0.81891694  1
  Al  Al22  1  0.55569801  0.53860427  0.56882956  1
  Al  Al23  1  0.10765974  0.76627017  0.31857423  1
  Al  Al24  1  0.22218076  0.87224281  0.06821289  1
  Al  Al25  1  0.77853454  0.76212522  0.81891713  1
  Al  Al26  1  0.88608968  0.87782061  0.56457745  1
  Al  Al27  1  0.44444357  0.76111184  0.31838020  1
  Al  Al28  1  0.55557667  0.87224247  0.06821268  1
  Al  Al29  1  0.10934020  0.76212538  0.81891711  1
  Al  Al30  1  0.22193756  0.87236438  0.56882940  1
  Al  Al31  1  0.77606922  0.76627010  0.31857410  1
  Al  Al32  1  0.88765869  0.87468321  0.07526200  1
  Al  Al33  1  0.44444420  0.76111122  0.81858386  1
  Al  Al34  1  0.55569800  0.87236400  0.56882947  1
  B  B35  1  0.77777777  0.09444487  0.31492259  1
  N  N36  1  0.22251997  0.20496085  0.37729920  1
  N  N37  1  0.11160655  0.09395867  0.12836901  1
  N  N38  1  0.88802071  0.20468682  0.88275386  1
  N  N39  1  0.77777744  0.09444425  0.63178899  1
  N  N40  1  0.58058147  0.19304292  0.37068061  1
  N  N41  1  0.44443455  0.09395846  0.12836880  1
  N  N42  1  0.22243381  0.20513299  0.87731127  1
  N  N43  1  0.10870772  0.09572918  0.62644080  1
  N  N44  1  0.87637579  0.19304323  0.37068059  1
  N  N45  1  0.77777767  0.09444459  0.14960004  1
  N  N46  1  0.55729310  0.20468688  0.88275388  1
  N  N47  1  0.44556230  0.09572906  0.62644075  1
  N  N48  1  0.22252006  0.53918655  0.37729927  1
  N  N49  1  0.11111109  0.42777769  0.12724444  1
  N  N50  1  0.88846686  0.53910022  0.87731112  1
  N  N51  1  0.77906276  0.42537417  0.62644072  1
  N  N52  1  0.55525168  0.53949705  0.37839762  1
  N  N53  1  0.44443447  0.42827314  0.12836892  1
  N  N54  1  0.22243383  0.53910052  0.87731125  1
  N  N55  1  0.11111085  0.42777786  0.62785785  1
  N  N56  1  0.88829443  0.53918641  0.37729921  1
  N  N57  1  0.77729216  0.42827316  0.12836894  1
  N  N58  1  0.55574236  0.53851610  0.87707666  1
  N  N59  1  0.44556247  0.42537430  0.62644068  1
  N  N60  1  0.22282903  0.87191914  0.37839752  1
  N  N61  1  0.11160633  0.76110109  0.12836899  1
  N  N62  1  0.88802045  0.87395985  0.88275403  1
  N  N63  1  0.77906256  0.76222921  0.62644088  1
  N  N64  1  0.55525185  0.87191875  0.37839757  1
  N  N65  1  0.44444420  0.76111092  0.12723182  1
  N  N66  1  0.22184957  0.87240874  0.87707704  1
  N  N67  1  0.10870748  0.76222940  0.62644087  1
  N  N68  1  0.87637585  0.89724815  0.37068058  1
  N  N69  1  0.77729216  0.76110107  0.12836881  1
  N  N70  1  0.55574230  0.87240852  0.87707688  1
  N  N71  1  0.44444401  0.76111094  0.62796259  1
