# generated using pymatgen
data_Al35BN36
_symmetry_space_group_name_H-M   'P 1'
_cell_length_a   9.34737267
_cell_length_b   9.34737125
_cell_length_c   9.97289513
_cell_angle_alpha   90.00000742
_cell_angle_beta   90.00000190
_cell_angle_gamma   59.99999976
_symmetry_Int_Tables_number   1
_chemical_formula_structural   Al35BN36
_chemical_formula_sum   'Al35 B1 N36'
_cell_volume   754.62455404
_cell_formula_units_Z   1
loop_
 _symmetry_equiv_pos_site_id
 _symmetry_equiv_pos_as_xyz
  1  'x, y, z'
loop_
 _atom_site_type_symbol
 _atom_site_label
 _atom_site_symmetry_multiplicity
 _atom_site_fract_x
 _atom_site_fract_y
 _atom_site_fract_z
 _atom_site_occupancy
  Al  Al0  1  0.10766918  0.09273024  0.32413168  1
  Al  Al1  1  0.22240453  0.20519083  0.07434933  1
  Al  Al2  1  0.77777763  0.09444430  0.82611875  1
  Al  Al3  1  0.88606899  0.20273494  0.57005600  1
  Al  Al4  1  0.44960058  0.09272978  0.32413163  1
  Al  Al5  1  0.55798318  0.20434180  0.08079263  1
  Al  Al6  1  0.10932474  0.09521100  0.82443332  1
  Al  Al7  1  0.22211591  0.20576780  0.57411053  1
  Al  Al8  1  0.88767530  0.20434162  0.08079258  1
  Al  Al9  1  0.44546395  0.09521109  0.82443324  1
  Al  Al10  1  0.56119577  0.20273523  0.57005598  1
  Al  Al11  1  0.11111149  0.42777763  0.32351653  1
  Al  Al12  1  0.22240465  0.53907160  0.07434929  1
  Al  Al13  1  0.77854504  0.42599086  0.82443327  1
  Al  Al14  1  0.88910069  0.53878301  0.57411059  1
  Al  Al15  1  0.44960063  0.42433657  0.32413169  1
  Al  Al16  1  0.55558306  0.53883436  0.07374387  1
  Al  Al17  1  0.11111148  0.42777766  0.82424304  1
  Al  Al18  1  0.22211618  0.53878329  0.57411059  1
  Al  Al19  1  0.77606262  0.42433689  0.32413167  1
  Al  Al20  1  0.88852413  0.53907134  0.07434920  1
  Al  Al21  1  0.44546395  0.42599110  0.82443320  1
  Al  Al22  1  0.55569477  0.53861093  0.57438030  1
  Al  Al23  1  0.10766949  0.76626695  0.32413162  1
  Al  Al24  1  0.22216773  0.87224934  0.07374424  1
  Al  Al25  1  0.77854485  0.76213075  0.82443340  1
  Al  Al26  1  0.88606891  0.87786251  0.57005588  1
  Al  Al27  1  0.44444375  0.76111189  0.32390073  1
  Al  Al28  1  0.55558320  0.87224910  0.07374405  1
  Al  Al29  1  0.10932441  0.76213093  0.82443342  1
  Al  Al30  1  0.22194434  0.87236103  0.57438018  1
  Al  Al31  1  0.77606296  0.76626680  0.32413155  1
  Al  Al32  1  0.88767510  0.87465029  0.08079272  1
  Al  Al33  1  0.44444423  0.76111136  0.82415011  1
  Al  Al34  1  0.55569488  0.87236079  0.57438026  1
  B  B35  1  0.77777763  0.09444453  0.32022561  1
  N  N36  1  0.22251562  0.20496883  0.38267796  1
  N  N37  1  0.11160643  0.09395664  0.13376072  1
  N  N38  1  0.88801924  0.20468545  0.88814320  1
  N  N39  1  0.77777775  0.09444421  0.63719213  1
  N  N40  1  0.58060048  0.19303316  0.37602541  1
  N  N41  1  0.44443705  0.09395653  0.13376064  1
  N  N42  1  0.22244160  0.20511667  0.88268689  1
  N  N43  1  0.10868478  0.09574303  0.63179089  1
  N  N44  1  0.87636610  0.19303340  0.37602551  1
  N  N45  1  0.77777782  0.09444446  0.15492168  1
  N  N46  1  0.55729509  0.20468562  0.88814319  1
  N  N47  1  0.44557200  0.09574306  0.63179079  1
  N  N48  1  0.22251572  0.53918234  0.38267800  1
  N  N49  1  0.11111115  0.42777804  0.13260544  1
  N  N50  1  0.88845028  0.53910829  0.88268675  1
  N  N51  1  0.77907682  0.42535111  0.63179083  1
  N  N52  1  0.55524360  0.53951269  0.38378245  1
  N  N53  1  0.44443694  0.42827322  0.13376069  1
  N  N54  1  0.22244156  0.53910857  0.88268683  1
  N  N55  1  0.11111102  0.42777817  0.63325816  1
  N  N56  1  0.88830229  0.53918220  0.38267797  1
  N  N57  1  0.77729015  0.42827311  0.13376067  1
  N  N58  1  0.55575249  0.53849512  0.88243954  1
  N  N59  1  0.44557209  0.42535138  0.63179076  1
  N  N60  1  0.22284480  0.87191088  0.38378236  1
  N  N61  1  0.11160625  0.76110373  0.13376073  1
  N  N62  1  0.88801914  0.87396184  0.88814334  1
  N  N63  1  0.77907676  0.76223880  0.63179093  1
  N  N64  1  0.55524400  0.87191065  0.38378247  1
  N  N65  1  0.44444447  0.76111117  0.13258225  1
  N  N66  1  0.22182846  0.87241895  0.88243992  1
  N  N67  1  0.10868462  0.76223900  0.63179097  1
  N  N68  1  0.87636628  0.89726698  0.37602542  1
  N  N69  1  0.77729025  0.76110364  0.13376061  1
  N  N70  1  0.55575265  0.87241887  0.88243975  1
  N  N71  1  0.44444443  0.76111119  0.63336653  1
