# generated using pymatgen
data_Al35BN36
_symmetry_space_group_name_H-M   'P 1'
_cell_length_a   9.34321350
_cell_length_b   9.34321397
_cell_length_c   9.98340735
_cell_angle_alpha   90.00000791
_cell_angle_beta   90.00000271
_cell_angle_gamma   60.00000381
_symmetry_Int_Tables_number   1
_chemical_formula_structural   Al35BN36
_chemical_formula_sum   'Al35 B1 N36'
_cell_volume   754.74806423
_cell_formula_units_Z   1
loop_
 _symmetry_equiv_pos_site_id
 _symmetry_equiv_pos_as_xyz
  1  'x, y, z'
loop_
 _atom_site_type_symbol
 _atom_site_label
 _atom_site_symmetry_multiplicity
 _atom_site_fract_x
 _atom_site_fract_y
 _atom_site_fract_z
 _atom_site_occupancy
  Al  Al0  1  0.10765952  0.09273684  0.31508556  1
  Al  Al1  1  0.22239660  0.20520666  0.06531497  1
  Al  Al2  1  0.77777760  0.09444439  0.81708539  1
  Al  Al3  1  0.88609111  0.20275703  0.56108346  1
  Al  Al4  1  0.44960356  0.09273641  0.31508546  1
  Al  Al5  1  0.55801774  0.20432453  0.07176869  1
  Al  Al6  1  0.10934115  0.09520038  0.81543020  1
  Al  Al7  1  0.22212272  0.20575422  0.56508591  1
  Al  Al8  1  0.88765799  0.20432433  0.07176869  1
  Al  Al9  1  0.44545817  0.09520046  0.81543011  1
  Al  Al10  1  0.56115157  0.20275733  0.56108344  1
  Al  Al11  1  0.11111152  0.42777755  0.31450135  1
  Al  Al12  1  0.22239677  0.53906362  0.06531493  1
  Al  Al13  1  0.77853443  0.42600724  0.81543014  1
  Al  Al14  1  0.88908719  0.53878972  0.56508600  1
  Al  Al15  1  0.44960363  0.42432696  0.31508553  1
  Al  Al16  1  0.55557632  0.53884786  0.06472661  1
  Al  Al17  1  0.11111152  0.42777758  0.81518821  1
  Al  Al18  1  0.22212300  0.53878999  0.56508598  1
  Al  Al19  1  0.77606919  0.42432726  0.31508553  1
  Al  Al20  1  0.88854000  0.53906336  0.06531485  1
  Al  Al21  1  0.44545818  0.42600748  0.81543006  1
  Al  Al22  1  0.55569817  0.53860415  0.56534325  1
  Al  Al23  1  0.10765986  0.76626999  0.31508548  1
  Al  Al24  1  0.22218130  0.87224258  0.06472698  1
  Al  Al25  1  0.77853421  0.76212501  0.81543028  1
  Al  Al26  1  0.88609101  0.87781832  0.56108336  1
  Al  Al27  1  0.44444374  0.76111189  0.31489566  1
  Al  Al28  1  0.55557642  0.87224232  0.06472679  1
  Al  Al29  1  0.10934081  0.76212518  0.81543029  1
  Al  Al30  1  0.22193767  0.87236437  0.56534314  1
  Al  Al31  1  0.77606954  0.76626982  0.31508540  1
  Al  Al32  1  0.88765779  0.87468494  0.07176882  1
  Al  Al33  1  0.44444426  0.76111135  0.81509806  1
  Al  Al34  1  0.55569824  0.87236413  0.56534317  1
  B  B35  1  0.77777753  0.09444464  0.31143508  1
  N  N36  1  0.22251986  0.20496028  0.37381514  1
  N  N37  1  0.11160573  0.09395934  0.12488347  1
  N  N38  1  0.88801961  0.20468588  0.87926427  1
  N  N39  1  0.77777770  0.09444436  0.62829420  1
  N  N40  1  0.58058058  0.19304313  0.36719192  1
  N  N41  1  0.44443503  0.09395925  0.12488327  1
  N  N42  1  0.22243335  0.20513317  0.87382785  1
  N  N43  1  0.10870809  0.09572921  0.62295651  1
  N  N44  1  0.87637593  0.19304334  0.36719202  1
  N  N45  1  0.77777765  0.09444469  0.14611239  1
  N  N46  1  0.55729429  0.20468607  0.87926421  1
  N  N47  1  0.44556256  0.09572924  0.62295638  1
  N  N48  1  0.22251997  0.53918653  0.37381518  1
  N  N49  1  0.11111124  0.42777788  0.12376136  1
  N  N50  1  0.88846685  0.53909994  0.87382772  1
  N  N51  1  0.77906303  0.42537427  0.62295644  1
  N  N52  1  0.55525194  0.53949593  0.37491391  1
  N  N53  1  0.44443501  0.42827245  0.12488334  1
  N  N54  1  0.22243334  0.53910022  0.87382779  1
  N  N55  1  0.11111113  0.42777798  0.62437421  1
  N  N56  1  0.88829381  0.53918637  0.37381515  1
  N  N57  1  0.77729284  0.42827235  0.12488339  1
  N  N58  1  0.55574180  0.53851652  0.87359366  1
  N  N59  1  0.44556271  0.42537456  0.62295635  1
  N  N60  1  0.22282806  0.87191932  0.37491383  1
  N  N61  1  0.11160563  0.76110169  0.12488343  1
  N  N62  1  0.88801946  0.87396125  0.87926438  1
  N  N63  1  0.77906294  0.76222930  0.62295652  1
  N  N64  1  0.55525226  0.87191911  0.37491386  1
  N  N65  1  0.44444450  0.76111110  0.12375021  1
  N  N66  1  0.22184992  0.87240831  0.87359405  1
  N  N67  1  0.10870795  0.76222949  0.62295657  1
  N  N68  1  0.87637605  0.89724735  0.36719191  1
  N  N69  1  0.77729296  0.76110159  0.12488330  1
  N  N70  1  0.55574185  0.87240822  0.87359388  1
  N  N71  1  0.44444450  0.76111108  0.62447942  1
