# generated using pymatgen
data_Al35BN36
_symmetry_space_group_name_H-M   'P 1'
_cell_length_a   9.55396941
_cell_length_b   9.55390155
_cell_length_c   9.39437235
_cell_angle_alpha   90.00007790
_cell_angle_beta   90.00000359
_cell_angle_gamma   59.99977919
_symmetry_Int_Tables_number   1
_chemical_formula_structural   Al35BN36
_chemical_formula_sum   'Al35 B1 N36'
_cell_volume   742.61213732
_cell_formula_units_Z   1
loop_
 _symmetry_equiv_pos_site_id
 _symmetry_equiv_pos_as_xyz
  1  'x, y, z'
loop_
 _atom_site_type_symbol
 _atom_site_label
 _atom_site_symmetry_multiplicity
 _atom_site_fract_x
 _atom_site_fract_y
 _atom_site_fract_z
 _atom_site_occupancy
  Al  Al0  1  0.10811081  0.09234580  0.37715481  1
  Al  Al1  1  0.22177895  0.20644218  0.12875104  1
  Al  Al2  1  0.77777771  0.09444458  0.87530627  1
  Al  Al3  1  0.88848677  0.20515291  0.62140523  1
  Al  Al4  1  0.44954341  0.09234581  0.37715481  1
  Al  Al5  1  0.56358486  0.20154072  0.13510535  1
  Al  Al6  1  0.10841026  0.09585924  0.87938248  1
  Al  Al7  1  0.22283396  0.20433213  0.62771018  1
  Al  Al8  1  0.88487445  0.20154074  0.13510536  1
  Al  Al9  1  0.44573052  0.09585924  0.87938248  1
  Al  Al10  1  0.55636036  0.20515292  0.62140524  1
  Al  Al11  1  0.11111086  0.42777829  0.37989108  1
  Al  Al12  1  0.22177878  0.53844532  0.12875090  1
  Al  Al13  1  0.77919218  0.42507753  0.87938248  1
  Al  Al14  1  0.88766585  0.53950032  0.62771014  1
  Al  Al15  1  0.44954341  0.42477795  0.37715480  1
  Al  Al16  1  0.55550522  0.53898960  0.12757220  1
  Al  Al17  1  0.11111083  0.42777833  0.87693646  1
  Al  Al18  1  0.22283389  0.53950031  0.62771012  1
  Al  Al19  1  0.77567863  0.42477798  0.37715481  1
  Al  Al20  1  0.88977594  0.53844534  0.12875090  1
  Al  Al21  1  0.44573028  0.42507751  0.87938248  1
  Al  Al22  1  0.55595782  0.53808438  0.62933014  1
  Al  Al23  1  0.10811078  0.76621048  0.37715464  1
  Al  Al24  1  0.22232333  0.87217125  0.12757209  1
  Al  Al25  1  0.77919226  0.76239771  0.87938230  1
  Al  Al26  1  0.88848686  0.87302633  0.62140505  1
  Al  Al27  1  0.44444425  0.76111147  0.37985521  1
  Al  Al28  1  0.55550547  0.87217125  0.12757209  1
  Al  Al29  1  0.10841004  0.76239768  0.87938231  1
  Al  Al30  1  0.22141818  0.87262385  0.62933007  1
  Al  Al31  1  0.77567873  0.76621048  0.37715465  1
  Al  Al32  1  0.88487461  0.88025079  0.13510517  1
  Al  Al33  1  0.44444422  0.76111155  0.87708058  1
  Al  Al34  1  0.55595801  0.87262386  0.62933006  1
  B  B35  1  0.77777785  0.09444433  0.39425894  1
  N  N36  1  0.22229406  0.20541189  0.33130004  1
  N  N37  1  0.10753007  0.09644962  0.08382638  1
  N  N38  1  0.88818771  0.20485383  0.82437723  1
  N  N39  1  0.77777714  0.09444578  0.56293679  1
  N  N40  1  0.58211034  0.19227809  0.33901105  1
  N  N41  1  0.44602032  0.09644959  0.08382638  1
  N  N42  1  0.22286311  0.20427378  0.83150174  1
  N  N43  1  0.11171977  0.09381557  0.57896588  1
  N  N44  1  0.87561162  0.19227811  0.33901106  1
  N  N45  1  0.77777694  0.09444622  0.07323447  1
  N  N46  1  0.55695853  0.20485382  0.82437724  1
  N  N47  1  0.44446465  0.09381557  0.57896588  1
  N  N48  1  0.22229439  0.53895926  0.33130007  1
  N  N49  1  0.11111121  0.42777755  0.07966072  1
  N  N50  1  0.88760817  0.53952824  0.83150176  1
  N  N51  1  0.77714765  0.42838697  0.57896587  1
  N  N52  1  0.55480742  0.54038523  0.32962956  1
  N  N53  1  0.44602098  0.42419732  0.08382626  1
  N  N54  1  0.22286359  0.53952825  0.83150176  1
  N  N55  1  0.11111113  0.42777770  0.58251142  1
  N  N56  1  0.88874637  0.53895925  0.33130006  1
  N  N57  1  0.77978173  0.42419731  0.08382625  1
  N  N58  1  0.55629407  0.53741191  0.83248550  1
  N  N59  1  0.44446540  0.42838698  0.57896587  1
  N  N60  1  0.22371978  0.87147359  0.32962964  1
  N  N61  1  0.10753053  0.76268801  0.08382635  1
  N  N62  1  0.88818741  0.87362521  0.82437716  1
  N  N63  1  0.77714746  0.76113226  0.57896590  1
  N  N64  1  0.55480666  0.87147356  0.32962965  1
  N  N65  1  0.44444428  0.76111142  0.07917240  1
  N  N66  1  0.22074651  0.87296020  0.83248543  1
  N  N67  1  0.11172028  0.76113229  0.57896589  1
  N  N68  1  0.87561155  0.89877693  0.33901106  1
  N  N69  1  0.77978148  0.76268798  0.08382635  1
  N  N70  1  0.55629332  0.87296017  0.83248542  1
  N  N71  1  0.44444429  0.76111141  0.58309347  1
