# generated using pymatgen
data_Al35BN36
_symmetry_space_group_name_H-M   'P 1'
_cell_length_a   9.48946506
_cell_length_b   9.48940275
_cell_length_c   9.58473440
_cell_angle_alpha   90.00002733
_cell_angle_beta   89.99999840
_cell_angle_gamma   59.99980532
_symmetry_Int_Tables_number   1
_chemical_formula_structural   Al35BN36
_chemical_formula_sum   'Al35 B1 N36'
_cell_volume   747.46433008
_cell_formula_units_Z   1
loop_
 _symmetry_equiv_pos_site_id
 _symmetry_equiv_pos_as_xyz
  1  'x, y, z'
loop_
 _atom_site_type_symbol
 _atom_site_label
 _atom_site_symmetry_multiplicity
 _atom_site_fract_x
 _atom_site_fract_y
 _atom_site_fract_z
 _atom_site_occupancy
  Al  Al0  1  0.10799567  0.09245552  0.32946055  1
  Al  Al1  1  0.22271355  0.20457296  0.07912119  1
  Al  Al2  1  0.77777768  0.09444465  0.83136224  1
  Al  Al3  1  0.88524821  0.20191479  0.57275991  1
  Al  Al4  1  0.44954885  0.09245551  0.32946055  1
  Al  Al5  1  0.55680907  0.20492866  0.08548262  1
  Al  Al6  1  0.10869435  0.09565260  0.82803068  1
  Al  Al7  1  0.22186433  0.20627140  0.57839665  1
  Al  Al8  1  0.88826234  0.20492866  0.08548263  1
  Al  Al9  1  0.44565306  0.09565260  0.82803068  1
  Al  Al10  1  0.56283707  0.20191476  0.57275992  1
  Al  Al11  1  0.11111107  0.42777786  0.32735504  1
  Al  Al12  1  0.22271360  0.53937979  0.07912119  1
  Al  Al13  1  0.77898554  0.42536139  0.82803071  1
  Al  Al14  1  0.88960514  0.53853059  0.57839667  1
  Al  Al15  1  0.44954900  0.42466264  0.32946049  1
  Al  Al16  1  0.55585204  0.53829596  0.07783824  1
  Al  Al17  1  0.11111105  0.42777789  0.82971354  1
  Al  Al18  1  0.22186433  0.53853058  0.57839665  1
  Al  Al19  1  0.77578835  0.42466268  0.32946048  1
  Al  Al20  1  0.88790665  0.53937980  0.07912116  1
  Al  Al21  1  0.44565306  0.42536138  0.82803070  1
  Al  Al22  1  0.55555096  0.53889813  0.57927689  1
  Al  Al23  1  0.10799580  0.76621578  0.32946047  1
  Al  Al24  1  0.22162950  0.87251848  0.07783824  1
  Al  Al25  1  0.77898560  0.76231994  0.82803070  1
  Al  Al26  1  0.88524830  0.87950342  0.57275995  1
  Al  Al27  1  0.44444425  0.76111147  0.32749131  1
  Al  Al28  1  0.55585205  0.87251848  0.07783825  1
  Al  Al29  1  0.10869446  0.76231991  0.82803068  1
  Al  Al30  1  0.22223159  0.87221742  0.57927689  1
  Al  Al31  1  0.77578841  0.76621579  0.32946045  1
  Al  Al32  1  0.88826242  0.87347523  0.08548246  1
  Al  Al33  1  0.44444429  0.76111140  0.82957798  1
  Al  Al34  1  0.55555102  0.87221741  0.57927687  1
  B  B35  1  0.77777806  0.09444394  0.31673089  1
  N  N36  1  0.22234839  0.20530331  0.38009493  1
  N  N37  1  0.11169660  0.09384438  0.13198492  1
  N  N38  1  0.88811762  0.20478345  0.88646820  1
  N  N39  1  0.77777745  0.09444511  0.63673503  1
  N  N40  1  0.58156414  0.19255098  0.37265219  1
  N  N41  1  0.44445901  0.09384439  0.13198492  1
  N  N42  1  0.22274134  0.20451738  0.87997651  1
  N  N43  1  0.10788814  0.09623566  0.62811990  1
  N  N44  1  0.87588496  0.19255100  0.37265217  1
  N  N45  1  0.77777759  0.09444483  0.14986688  1
  N  N46  1  0.55709901  0.20478343  0.88646819  1
  N  N47  1  0.44587620  0.09623564  0.62811991  1
  N  N48  1  0.22234836  0.53901408  0.38009486  1
  N  N49  1  0.11111080  0.42777837  0.12921354  1
  N  N50  1  0.88785172  0.53940702  0.87997650  1
  N  N51  1  0.77956791  0.42455593  0.62811996  1
  N  N52  1  0.55492500  0.54015005  0.38157448  1
  N  N53  1  0.44445907  0.42836425  0.13198485  1
  N  N54  1  0.22274131  0.53940700  0.87997652  1
  N  N55  1  0.11111082  0.42777835  0.63146065  1
  N  N56  1  0.88863763  0.53901410  0.38009487  1
  N  N57  1  0.77717665  0.42836427  0.13198484  1
  N  N58  1  0.55614093  0.53771816  0.87921787  1
  N  N59  1  0.44587615  0.42455592  0.62811996  1
  N  N60  1  0.22348398  0.87159093  0.38157447  1
  N  N61  1  0.11169667  0.76112658  0.13198481  1
  N  N62  1  0.88811768  0.87376468  0.88646808  1
  N  N63  1  0.77956799  0.76254370  0.62811993  1
  N  N64  1  0.55492513  0.87159092  0.38157445  1
  N  N65  1  0.44444407  0.76111182  0.12880420  1
  N  N66  1  0.22105223  0.87280679  0.87921785  1
  N  N67  1  0.10788827  0.76254370  0.62811991  1
  N  N68  1  0.87588494  0.89823017  0.37265209  1
  N  N69  1  0.77717673  0.76112658  0.13198480  1
  N  N70  1  0.55614101  0.87280679  0.87921787  1
  N  N71  1  0.44444405  0.76111187  0.63180174  1
