# generated using pymatgen
data_Al35BN36
_symmetry_space_group_name_H-M   'P 1'
_cell_length_a   9.34320429
_cell_length_b   9.34320454
_cell_length_c   9.98341211
_cell_angle_alpha   89.99999227
_cell_angle_beta   89.99999746
_cell_angle_gamma   60.00000323
_symmetry_Int_Tables_number   1
_chemical_formula_structural   Al35BN36
_chemical_formula_sum   'Al35 B1 N36'
_cell_volume   754.74691439
_cell_formula_units_Z   1
loop_
 _symmetry_equiv_pos_site_id
 _symmetry_equiv_pos_as_xyz
  1  'x, y, z'
loop_
 _atom_site_type_symbol
 _atom_site_label
 _atom_site_symmetry_multiplicity
 _atom_site_fract_x
 _atom_site_fract_y
 _atom_site_fract_z
 _atom_site_occupancy
  Al  Al0  1  0.10765842  0.09273710  0.40482025  1
  Al  Al1  1  0.22212250  0.20575459  0.15482315  1
  Al  Al2  1  0.77777753  0.09444436  0.90280912  1
  Al  Al3  1  0.88765800  0.20432428  0.64813470  1
  Al  Al4  1  0.44960452  0.09273661  0.40482025  1
  Al  Al5  1  0.56115220  0.20275699  0.15881317  1
  Al  Al6  1  0.10934170  0.09520023  0.90447675  1
  Al  Al7  1  0.22239677  0.20520644  0.65459290  1
  Al  Al8  1  0.88609073  0.20275670  0.15881319  1
  Al  Al9  1  0.44545773  0.09520029  0.90447680  1
  Al  Al10  1  0.55801785  0.20432447  0.64813458  1
  Al  Al11  1  0.11111157  0.42777764  0.40540872  1
  Al  Al12  1  0.22212285  0.53878984  0.15482307  1
  Al  Al13  1  0.77853430  0.42600777  0.90447677  1
  Al  Al14  1  0.88853975  0.53906355  0.65459303  1
  Al  Al15  1  0.44960463  0.42432588  0.40482020  1
  Al  Al16  1  0.55569809  0.53860433  0.15456475  1
  Al  Al17  1  0.11111155  0.42777760  0.90472041  1
  Al  Al18  1  0.22239695  0.53906382  0.65459296  1
  Al  Al19  1  0.77606942  0.42432618  0.40482023  1
  Al  Al20  1  0.88908754  0.53878954  0.15482304  1
  Al  Al21  1  0.44545779  0.42600799  0.90447682  1
  Al  Al22  1  0.55557654  0.53884749  0.65518193  1
  Al  Al23  1  0.10765877  0.76627095  0.40482024  1
  Al  Al24  1  0.22193782  0.87236430  0.15456494  1
  Al  Al25  1  0.77853402  0.76212461  0.90447670  1
  Al  Al26  1  0.88765777  0.87468499  0.64813450  1
  Al  Al27  1  0.44444372  0.76111194  0.40501422  1
  Al  Al28  1  0.55569809  0.87236402  0.15456484  1
  Al  Al29  1  0.10934130  0.76212481  0.90447670  1
  Al  Al30  1  0.22218094  0.87224276  0.65518163  1
  Al  Al31  1  0.77606969  0.76627078  0.40482030  1
  Al  Al32  1  0.88609062  0.87781898  0.15881337  1
  Al  Al33  1  0.44444423  0.76111132  0.90481119  1
  Al  Al34  1  0.55557662  0.87224251  0.65518178  1
  B  B35  1  0.77777759  0.09444468  0.40846102  1
  N  N36  1  0.22251972  0.20496068  0.34609199  1
  N  N37  1  0.10870943  0.09572872  0.09694833  1
  N  N38  1  0.88802050  0.20468674  0.84063790  1
  N  N39  1  0.77777773  0.09444472  0.57378661  1
  N  N40  1  0.58058086  0.19304305  0.35270541  1
  N  N41  1  0.44556164  0.09572871  0.09694841  1
  N  N42  1  0.22243326  0.20513335  0.84607856  1
  N  N43  1  0.11160595  0.09395916  0.59502170  1
  N  N44  1  0.87637585  0.19304326  0.35270535  1
  N  N45  1  0.77777766  0.09444431  0.09160007  1
  N  N46  1  0.55729242  0.20468693  0.84063785  1
  N  N47  1  0.44443508  0.09395903  0.59502171  1
  N  N48  1  0.22251990  0.53918643  0.34609192  1
  N  N49  1  0.11111114  0.42777803  0.09553303  1
  N  N50  1  0.88846701  0.53909989  0.84607871  1
  N  N51  1  0.77729271  0.42827252  0.59502173  1
  N  N52  1  0.55525173  0.53949650  0.34499248  1
  N  N53  1  0.44556187  0.42537592  0.09694840  1
  N  N54  1  0.22243328  0.53910021  0.84607863  1
  N  N55  1  0.11111129  0.42777797  0.59614678  1
  N  N56  1  0.88829418  0.53918625  0.34609195  1
  N  N57  1  0.77906254  0.42537564  0.09694836  1
  N  N58  1  0.55574168  0.53851672  0.84631324  1
  N  N59  1  0.44443507  0.42827265  0.59502166  1
  N  N60  1  0.22282858  0.87191914  0.34499263  1
  N  N61  1  0.10870927  0.76222866  0.09694827  1
  N  N62  1  0.88802033  0.87395938  0.84063772  1
  N  N63  1  0.77729273  0.76110165  0.59502169  1
  N  N64  1  0.55525195  0.87191888  0.34499250  1
  N  N65  1  0.44444445  0.76111108  0.09542799  1
  N  N66  1  0.22185012  0.87240815  0.84631290  1
  N  N67  1  0.11160582  0.76110176  0.59502159  1
  N  N68  1  0.87637597  0.89724760  0.35270546  1
  N  N69  1  0.77906237  0.76222844  0.09694831  1
  N  N70  1  0.55574172  0.87240808  0.84631303  1
  N  N71  1  0.44444451  0.76111112  0.59615817  1
