# generated using pymatgen
data_Al35BN36
_symmetry_space_group_name_H-M   'P 1'
_cell_length_a   9.34320663
_cell_length_b   9.34320715
_cell_length_c   9.98340649
_cell_angle_alpha   89.99999175
_cell_angle_beta   89.99999637
_cell_angle_gamma   60.00000373
_symmetry_Int_Tables_number   1
_chemical_formula_structural   Al35BN36
_chemical_formula_sum   'Al35 B1 N36'
_cell_volume   754.74689269
_cell_formula_units_Z   1
loop_
 _symmetry_equiv_pos_site_id
 _symmetry_equiv_pos_as_xyz
  1  'x, y, z'
loop_
 _atom_site_type_symbol
 _atom_site_label
 _atom_site_symmetry_multiplicity
 _atom_site_fract_x
 _atom_site_fract_y
 _atom_site_fract_z
 _atom_site_occupancy
  Al  Al0  1  0.10765848  0.09273709  0.39627701  1
  Al  Al1  1  0.22212251  0.20575458  0.14627965  1
  Al  Al2  1  0.77777752  0.09444437  0.89426673  1
  Al  Al3  1  0.88765805  0.20432431  0.63959218  1
  Al  Al4  1  0.44960447  0.09273660  0.39627703  1
  Al  Al5  1  0.56115220  0.20275698  0.15027077  1
  Al  Al6  1  0.10934171  0.09520025  0.89593360  1
  Al  Al7  1  0.22239675  0.20520645  0.64604940  1
  Al  Al8  1  0.88609074  0.20275668  0.15027080  1
  Al  Al9  1  0.44545767  0.09520030  0.89593365  1
  Al  Al10  1  0.55801777  0.20432451  0.63959209  1
  Al  Al11  1  0.11111158  0.42777764  0.39686501  1
  Al  Al12  1  0.22212284  0.53878984  0.14627956  1
  Al  Al13  1  0.77853433  0.42600779  0.89593362  1
  Al  Al14  1  0.88853977  0.53906353  0.64604952  1
  Al  Al15  1  0.44960458  0.42432593  0.39627697  1
  Al  Al16  1  0.55569808  0.53860433  0.14602123  1
  Al  Al17  1  0.11111155  0.42777760  0.89617687  1
  Al  Al18  1  0.22239694  0.53906380  0.64604944  1
  Al  Al19  1  0.77606942  0.42432622  0.39627699  1
  Al  Al20  1  0.88908754  0.53878954  0.14627956  1
  Al  Al21  1  0.44545771  0.42600802  0.89593365  1
  Al  Al22  1  0.55557658  0.53884746  0.64663859  1
  Al  Al23  1  0.10765881  0.76627093  0.39627702  1
  Al  Al24  1  0.22193784  0.87236428  0.14602144  1
  Al  Al25  1  0.77853404  0.76212454  0.89593355  1
  Al  Al26  1  0.88765782  0.87468490  0.63959202  1
  Al  Al27  1  0.44444372  0.76111193  0.39647068  1
  Al  Al28  1  0.55569808  0.87236399  0.14602135  1
  Al  Al29  1  0.10934132  0.76212475  0.89593354  1
  Al  Al30  1  0.22218093  0.87224276  0.64663829  1
  Al  Al31  1  0.77606968  0.76627074  0.39627708  1
  Al  Al32  1  0.88609062  0.87781899  0.15027095  1
  Al  Al33  1  0.44444422  0.76111132  0.89626760  1
  Al  Al34  1  0.55557663  0.87224251  0.64663843  1
  B  B35  1  0.77777757  0.09444468  0.39991901  1
  N  N36  1  0.22251976  0.20496063  0.33754880  1
  N  N37  1  0.10870933  0.09572878  0.08840549  1
  N  N38  1  0.88802047  0.20468673  0.83209550  1
  N  N39  1  0.77777773  0.09444472  0.56524496  1
  N  N40  1  0.58058092  0.19304303  0.34416337  1
  N  N41  1  0.44556170  0.09572875  0.08840557  1
  N  N42  1  0.22243326  0.20513333  0.83753543  1
  N  N43  1  0.11160588  0.09395918  0.58647876  1
  N  N44  1  0.87637582  0.19304322  0.34416331  1
  N  N45  1  0.77777766  0.09444432  0.08305790  1
  N  N46  1  0.55729243  0.20468692  0.83209547  1
  N  N47  1  0.44443511  0.09395906  0.58647879  1
  N  N48  1  0.22251992  0.53918647  0.33754872  1
  N  N49  1  0.11111114  0.42777801  0.08698975  1
  N  N50  1  0.88846700  0.53909990  0.83753557  1
  N  N51  1  0.77729277  0.42827242  0.58647879  1
  N  N52  1  0.55525177  0.53949644  0.33644934  1
  N  N53  1  0.44556191  0.42537579  0.08840554  1
  N  N54  1  0.22243327  0.53910023  0.83753546  1
  N  N55  1  0.11111129  0.42777796  0.58760336  1
  N  N56  1  0.88829413  0.53918628  0.33754876  1
  N  N57  1  0.77906262  0.42537552  0.08840552  1
  N  N58  1  0.55574172  0.53851664  0.83777020  1
  N  N59  1  0.44443511  0.42827257  0.58647875  1
  N  N60  1  0.22282852  0.87191918  0.33644948  1
  N  N61  1  0.10870915  0.76222871  0.08840541  1
  N  N62  1  0.88802029  0.87395941  0.83209536  1
  N  N63  1  0.77729278  0.76110168  0.58647878  1
  N  N64  1  0.55525198  0.87191891  0.33644938  1
  N  N65  1  0.44444445  0.76111107  0.08688459  1
  N  N66  1  0.22185002  0.87240820  0.83776986  1
  N  N67  1  0.11160574  0.76110179  0.58647868  1
  N  N68  1  0.87637593  0.89724768  0.34416342  1
  N  N69  1  0.77906243  0.76222848  0.08840547  1
  N  N70  1  0.55574175  0.87240811  0.83776998  1
  N  N71  1  0.44444452  0.76111111  0.58761495  1
