# generated using pymatgen
data_Al35BN36
_symmetry_space_group_name_H-M   'P 1'
_cell_length_a   9.34320647
_cell_length_b   9.34320699
_cell_length_c   9.98342140
_cell_angle_alpha   90.00000840
_cell_angle_beta   90.00000359
_cell_angle_gamma   60.00000382
_symmetry_Int_Tables_number   1
_chemical_formula_structural   Al35BN36
_chemical_formula_sum   'Al35 B1 N36'
_cell_volume   754.74799495
_cell_formula_units_Z   1
loop_
 _symmetry_equiv_pos_site_id
 _symmetry_equiv_pos_as_xyz
  1  'x, y, z'
loop_
 _atom_site_type_symbol
 _atom_site_label
 _atom_site_symmetry_multiplicity
 _atom_site_fract_x
 _atom_site_fract_y
 _atom_site_fract_z
 _atom_site_occupancy
  Al  Al0  1  0.10765954  0.09273704  0.29968078  1
  Al  Al1  1  0.22239648  0.20520698  0.04990929  1
  Al  Al2  1  0.77777755  0.09444431  0.80168260  1
  Al  Al3  1  0.88609120  0.20275710  0.54568112  1
  Al  Al4  1  0.44960345  0.09273655  0.29968075  1
  Al  Al5  1  0.55801805  0.20432438  0.05636716  1
  Al  Al6  1  0.10934092  0.09520025  0.80002560  1
  Al  Al7  1  0.22212274  0.20575410  0.54968088  1
  Al  Al8  1  0.88765783  0.20432417  0.05636709  1
  Al  Al9  1  0.44545844  0.09520030  0.80002553  1
  Al  Al10  1  0.56115128  0.20275741  0.54568112  1
  Al  Al11  1  0.11111157  0.42777763  0.29909676  1
  Al  Al12  1  0.22239665  0.53906356  0.04990930  1
  Al  Al13  1  0.77853435  0.42600697  0.80002556  1
  Al  Al14  1  0.88908710  0.53878974  0.54968098  1
  Al  Al15  1  0.44960355  0.42432695  0.29968083  1
  Al  Al16  1  0.55557630  0.53884794  0.04932175  1
  Al  Al17  1  0.11111153  0.42777759  0.79978231  1
  Al  Al18  1  0.22212305  0.53879005  0.54968099  1
  Al  Al19  1  0.77606941  0.42432724  0.29968079  1
  Al  Al20  1  0.88854027  0.53906327  0.04990920  1
  Al  Al21  1  0.44545850  0.42600720  0.80002552  1
  Al  Al22  1  0.55569823  0.53860398  0.54993751  1
  Al  Al23  1  0.10765986  0.76626990  0.29968075  1
  Al  Al24  1  0.22218139  0.87224255  0.04932210  1
  Al  Al25  1  0.77853406  0.76212527  0.80002569  1
  Al  Al26  1  0.88609109  0.87781804  0.54568101  1
  Al  Al27  1  0.44444375  0.76111188  0.29949033  1
  Al  Al28  1  0.55557636  0.87224229  0.04932193  1
  Al  Al29  1  0.10934056  0.76212547  0.80002572  1
  Al  Al30  1  0.22193752  0.87236441  0.54993735  1
  Al  Al31  1  0.77606967  0.76626971  0.29968068  1
  Al  Al32  1  0.88765759  0.87468528  0.05636726  1
  Al  Al33  1  0.44444423  0.76111128  0.79969213  1
  Al  Al34  1  0.55569825  0.87236412  0.54993740  1
  B  B35  1  0.77777756  0.09444467  0.29603387  1
  N  N36  1  0.22251988  0.20496038  0.35841096  1
  N  N37  1  0.11160607  0.09395939  0.10947923  1
  N  N38  1  0.88801957  0.20468579  0.86386199  1
  N  N39  1  0.77777764  0.09444430  0.61289180  1
  N  N40  1  0.58058034  0.19304330  0.35178959  1
  N  N41  1  0.44443470  0.09395925  0.10947917  1
  N  N42  1  0.22243324  0.20513336  0.85842299  1
  N  N43  1  0.10870829  0.09572899  0.60755265  1
  N  N44  1  0.87637610  0.19304348  0.35178965  1
  N  N45  1  0.77777768  0.09444474  0.13071138  1
  N  N46  1  0.55729425  0.20468599  0.86386200  1
  N  N47  1  0.44556249  0.09572896  0.60755255  1
  N  N48  1  0.22252004  0.53918659  0.35841104  1
  N  N49  1  0.11111128  0.42777796  0.10835689  1
  N  N50  1  0.88846703  0.53909983  0.85842289  1
  N  N51  1  0.77906286  0.42537446  0.60755260  1
  N  N52  1  0.55525205  0.53949586  0.35950909  1
  N  N53  1  0.44443469  0.42827281  0.10947923  1
  N  N54  1  0.22243328  0.53910015  0.85842300  1
  N  N55  1  0.11111114  0.42777798  0.60896943  1
  N  N56  1  0.88829389  0.53918640  0.35841098  1
  N  N57  1  0.77729290  0.42827265  0.10947920  1
  N  N58  1  0.55574170  0.53851665  0.85818939  1
  N  N59  1  0.44556269  0.42537473  0.60755257  1
  N  N60  1  0.22282801  0.87191941  0.35950895  1
  N  N61  1  0.11160592  0.76110143  0.10947928  1
  N  N62  1  0.88801942  0.87396116  0.86386214  1
  N  N63  1  0.77906268  0.76222924  0.60755269  1
  N  N64  1  0.55525226  0.87191914  0.35950903  1
  N  N65  1  0.44444451  0.76111110  0.10834564  1
  N  N66  1  0.22185010  0.87240814  0.85818976  1
  N  N67  1  0.10870812  0.76222946  0.60755275  1
  N  N68  1  0.87637623  0.89724709  0.35178957  1
  N  N69  1  0.77729292  0.76110131  0.10947918  1
  N  N70  1  0.55574171  0.87240806  0.85818962  1
  N  N71  1  0.44444445  0.76111102  0.60907428  1
