# generated using pymatgen
data_Al35BN36
_symmetry_space_group_name_H-M   'P 1'
_cell_length_a   9.34319077
_cell_length_b   9.34319137
_cell_length_c   9.98344141
_cell_angle_alpha   90.00002591
_cell_angle_beta   90.00006590
_cell_angle_gamma   60.00001071
_symmetry_Int_Tables_number   1
_chemical_formula_structural   Al35BN36
_chemical_formula_sum   'Al35 B1 N36'
_cell_volume   754.74702971
_cell_formula_units_Z   1
loop_
 _symmetry_equiv_pos_site_id
 _symmetry_equiv_pos_as_xyz
  1  'x, y, z'
loop_
 _atom_site_type_symbol
 _atom_site_label
 _atom_site_symmetry_multiplicity
 _atom_site_fract_x
 _atom_site_fract_y
 _atom_site_fract_z
 _atom_site_occupancy
  Al  Al0  1  0.10765852  0.09273713  0.38914788  1
  Al  Al1  1  0.22212265  0.20575437  0.13915057  1
  Al  Al2  1  0.77777763  0.09444440  0.88713606  1
  Al  Al3  1  0.88765802  0.20432428  0.63246009  1
  Al  Al4  1  0.44960431  0.09273665  0.38914799  1
  Al  Al5  1  0.56115212  0.20275710  0.14313992  1
  Al  Al6  1  0.10934157  0.09520019  0.88880410  1
  Al  Al7  1  0.22239661  0.20520672  0.63892088  1
  Al  Al8  1  0.88609084  0.20275681  0.14313993  1
  Al  Al9  1  0.44545801  0.09520029  0.88880417  1
  Al  Al10  1  0.55801786  0.20432449  0.63246013  1
  Al  Al11  1  0.11111154  0.42777757  0.38973534  1
  Al  Al12  1  0.22212294  0.53878997  0.13915049  1
  Al  Al13  1  0.77853431  0.42600759  0.88880413  1
  Al  Al14  1  0.88854008  0.53906334  0.63892100  1
  Al  Al15  1  0.44960438  0.42432595  0.38914792  1
  Al  Al16  1  0.55569816  0.53860419  0.13889295  1
  Al  Al17  1  0.11111157  0.42777758  0.88904869  1
  Al  Al18  1  0.22239677  0.53906361  0.63892095  1
  Al  Al19  1  0.77606947  0.42432626  0.38914789  1
  Al  Al20  1  0.88908733  0.53878967  0.13915047  1
  Al  Al21  1  0.44545803  0.42600785  0.88880420  1
  Al  Al22  1  0.55557646  0.53884766  0.63950940  1
  Al  Al23  1  0.10765885  0.76627071  0.38914797  1
  Al  Al24  1  0.22193767  0.87236440  0.13889314  1
  Al  Al25  1  0.77853408  0.76212482  0.88880405  1
  Al  Al26  1  0.88765783  0.87468495  0.63246002  1
  Al  Al27  1  0.44444371  0.76111191  0.38934185  1
  Al  Al28  1  0.55569825  0.87236414  0.13889305  1
  Al  Al29  1  0.10934122  0.76212501  0.88880405  1
  Al  Al30  1  0.22218112  0.87224269  0.63950907  1
  Al  Al31  1  0.77606979  0.76627052  0.38914804  1
  Al  Al32  1  0.88609074  0.87781889  0.14314009  1
  Al  Al33  1  0.44444428  0.76111136  0.88913943  1
  Al  Al34  1  0.55557658  0.87224243  0.63950927  1
  B  B35  1  0.77777747  0.09444464  0.39278743  1
  N  N36  1  0.22251977  0.20496044  0.33041849  1
  N  N37  1  0.10870943  0.09572860  0.08127491  1
  N  N38  1  0.88802052  0.20468678  0.82496354  1
  N  N39  1  0.77777767  0.09444466  0.55811179  1
  N  N40  1  0.58058053  0.19304314  0.33703185  1
  N  N41  1  0.44556176  0.09572864  0.08127503  1
  N  N42  1  0.22243318  0.20513352  0.83040575  1
  N  N43  1  0.11160627  0.09395904  0.57934839  1
  N  N44  1  0.87637593  0.19304339  0.33703174  1
  N  N45  1  0.77777767  0.09444437  0.07592682  1
  N  N46  1  0.55729249  0.20468698  0.82496360  1
  N  N47  1  0.44443479  0.09395895  0.57934859  1
  N  N48  1  0.22251988  0.53918646  0.33041845  1
  N  N49  1  0.11111109  0.42777801  0.07986037  1
  N  N50  1  0.88846718  0.53909979  0.83040589  1
  N  N51  1  0.77729255  0.42827287  0.57934846  1
  N  N52  1  0.55525166  0.53949638  0.32931982  1
  N  N53  1  0.44556191  0.42537596  0.08127503  1
  N  N54  1  0.22243316  0.53910009  0.83040582  1
  N  N55  1  0.11111123  0.42777789  0.58047304  1
  N  N56  1  0.88829393  0.53918630  0.33041847  1
  N  N57  1  0.77906237  0.42537568  0.08127496  1
  N  N58  1  0.55574160  0.53851694  0.83064004  1
  N  N59  1  0.44443475  0.42827297  0.57934852  1
  N  N60  1  0.22282841  0.87191912  0.32931994  1
  N  N61  1  0.10870928  0.76222876  0.08127487  1
  N  N62  1  0.88802037  0.87395945  0.82496346  1
  N  N63  1  0.77729266  0.76110135  0.57934857  1
  N  N64  1  0.55525199  0.87191890  0.32931987  1
  N  N65  1  0.44444444  0.76111111  0.07975575  1
  N  N66  1  0.22185030  0.87240812  0.83063966  1
  N  N67  1  0.11160616  0.76110143  0.57934845  1
  N  N68  1  0.87637602  0.89724729  0.33703187  1
  N  N69  1  0.77906229  0.76222856  0.08127492  1
  N  N70  1  0.55574166  0.87240802  0.83063985  1
  N  N71  1  0.44444448  0.76111112  0.58048496  1
