# generated using pymatgen
data_Al35BN36
_symmetry_space_group_name_H-M   'P 1'
_cell_length_a   9.34320870
_cell_length_b   9.34320918
_cell_length_c   9.98341342
_cell_angle_alpha   89.99999206
_cell_angle_beta   89.99999685
_cell_angle_gamma   60.00000229
_symmetry_Int_Tables_number   1
_chemical_formula_structural   Al35BN36
_chemical_formula_sum   'Al35 B1 N36'
_cell_volume   754.74773680
_cell_formula_units_Z   1
loop_
 _symmetry_equiv_pos_site_id
 _symmetry_equiv_pos_as_xyz
  1  'x, y, z'
loop_
 _atom_site_type_symbol
 _atom_site_label
 _atom_site_symmetry_multiplicity
 _atom_site_fract_x
 _atom_site_fract_y
 _atom_site_fract_z
 _atom_site_occupancy
  Al  Al0  1  0.10765887  0.09273699  0.40315147  1
  Al  Al1  1  0.22212258  0.20575449  0.15315257  1
  Al  Al2  1  0.77777754  0.09444439  0.90114793  1
  Al  Al3  1  0.88765800  0.20432433  0.64646952  1
  Al  Al4  1  0.44960414  0.09273653  0.40315152  1
  Al  Al5  1  0.56115193  0.20275713  0.15715048  1
  Al  Al6  1  0.10934159  0.09520032  0.90280788  1
  Al  Al7  1  0.22239674  0.20520643  0.65292267  1
  Al  Al8  1  0.88609094  0.20275688  0.15715052  1
  Al  Al9  1  0.44545770  0.09520037  0.90280795  1
  Al  Al10  1  0.55801780  0.20432453  0.64646950  1
  Al  Al11  1  0.11111156  0.42777759  0.40373776  1
  Al  Al12  1  0.22212287  0.53878985  0.15315249  1
  Al  Al13  1  0.77853435  0.42600771  0.90280792  1
  Al  Al14  1  0.88853975  0.53906351  0.65292280  1
  Al  Al15  1  0.44960424  0.42432636  0.40315143  1
  Al  Al16  1  0.55569814  0.53860425  0.15289437  1
  Al  Al17  1  0.11111152  0.42777756  0.90304966  1
  Al  Al18  1  0.22239692  0.53906378  0.65292270  1
  Al  Al19  1  0.77606931  0.42432665  0.40315146  1
  Al  Al20  1  0.88908747  0.53878959  0.15315249  1
  Al  Al21  1  0.44545773  0.42600795  0.90280799  1
  Al  Al22  1  0.55557646  0.53884767  0.65351196  1
  Al  Al23  1  0.10765925  0.76627059  0.40315148  1
  Al  Al24  1  0.22193775  0.87236435  0.15289453  1
  Al  Al25  1  0.77853409  0.76212457  0.90280781  1
  Al  Al26  1  0.88765781  0.87468496  0.64646941  1
  Al  Al27  1  0.44444374  0.76111195  0.40334307  1
  Al  Al28  1  0.55569817  0.87236407  0.15289447  1
  Al  Al29  1  0.10934125  0.76212476  0.90280782  1
  Al  Al30  1  0.22218112  0.87224269  0.65351165  1
  Al  Al31  1  0.77606964  0.76627041  0.40315157  1
  Al  Al32  1  0.88609080  0.87781870  0.15715061  1
  Al  Al33  1  0.44444422  0.76111134  0.90314035  1
  Al  Al34  1  0.55557655  0.87224244  0.65351179  1
  B  B35  1  0.77777757  0.09444468  0.40679864  1
  N  N36  1  0.22251979  0.20496050  0.34442250  1
  N  N37  1  0.10870859  0.09572913  0.09528040  1
  N  N38  1  0.88801992  0.20468621  0.83897286  1
  N  N39  1  0.77777771  0.09444472  0.57212260  1
  N  N40  1  0.58058069  0.19304313  0.35104182  1
  N  N41  1  0.44556215  0.09572910  0.09528052  1
  N  N42  1  0.22243331  0.20513316  0.84440932  1
  N  N43  1  0.11160552  0.09395936  0.59335369  1
  N  N44  1  0.87637591  0.19304335  0.35104177  1
  N  N45  1  0.77777774  0.09444439  0.08993870  1
  N  N46  1  0.55729352  0.20468638  0.83897291  1
  N  N47  1  0.44443528  0.09395928  0.59335381  1
  N  N48  1  0.22251991  0.53918646  0.34442240  1
  N  N49  1  0.11111113  0.42777797  0.09386306  1
  N  N50  1  0.88846683  0.53909992  0.84440948  1
  N  N51  1  0.77729290  0.42827212  0.59335373  1
  N  N52  1  0.55525193  0.53949613  0.34332328  1
  N  N53  1  0.44556234  0.42537505  0.09528056  1
  N  N54  1  0.22243330  0.53910024  0.84440935  1
  N  N55  1  0.11111126  0.42777791  0.59447669  1
  N  N56  1  0.88829403  0.53918630  0.34442248  1
  N  N57  1  0.77906296  0.42537479  0.09528047  1
  N  N58  1  0.55574177  0.53851649  0.84464420  1
  N  N59  1  0.44443527  0.42827223  0.59335374  1
  N  N60  1  0.22282821  0.87191935  0.34332338  1
  N  N61  1  0.10870842  0.76222911  0.09528037  1
  N  N62  1  0.88801977  0.87396049  0.83897279  1
  N  N63  1  0.77729300  0.76110184  0.59335382  1
  N  N64  1  0.55525218  0.87191906  0.34332333  1
  N  N65  1  0.44444447  0.76111110  0.09375808  1
  N  N66  1  0.22184986  0.87240830  0.84464387  1
  N  N67  1  0.11160542  0.76110197  0.59335369  1
  N  N68  1  0.87637606  0.89724744  0.35104182  1
  N  N69  1  0.77906280  0.76222891  0.09528040  1
  N  N70  1  0.55574182  0.87240821  0.84464398  1
  N  N71  1  0.44444452  0.76111113  0.59448804  1
