# generated using pymatgen
data_Al35BN36
_symmetry_space_group_name_H-M   'P 1'
_cell_length_a   9.34319538
_cell_length_b   9.34319638
_cell_length_c   9.98344383
_cell_angle_alpha   90.00000862
_cell_angle_beta   90.00000404
_cell_angle_gamma   60.00000147
_symmetry_Int_Tables_number   1
_chemical_formula_structural   Al35BN36
_chemical_formula_sum   'Al35 B1 N36'
_cell_volume   754.74792022
_cell_formula_units_Z   1
loop_
 _symmetry_equiv_pos_site_id
 _symmetry_equiv_pos_as_xyz
  1  'x, y, z'
loop_
 _atom_site_type_symbol
 _atom_site_label
 _atom_site_symmetry_multiplicity
 _atom_site_fract_x
 _atom_site_fract_y
 _atom_site_fract_z
 _atom_site_occupancy
  Al  Al0  1  0.10765889  0.09273699  0.31331683  1
  Al  Al1  1  0.22239669  0.20520649  0.06354578  1
  Al  Al2  1  0.77777754  0.09444437  0.81532145  1
  Al  Al3  1  0.88609091  0.20275685  0.55931823  1
  Al  Al4  1  0.44960411  0.09273652  0.31331675  1
  Al  Al5  1  0.55801773  0.20432453  0.06999897  1
  Al  Al6  1  0.10934163  0.09520030  0.81366051  1
  Al  Al7  1  0.22212253  0.20575457  0.56331577  1
  Al  Al8  1  0.88765803  0.20432434  0.06999896  1
  Al  Al9  1  0.44545765  0.09520038  0.81366045  1
  Al  Al10  1  0.56115198  0.20275710  0.55931827  1
  Al  Al11  1  0.11111155  0.42777759  0.31273080  1
  Al  Al12  1  0.22239687  0.53906371  0.06354577  1
  Al  Al13  1  0.77853436  0.42600771  0.81366049  1
  Al  Al14  1  0.88908753  0.53878955  0.56331586  1
  Al  Al15  1  0.44960419  0.42432637  0.31331685  1
  Al  Al16  1  0.55557643  0.53884770  0.06295645  1
  Al  Al17  1  0.11111152  0.42777754  0.81341882  1
  Al  Al18  1  0.22212282  0.53878981  0.56331587  1
  Al  Al19  1  0.77606935  0.42432666  0.31331684  1
  Al  Al20  1  0.88853982  0.53906345  0.06354565  1
  Al  Al21  1  0.44545769  0.42600797  0.81366043  1
  Al  Al22  1  0.55569809  0.53860433  0.56357409  1
  Al  Al23  1  0.10765925  0.76627056  0.31331683  1
  Al  Al24  1  0.22218119  0.87224263  0.06295678  1
  Al  Al25  1  0.77853411  0.76212452  0.81366060  1
  Al  Al26  1  0.88609075  0.87781876  0.55931815  1
  Al  Al27  1  0.44444375  0.76111193  0.31312553  1
  Al  Al28  1  0.55557651  0.87224239  0.06295661  1
  Al  Al29  1  0.10934129  0.76212471  0.81366060  1
  Al  Al30  1  0.22193783  0.87236430  0.56357393  1
  Al  Al31  1  0.77606967  0.76627035  0.31331672  1
  Al  Al32  1  0.88765783  0.87468488  0.06999909  1
  Al  Al33  1  0.44444423  0.76111131  0.81332828  1
  Al  Al34  1  0.55569812  0.87236403  0.56357398  1
  B  B35  1  0.77777753  0.09444468  0.30967005  1
  N  N36  1  0.22251979  0.20496048  0.37204642  1
  N  N37  1  0.11160558  0.09395930  0.12311515  1
  N  N38  1  0.88802002  0.20468626  0.87749622  1
  N  N39  1  0.77777772  0.09444438  0.62653082  1
  N  N40  1  0.58058060  0.19304317  0.36542703  1
  N  N41  1  0.44443523  0.09395924  0.12311500  1
  N  N42  1  0.22243327  0.20513321  0.87205964  1
  N  N43  1  0.10870863  0.09572913  0.62118850  1
  N  N44  1  0.87637595  0.19304340  0.36542707  1
  N  N45  1  0.77777770  0.09444470  0.14434605  1
  N  N46  1  0.55729332  0.20468646  0.87749616  1
  N  N47  1  0.44556211  0.09572910  0.62118839  1
  N  N48  1  0.22251992  0.53918647  0.37204651  1
  N  N49  1  0.11111126  0.42777789  0.12199245  1
  N  N50  1  0.88846687  0.53909988  0.87205949  1
  N  N51  1  0.77906296  0.42537481  0.62118847  1
  N  N52  1  0.55525194  0.53949612  0.37314568  1
  N  N53  1  0.44443524  0.42827226  0.12311508  1
  N  N54  1  0.22243328  0.53910020  0.87205963  1
  N  N55  1  0.11111113  0.42777796  0.62260595  1
  N  N56  1  0.88829401  0.53918631  0.37204645  1
  N  N57  1  0.77729287  0.42827214  0.12311511  1
  N  N58  1  0.55574176  0.53851649  0.87182474  1
  N  N59  1  0.44556230  0.42537506  0.62118836  1
  N  N60  1  0.22282823  0.87191933  0.37314557  1
  N  N61  1  0.11160546  0.76110191  0.12311517  1
  N  N62  1  0.88801986  0.87396030  0.87749633  1
  N  N63  1  0.77906280  0.76222887  0.62118854  1
  N  N64  1  0.55525219  0.87191905  0.37314561  1
  N  N65  1  0.44444454  0.76111109  0.12198110  1
  N  N66  1  0.22184989  0.87240826  0.87182508  1
  N  N67  1  0.10870843  0.76222908  0.62118856  1
  N  N68  1  0.87637609  0.89724736  0.36542704  1
  N  N69  1  0.77729298  0.76110179  0.12311503  1
  N  N70  1  0.55574181  0.87240819  0.87182496  1
  N  N71  1  0.44444447  0.76111109  0.62271108  1
