# generated using pymatgen
data_Al35BN36
_symmetry_space_group_name_H-M   'P 1'
_cell_length_a   9.34321064
_cell_length_b   9.34321110
_cell_length_c   9.98341121
_cell_angle_alpha   89.99999180
_cell_angle_beta   89.99999688
_cell_angle_gamma   60.00000130
_symmetry_Int_Tables_number   1
_chemical_formula_structural   Al35BN36
_chemical_formula_sum   'Al35 B1 N36'
_cell_volume   754.74787488
_cell_formula_units_Z   1
loop_
 _symmetry_equiv_pos_site_id
 _symmetry_equiv_pos_as_xyz
  1  'x, y, z'
loop_
 _atom_site_type_symbol
 _atom_site_label
 _atom_site_symmetry_multiplicity
 _atom_site_fract_x
 _atom_site_fract_y
 _atom_site_fract_z
 _atom_site_occupancy
  Al  Al0  1  0.10765902  0.09273696  0.41113722  1
  Al  Al1  1  0.22212261  0.20575442  0.16113789  1
  Al  Al2  1  0.77777756  0.09444440  0.90913496  1
  Al  Al3  1  0.88765800  0.20432433  0.65445538  1
  Al  Al4  1  0.44960399  0.09273653  0.41113729  1
  Al  Al5  1  0.56115183  0.20275720  0.16513732  1
  Al  Al6  1  0.10934150  0.09520034  0.91079337  1
  Al  Al7  1  0.22239672  0.20520648  0.66090817  1
  Al  Al8  1  0.88609100  0.20275693  0.16513735  1
  Al  Al9  1  0.44545779  0.09520041  0.91079344  1
  Al  Al10  1  0.55801781  0.20432454  0.65445537  1
  Al  Al11  1  0.11111155  0.42777757  0.41172297  1
  Al  Al12  1  0.22212291  0.53878988  0.16113782  1
  Al  Al13  1  0.77853437  0.42600762  0.91079341  1
  Al  Al14  1  0.88853980  0.53906349  0.66090830  1
  Al  Al15  1  0.44960409  0.42432651  0.41113719  1
  Al  Al16  1  0.55569815  0.53860423  0.16087982  1
  Al  Al17  1  0.11111151  0.42777757  0.91103510  1
  Al  Al18  1  0.22239690  0.53906375  0.66090819  1
  Al  Al19  1  0.77606930  0.42432679  0.41113721  1
  Al  Al20  1  0.88908740  0.53878962  0.16113781  1
  Al  Al21  1  0.44545783  0.42600787  0.91079348  1
  Al  Al22  1  0.55557645  0.53884772  0.66149731  1
  Al  Al23  1  0.10765939  0.76627043  0.41113724  1
  Al  Al24  1  0.22193773  0.87236437  0.16087996  1
  Al  Al25  1  0.77853411  0.76212467  0.91079329  1
  Al  Al26  1  0.88765780  0.87468499  0.65445527  1
  Al  Al27  1  0.44444373  0.76111195  0.41132828  1
  Al  Al28  1  0.55569820  0.87236410  0.16087993  1
  Al  Al29  1  0.10934117  0.76212486  0.91079330  1
  Al  Al30  1  0.22218116  0.87224268  0.66149698  1
  Al  Al31  1  0.77606962  0.76627025  0.41113734  1
  Al  Al32  1  0.88609087  0.87781859  0.16513744  1
  Al  Al33  1  0.44444423  0.76111136  0.91112565  1
  Al  Al34  1  0.55557653  0.87224244  0.66149714  1
  B  B35  1  0.77777755  0.09444467  0.41478555  1
  N  N36  1  0.22251981  0.20496041  0.35240813  1
  N  N37  1  0.10870843  0.09572918  0.10326621  1
  N  N38  1  0.88801981  0.20468611  0.84695889  1
  N  N39  1  0.77777770  0.09444472  0.58010914  1
  N  N40  1  0.58058065  0.19304313  0.35902855  1
  N  N41  1  0.44556226  0.09572918  0.10326633  1
  N  N42  1  0.22243331  0.20513317  0.85239502  1
  N  N43  1  0.11160550  0.09395938  0.60133951  1
  N  N44  1  0.87637591  0.19304334  0.35902850  1
  N  N45  1  0.77777774  0.09444439  0.09792575  1
  N  N46  1  0.55729376  0.20468630  0.84695896  1
  N  N47  1  0.44443528  0.09395930  0.60133967  1
  N  N48  1  0.22251995  0.53918648  0.35240807  1
  N  N49  1  0.11111113  0.42777797  0.10184878  1
  N  N50  1  0.88846682  0.53909993  0.85239515  1
  N  N51  1  0.77729292  0.42827210  0.60133955  1
  N  N52  1  0.55525195  0.53949607  0.35130895  1
  N  N53  1  0.44556244  0.42537491  0.10326637  1
  N  N54  1  0.22243332  0.53910024  0.85239505  1
  N  N55  1  0.11111126  0.42777790  0.60246225  1
  N  N56  1  0.88829394  0.53918632  0.35240810  1
  N  N57  1  0.77906300  0.42537464  0.10326627  1
  N  N58  1  0.55574180  0.53851650  0.85262977  1
  N  N59  1  0.44443528  0.42827225  0.60133959  1
  N  N60  1  0.22282816  0.87191935  0.35130904  1
  N  N61  1  0.10870830  0.76222920  0.10326618  1
  N  N62  1  0.88801966  0.87396074  0.84695882  1
  N  N63  1  0.77729300  0.76110185  0.60133966  1
  N  N64  1  0.55525220  0.87191910  0.35130902  1
  N  N65  1  0.44444448  0.76111111  0.10174368  1
  N  N66  1  0.22184985  0.87240832  0.85262942  1
  N  N67  1  0.11160541  0.76110197  0.60133953  1
  N  N68  1  0.87637605  0.89724741  0.35902857  1
  N  N69  1  0.77906287  0.76222902  0.10326619  1
  N  N70  1  0.55574182  0.87240824  0.85262955  1
  N  N71  1  0.44444453  0.76111115  0.60247351  1
