# generated using pymatgen
data_Al35BN36
_symmetry_space_group_name_H-M   'P 1'
_cell_length_a   9.85468824
_cell_length_b   9.85468905
_cell_length_c   8.45335853
_cell_angle_alpha   90.00000013
_cell_angle_beta   89.99999988
_cell_angle_gamma   60.00001393
_symmetry_Int_Tables_number   1
_chemical_formula_structural   Al35BN36
_chemical_formula_sum   'Al35 B1 N36'
_cell_volume   710.96103051
_cell_formula_units_Z   1
loop_
 _symmetry_equiv_pos_site_id
 _symmetry_equiv_pos_as_xyz
  1  'x, y, z'
loop_
 _atom_site_type_symbol
 _atom_site_label
 _atom_site_symmetry_multiplicity
 _atom_site_fract_x
 _atom_site_fract_y
 _atom_site_fract_z
 _atom_site_occupancy
  Al  Al0  1  0.10574970  0.09257438  0.35474297  1
  Al  Al1  1  0.22234193  0.20531620  0.10819144  1
  Al  Al2  1  0.77777778  0.09444446  0.85405564  1
  Al  Al3  1  0.88662065  0.20328734  0.60761343  1
  Al  Al4  1  0.45167594  0.09257436  0.35474297  1
  Al  Al5  1  0.56263678  0.20201495  0.10354921  1
  Al  Al6  1  0.11040263  0.09573160  0.85501518  1
  Al  Al7  1  0.22239654  0.20520698  0.60123289  1
  Al  Al8  1  0.88534827  0.20201496  0.10354926  1
  Al  Al9  1  0.44386577  0.09573156  0.85501518  1
  Al  Al10  1  0.56009204  0.20328733  0.60761346  1
  Al  Al11  1  0.11111113  0.42777780  0.35461828  1
  Al  Al12  1  0.22234196  0.53900864  0.10819147  1
  Al  Al13  1  0.77906493  0.42706930  0.85501519  1
  Al  Al14  1  0.88854029  0.53906323  0.60123289  1
  Al  Al15  1  0.45167599  0.42241630  0.35474296  1
  Al  Al16  1  0.55589982  0.53820045  0.10606485  1
  Al  Al17  1  0.11111111  0.42777778  0.85471720  1
  Al  Al18  1  0.22239657  0.53906325  0.60123286  1
  Al  Al19  1  0.77590771  0.42241638  0.35474297  1
  Al  Al20  1  0.88864951  0.53900861  0.10819145  1
  Al  Al21  1  0.44386577  0.42706930  0.85501518  1
  Al  Al22  1  0.55580380  0.53839248  0.60337268  1
  Al  Al23  1  0.10574963  0.76834266  0.35474297  1
  Al  Al24  1  0.22153377  0.87256650  0.10606485  1
  Al  Al25  1  0.77906489  0.76053244  0.85501518  1
  Al  Al26  1  0.88662064  0.87675873  0.60761345  1
  Al  Al27  1  0.44444442  0.76111109  0.35457162  1
  Al  Al28  1  0.55589977  0.87256646  0.10606484  1
  Al  Al29  1  0.11040263  0.76053244  0.85501518  1
  Al  Al30  1  0.22172580  0.87247048  0.60337268  1
  Al  Al31  1  0.77590769  0.76834261  0.35474297  1
  Al  Al32  1  0.88534826  0.87930346  0.10354922  1
  Al  Al33  1  0.44444442  0.76111109  0.85476287  1
  Al  Al34  1  0.55580376  0.87247044  0.60337268  1
  B  B35  1  0.77777778  0.09444447  0.36663967  1
  N  N36  1  0.22248095  0.20503822  0.35444750  1
  N  N37  1  0.10858132  0.09576291  0.10881374  1
  N  N38  1  0.89115058  0.20781726  0.85268440  1
  N  N39  1  0.77777778  0.09444446  0.61843460  1
  N  N40  1  0.58993454  0.18836608  0.35468794  1
  N  N41  1  0.44565581  0.09576284  0.10881372  1
  N  N42  1  0.22289793  0.20420415  0.85454664  1
  N  N43  1  0.10920648  0.09537990  0.59991193  1
  N  N44  1  0.87169941  0.18836610  0.35468792  1
  N  N45  1  0.77777777  0.09444444  0.08145759  1
  N  N46  1  0.55103218  0.20781725  0.85268440  1
  N  N47  1  0.44541366  0.09537983  0.59991195  1
  N  N48  1  0.22248094  0.53914762  0.35444749  1
  N  N49  1  0.11111114  0.42777781  0.10401057  1
  N  N50  1  0.88753746  0.53956462  0.85454664  1
  N  N51  1  0.77871323  0.42587314  0.59991192  1
  N  N52  1  0.55489123  0.54021756  0.35437960  1
  N  N53  1  0.44565585  0.42524798  0.10881372  1
  N  N54  1  0.22289794  0.53956462  0.85454666  1
  N  N55  1  0.11111114  0.42777781  0.60505535  1
  N  N56  1  0.88837153  0.53914763  0.35444749  1
  N  N57  1  0.77909624  0.42524798  0.10881373  1
  N  N58  1  0.55632517  0.53734970  0.85458990  1
  N  N59  1  0.44541370  0.42587314  0.59991195  1
  N  N60  1  0.22355088  0.87155792  0.35437960  1
  N  N61  1  0.10858132  0.76232252  0.10881373  1
  N  N62  1  0.89115056  0.86769887  0.85268440  1
  N  N63  1  0.77871317  0.76208033  0.59991195  1
  N  N64  1  0.55489119  0.87155788  0.35437960  1
  N  N65  1  0.44444444  0.76111110  0.10301168  1
  N  N66  1  0.22068302  0.87299186  0.85458990  1
  N  N67  1  0.10920648  0.76208036  0.59991195  1
  N  N68  1  0.87169939  0.90660123  0.35468794  1
  N  N69  1  0.77909617  0.76232248  0.10881372  1
  N  N70  1  0.55632512  0.87299181  0.85458991  1
  N  N71  1  0.44444444  0.76111110  0.60605143  1
