# generated using pymatgen
data_Al35BN36
_symmetry_space_group_name_H-M   'P 1'
_cell_length_a   9.72877312
_cell_length_b   9.72877147
_cell_length_c   8.85145774
_cell_angle_alpha   90.00000144
_cell_angle_beta   89.99999990
_cell_angle_gamma   60.00000266
_symmetry_Int_Tables_number   1
_chemical_formula_structural   Al35BN36
_chemical_formula_sum   'Al35 B1 N36'
_cell_volume   725.54026839
_cell_formula_units_Z   1
loop_
 _symmetry_equiv_pos_site_id
 _symmetry_equiv_pos_as_xyz
  1  'x, y, z'
loop_
 _atom_site_type_symbol
 _atom_site_label
 _atom_site_symmetry_multiplicity
 _atom_site_fract_x
 _atom_site_fract_y
 _atom_site_fract_z
 _atom_site_occupancy
  Al  Al0  1  0.10792392  0.09233156  0.36724472  1
  Al  Al1  1  0.22180232  0.20639542  0.11987332  1
  Al  Al2  1  0.77777779  0.09444446  0.86621104  1
  Al  Al3  1  0.88885847  0.20552514  0.61355697  1
  Al  Al4  1  0.44974451  0.09233159  0.36724472  1
  Al  Al5  1  0.56538995  0.20063837  0.12814690  1
  Al  Al6  1  0.10807896  0.09618667  0.87071721  1
  Al  Al7  1  0.22294096  0.20411810  0.61706430  1
  Al  Al8  1  0.88397173  0.20063840  0.12814690  1
  Al  Al9  1  0.44573441  0.09618667  0.87071721  1
  Al  Al10  1  0.55561642  0.20552513  0.61355697  1
  Al  Al11  1  0.11111111  0.42777781  0.36990116  1
  Al  Al12  1  0.22180231  0.53846899  0.11987331  1
  Al  Al13  1  0.77951999  0.42474565  0.87071721  1
  Al  Al14  1  0.88745143  0.53960764  0.61706430  1
  Al  Al15  1  0.44974453  0.42459057  0.36724471  1
  Al  Al16  1  0.55560240  0.53879523  0.11818608  1
  Al  Al17  1  0.11111110  0.42777781  0.86707808  1
  Al  Al18  1  0.22294096  0.53960765  0.61706429  1
  Al  Al19  1  0.77566488  0.42459060  0.36724471  1
  Al  Al20  1  0.88972875  0.53846899  0.11987332  1
  Al  Al21  1  0.44573439  0.42474563  0.87071722  1
  Al  Al22  1  0.55602479  0.53795043  0.61955382  1
  Al  Al23  1  0.10792388  0.76641121  0.36724471  1
  Al  Al24  1  0.22212856  0.87226907  0.11818608  1
  Al  Al25  1  0.77951999  0.76240109  0.87071721  1
  Al  Al26  1  0.88885847  0.87228308  0.61355697  1
  Al  Al27  1  0.44444443  0.76111112  0.37014878  1
  Al  Al28  1  0.55560240  0.87226906  0.11818609  1
  Al  Al29  1  0.10807894  0.76240108  0.87071721  1
  Al  Al30  1  0.22128376  0.87269145  0.61955382  1
  Al  Al31  1  0.77566491  0.76641119  0.36724471  1
  Al  Al32  1  0.88397171  0.88205660  0.12814690  1
  Al  Al33  1  0.44444443  0.76111113  0.86741587  1
  Al  Al34  1  0.55602480  0.87269145  0.61955381  1
  B  B35  1  0.77777779  0.09444444  0.39857600  1
  N  N36  1  0.22232408  0.20535187  0.34037772  1
  N  N37  1  0.10679491  0.09683442  0.09408330  1
  N  N38  1  0.88847926  0.20514592  0.83152379  1
  N  N39  1  0.77777777  0.09444446  0.57574156  1
  N  N40  1  0.58386723  0.19139973  0.34708711  1
  N  N41  1  0.44637071  0.09683440  0.09408329  1
  N  N42  1  0.22305422  0.20389162  0.84082589  1
  N  N43  1  0.11143030  0.09400045  0.58666996  1
  N  N44  1  0.87473307  0.19139974  0.34708711  1
  N  N45  1  0.77777778  0.09444449  0.07564452  1
  N  N46  1  0.55637487  0.20514590  0.83152379  1
  N  N47  1  0.44456925  0.09400045  0.58666996  1
  N  N48  1  0.22232409  0.53899074  0.34037773  1
  N  N49  1  0.11111111  0.42777780  0.08888479  1
  N  N50  1  0.88722496  0.53972087  0.84082590  1
  N  N51  1  0.77733375  0.42809700  0.58666995  1
  N  N52  1  0.55472888  0.54054225  0.33851238  1
  N  N53  1  0.44637072  0.42346159  0.09408329  1
  N  N54  1  0.22305421  0.53972086  0.84082591  1
  N  N55  1  0.11111111  0.42777780  0.59187296  1
  N  N56  1  0.88868522  0.53899073  0.34037773  1
  N  N57  1  0.78016772  0.42346160  0.09408331  1
  N  N58  1  0.55650974  0.53698057  0.84196805  1
  N  N59  1  0.44456927  0.42809698  0.58666996  1
  N  N60  1  0.22387559  0.87139554  0.33851239  1
  N  N61  1  0.10679490  0.76303741  0.09408331  1
  N  N62  1  0.88847924  0.87304153  0.83152379  1
  N  N63  1  0.77733375  0.76123596  0.58666996  1
  N  N64  1  0.55472888  0.87139555  0.33851240  1
  N  N65  1  0.44444443  0.76111113  0.08781568  1
  N  N66  1  0.22031392  0.87317640  0.84196807  1
  N  N67  1  0.11143028  0.76123596  0.58666996  1
  N  N68  1  0.87473307  0.90053389  0.34708710  1
  N  N69  1  0.78016769  0.76303741  0.09408331  1
  N  N70  1  0.55650971  0.87317639  0.84196806  1
  N  N71  1  0.44444443  0.76111113  0.59278648  1
