# generated using pymatgen
data_Al35BN36
_symmetry_space_group_name_H-M   'P 1'
_cell_length_a   9.34319933
_cell_length_b   9.34319978
_cell_length_c   9.98342481
_cell_angle_alpha   90.00000789
_cell_angle_beta   90.00000331
_cell_angle_gamma   60.00000117
_symmetry_Int_Tables_number   1
_chemical_formula_structural   Al35BN36
_chemical_formula_sum   'Al35 B1 N36'
_cell_volume   754.74707403
_cell_formula_units_Z   1
loop_
 _symmetry_equiv_pos_site_id
 _symmetry_equiv_pos_as_xyz
  1  'x, y, z'
loop_
 _atom_site_type_symbol
 _atom_site_label
 _atom_site_symmetry_multiplicity
 _atom_site_fract_x
 _atom_site_fract_y
 _atom_site_fract_z
 _atom_site_occupancy
  Al  Al0  1  0.10765892  0.09273717  0.30973335  1
  Al  Al1  1  0.22239643  0.20520700  0.05996067  1
  Al  Al2  1  0.77777757  0.09444435  0.81174250  1
  Al  Al3  1  0.88609107  0.20275702  0.55573980  1
  Al  Al4  1  0.44960387  0.09273672  0.30973325  1
  Al  Al5  1  0.55801806  0.20432439  0.06642226  1
  Al  Al6  1  0.10934120  0.09520011  0.81007798  1
  Al  Al7  1  0.22212277  0.20575408  0.55973178  1
  Al  Al8  1  0.88765785  0.20432416  0.06642226  1
  Al  Al9  1  0.44545829  0.09520019  0.81007793  1
  Al  Al10  1  0.56115162  0.20275731  0.55573981  1
  Al  Al11  1  0.11111154  0.42777757  0.30914755  1
  Al  Al12  1  0.22239660  0.53906350  0.05996065  1
  Al  Al13  1  0.77853421  0.42600726  0.81007796  1
  Al  Al14  1  0.88908707  0.53878979  0.55973188  1
  Al  Al15  1  0.44960397  0.42432635  0.30973334  1
  Al  Al16  1  0.55557634  0.53884789  0.05937304  1
  Al  Al17  1  0.11111152  0.42777756  0.80983294  1
  Al  Al18  1  0.22212305  0.53879006  0.55973185  1
  Al  Al19  1  0.77606954  0.42432663  0.30973336  1
  Al  Al20  1  0.88854032  0.53906321  0.05996058  1
  Al  Al21  1  0.44545833  0.42600754  0.81007789  1
  Al  Al22  1  0.55569823  0.53860404  0.55998851  1
  Al  Al23  1  0.10765927  0.76627030  0.30973329  1
  Al  Al24  1  0.22218131  0.87224260  0.05937336  1
  Al  Al25  1  0.77853396  0.76212512  0.81007806  1
  Al  Al26  1  0.88609096  0.87781839  0.55573966  1
  Al  Al27  1  0.44444373  0.76111190  0.30954063  1
  Al  Al28  1  0.55557642  0.87224235  0.05937318  1
  Al  Al29  1  0.10934089  0.76212532  0.81007804  1
  Al  Al30  1  0.22193752  0.87236445  0.55998833  1
  Al  Al31  1  0.77606985  0.76627012  0.30973318  1
  Al  Al32  1  0.88765765  0.87468523  0.06642233  1
  Al  Al33  1  0.44444424  0.76111133  0.80974246  1
  Al  Al34  1  0.55569830  0.87236419  0.55998838  1
  B  B35  1  0.77777755  0.09444464  0.30609259  1
  N  N36  1  0.22251987  0.20496028  0.36846322  1
  N  N37  1  0.11160635  0.09395918  0.11953265  1
  N  N38  1  0.88802015  0.20468638  0.87391772  1
  N  N39  1  0.77777772  0.09444437  0.62295149  1
  N  N40  1  0.58058029  0.19304328  0.36184738  1
  N  N41  1  0.44443459  0.09395909  0.11953246  1
  N  N42  1  0.22243310  0.20513355  0.86847554  1
  N  N43  1  0.10870924  0.09572855  0.61760643  1
  N  N44  1  0.87637609  0.19304348  0.36184745  1
  N  N45  1  0.77777769  0.09444470  0.14076854  1
  N  N46  1  0.55729313  0.20468658  0.87391764  1
  N  N47  1  0.44556204  0.09572857  0.61760631  1
  N  N48  1  0.22252000  0.53918652  0.36846327  1
  N  N49  1  0.11111125  0.42777790  0.11840911  1
  N  N50  1  0.88846724  0.53909969  0.86847541  1
  N  N51  1  0.77906239  0.42537545  0.61760639  1
  N  N52  1  0.55525188  0.53949615  0.36956115  1
  N  N53  1  0.44443459  0.42827311  0.11953253  1
  N  N54  1  0.22243313  0.53910002  0.86847549  1
  N  N55  1  0.11111112  0.42777796  0.61902089  1
  N  N56  1  0.88829383  0.53918635  0.36846324  1
  N  N57  1  0.77729271  0.42827294  0.11953260  1
  N  N58  1  0.55574152  0.53851705  0.86824189  1
  N  N59  1  0.44556221  0.42537574  0.61760628  1
  N  N60  1  0.22282827  0.87191925  0.36956104  1
  N  N61  1  0.11160625  0.76110130  0.11953260  1
  N  N62  1  0.88802002  0.87396004  0.87391777  1
  N  N63  1  0.77906227  0.76222880  0.61760644  1
  N  N64  1  0.55525214  0.87191900  0.36956107  1
  N  N65  1  0.44444450  0.76111115  0.11839737  1
  N  N66  1  0.22185045  0.87240801  0.86824225  1
  N  N67  1  0.10870910  0.76222900  0.61760645  1
  N  N68  1  0.87637622  0.89724704  0.36184735  1
  N  N69  1  0.77729278  0.76110119  0.11953246  1
  N  N70  1  0.55574155  0.87240791  0.86824210  1
  N  N71  1  0.44444447  0.76111111  0.61912546  1
