# generated using pymatgen
data_Al35BN36
_symmetry_space_group_name_H-M   'P 1'
_cell_length_a   9.34320397
_cell_length_b   9.34320445
_cell_length_c   9.98341823
_cell_angle_alpha   90.00000849
_cell_angle_beta   90.00000359
_cell_angle_gamma   60.00000285
_symmetry_Int_Tables_number   1
_chemical_formula_structural   Al35BN36
_chemical_formula_sum   'Al35 B1 N36'
_cell_volume   754.74734103
_cell_formula_units_Z   1
loop_
 _symmetry_equiv_pos_site_id
 _symmetry_equiv_pos_as_xyz
  1  'x, y, z'
loop_
 _atom_site_type_symbol
 _atom_site_label
 _atom_site_symmetry_multiplicity
 _atom_site_fract_x
 _atom_site_fract_y
 _atom_site_fract_z
 _atom_site_occupancy
  Al  Al0  1  0.10765865  0.09273704  0.30450067  1
  Al  Al1  1  0.22239675  0.20520640  0.05472891  1
  Al  Al2  1  0.77777751  0.09444434  0.80650764  1
  Al  Al3  1  0.88609081  0.20275674  0.55050412  1
  Al  Al4  1  0.44960433  0.09273656  0.30450060  1
  Al  Al5  1  0.55801776  0.20432450  0.06118373  1
  Al  Al6  1  0.10934169  0.09520026  0.80484406  1
  Al  Al7  1  0.22212252  0.20575458  0.55449874  1
  Al  Al8  1  0.88765803  0.20432431  0.06118369  1
  Al  Al9  1  0.44545762  0.09520031  0.80484400  1
  Al  Al10  1  0.56115212  0.20275701  0.55050416  1
  Al  Al11  1  0.11111158  0.42777762  0.30391335  1
  Al  Al12  1  0.22239695  0.53906381  0.05472888  1
  Al  Al13  1  0.77853436  0.42600775  0.80484404  1
  Al  Al14  1  0.88908754  0.53878953  0.55449880  1
  Al  Al15  1  0.44960444  0.42432612  0.30450068  1
  Al  Al16  1  0.55557653  0.53884752  0.05413950  1
  Al  Al17  1  0.11111153  0.42777757  0.80460172  1
  Al  Al18  1  0.22212283  0.53878982  0.55449883  1
  Al  Al19  1  0.77606937  0.42432640  0.30450067  1
  Al  Al20  1  0.88853972  0.53906352  0.05472879  1
  Al  Al21  1  0.44545767  0.42600799  0.80484399  1
  Al  Al22  1  0.55569811  0.53860428  0.55475717  1
  Al  Al23  1  0.10765900  0.76627078  0.30450064  1
  Al  Al24  1  0.22218100  0.87224273  0.05413983  1
  Al  Al25  1  0.77853405  0.76212448  0.80484412  1
  Al  Al26  1  0.88609066  0.87781889  0.55050400  1
  Al  Al27  1  0.44444373  0.76111192  0.30430799  1
  Al  Al28  1  0.55557659  0.87224247  0.05413968  1
  Al  Al29  1  0.10934132  0.76212470  0.80484413  1
  Al  Al30  1  0.22193780  0.87236430  0.55475698  1
  Al  Al31  1  0.77606965  0.76627059  0.30450055  1
  Al  Al32  1  0.88765781  0.87468489  0.06118381  1
  Al  Al33  1  0.44444422  0.76111129  0.80451094  1
  Al  Al34  1  0.55569809  0.87236400  0.55475703  1
  B  B35  1  0.77777757  0.09444466  0.30085593  1
  N  N36  1  0.22251976  0.20496060  0.36322936  1
  N  N37  1  0.11160568  0.09395925  0.11429881  1
  N  N38  1  0.88802021  0.20468644  0.86868059  1
  N  N39  1  0.77777769  0.09444434  0.61771677  1
  N  N40  1  0.58058086  0.19304305  0.35661254  1
  N  N41  1  0.44443521  0.09395915  0.11429867  1
  N  N42  1  0.22243328  0.20513322  0.86324262  1
  N  N43  1  0.10870894  0.09572899  0.61237200  1
  N  N44  1  0.87637584  0.19304324  0.35661260  1
  N  N45  1  0.77777772  0.09444470  0.13553117  1
  N  N46  1  0.55729291  0.20468663  0.86868056  1
  N  N47  1  0.44556193  0.09572892  0.61237190  1
  N  N48  1  0.22251991  0.53918646  0.36322945  1
  N  N49  1  0.11111128  0.42777794  0.11317480  1
  N  N50  1  0.88846689  0.53909989  0.86324249  1
  N  N51  1  0.77906285  0.42537510  0.61237196  1
  N  N52  1  0.55525186  0.53949628  0.36432883  1
  N  N53  1  0.44443523  0.42827236  0.11429874  1
  N  N54  1  0.22243330  0.53910022  0.86324261  1
  N  N55  1  0.11111112  0.42777799  0.61378861  1
  N  N56  1  0.88829411  0.53918628  0.36322938  1
  N  N57  1  0.77729282  0.42827224  0.11429875  1
  N  N58  1  0.55574176  0.53851650  0.86300769  1
  N  N59  1  0.44556212  0.42537536  0.61237191  1
  N  N60  1  0.22282837  0.87191926  0.36432870  1
  N  N61  1  0.11160555  0.76110191  0.11429881  1
  N  N62  1  0.88802004  0.87395985  0.86868068  1
  N  N63  1  0.77906262  0.76222868  0.61237201  1
  N  N64  1  0.55525207  0.87191897  0.36432874  1
  N  N65  1  0.44444452  0.76111109  0.11316336  1
  N  N66  1  0.22184992  0.87240822  0.86300804  1
  N  N67  1  0.10870871  0.76222892  0.61237206  1
  N  N68  1  0.87637597  0.89724760  0.35661251  1
  N  N69  1  0.77729287  0.76110177  0.11429869  1
  N  N70  1  0.55574178  0.87240814  0.86300791  1
  N  N71  1  0.44444445  0.76111106  0.61389364  1
