# generated using pymatgen
data_Al35BN36
_symmetry_space_group_name_H-M   'P 1'
_cell_length_a   9.34319132
_cell_length_b   9.34319205
_cell_length_c   9.98343901
_cell_angle_alpha   90.00001796
_cell_angle_beta   90.00000310
_cell_angle_gamma   60.00003666
_symmetry_Int_Tables_number   1
_chemical_formula_structural   Al35BN36
_chemical_formula_sum   'Al35 B1 N36'
_cell_volume   754.74714455
_cell_formula_units_Z   1
loop_
 _symmetry_equiv_pos_site_id
 _symmetry_equiv_pos_as_xyz
  1  'x, y, z'
loop_
 _atom_site_type_symbol
 _atom_site_label
 _atom_site_symmetry_multiplicity
 _atom_site_fract_x
 _atom_site_fract_y
 _atom_site_fract_z
 _atom_site_occupancy
  Al  Al0  1  0.10765822  0.09273711  0.32031045  1
  Al  Al1  1  0.22239654  0.20520672  0.07053781  1
  Al  Al2  1  0.77777743  0.09444443  0.82232212  1
  Al  Al3  1  0.88609090  0.20275670  0.56631821  1
  Al  Al4  1  0.44960462  0.09273667  0.32031043  1
  Al  Al5  1  0.55801799  0.20432441  0.07699610  1
  Al  Al6  1  0.10934187  0.09520015  0.82065412  1
  Al  Al7  1  0.22212268  0.20575434  0.57030739  1
  Al  Al8  1  0.88765784  0.20432416  0.07699601  1
  Al  Al9  1  0.44545749  0.09520027  0.82065407  1
  Al  Al10  1  0.56115211  0.20275706  0.56631823  1
  Al  Al11  1  0.11111154  0.42777759  0.31972227  1
  Al  Al12  1  0.22239673  0.53906374  0.07053778  1
  Al  Al13  1  0.77853416  0.42600801  0.82065410  1
  Al  Al14  1  0.88908737  0.53878964  0.57030747  1
  Al  Al15  1  0.44960470  0.42432562  0.32031049  1
  Al  Al16  1  0.55557644  0.53884764  0.06994881  1
  Al  Al17  1  0.11111146  0.42777767  0.82040950  1
  Al  Al18  1  0.22212302  0.53878995  0.57030746  1
  Al  Al19  1  0.77606951  0.42432590  0.32031047  1
  Al  Al20  1  0.88853990  0.53906345  0.07053769  1
  Al  Al21  1  0.44545755  0.42600830  0.82065406  1
  Al  Al22  1  0.55569831  0.53860406  0.57056578  1
  Al  Al23  1  0.10765855  0.76627102  0.32031044  1
  Al  Al24  1  0.22218109  0.87224269  0.06994913  1
  Al  Al25  1  0.77853389  0.76212452  0.82065418  1
  Al  Al26  1  0.88609081  0.87781882  0.56631805  1
  Al  Al27  1  0.44444377  0.76111186  0.32011667  1
  Al  Al28  1  0.55557652  0.87224249  0.06994898  1
  Al  Al29  1  0.10934151  0.76212473  0.82065418  1
  Al  Al30  1  0.22193775  0.87236436  0.57056557  1
  Al  Al31  1  0.77606980  0.76627088  0.32031039  1
  Al  Al32  1  0.88765762  0.87468526  0.07699618  1
  Al  Al33  1  0.44444424  0.76111136  0.82031880  1
  Al  Al34  1  0.55569833  0.87236412  0.57056567  1
  B  B35  1  0.77777757  0.09444470  0.31667132  1
  N  N36  1  0.22251981  0.20496052  0.37903920  1
  N  N37  1  0.11160581  0.09395919  0.13010951  1
  N  N38  1  0.88802050  0.20468685  0.88449340  1
  N  N39  1  0.77777768  0.09444428  0.63353163  1
  N  N40  1  0.58058075  0.19304312  0.37242653  1
  N  N41  1  0.44443495  0.09395911  0.13010947  1
  N  N42  1  0.22243302  0.20513378  0.87905266  1
  N  N43  1  0.10870967  0.09572855  0.62818320  1
  N  N44  1  0.87637595  0.19304329  0.37242659  1
  N  N45  1  0.77777763  0.09444472  0.15134551  1
  N  N46  1  0.55729223  0.20468710  0.88449343  1
  N  N47  1  0.44556158  0.09572859  0.62818311  1
  N  N48  1  0.22251997  0.53918651  0.37903926  1
  N  N49  1  0.11111116  0.42777797  0.12898488  1
  N  N50  1  0.88846725  0.53909983  0.87905251  1
  N  N51  1  0.77906252  0.42537574  0.62818317  1
  N  N52  1  0.55525189  0.53949622  0.38013863  1
  N  N53  1  0.44443495  0.42827261  0.13010952  1
  N  N54  1  0.22243305  0.53910017  0.87905262  1
  N  N55  1  0.11111116  0.42777799  0.62959752  1
  N  N56  1  0.88829402  0.53918635  0.37903923  1
  N  N57  1  0.77729270  0.42827242  0.13010948  1
  N  N58  1  0.55574151  0.53851709  0.87881801  1
  N  N59  1  0.44556180  0.42537607  0.62818314  1
  N  N60  1  0.22282841  0.87191922  0.38013847  1
  N  N61  1  0.11160569  0.76110176  0.13010959  1
  N  N62  1  0.88802036  0.87395939  0.88449355  1
  N  N63  1  0.77906236  0.76222831  0.62818322  1
  N  N64  1  0.55525211  0.87191900  0.38013859  1
  N  N65  1  0.44444449  0.76111109  0.12897338  1
  N  N66  1  0.22185044  0.87240808  0.87881836  1
  N  N67  1  0.10870953  0.76222854  0.62818327  1
  N  N68  1  0.87637608  0.89724748  0.37242651  1
  N  N69  1  0.77729274  0.76110166  0.13010948  1
  N  N70  1  0.55574156  0.87240806  0.87881823  1
  N  N71  1  0.44444457  0.76111102  0.62970259  1
