# generated using pymatgen
data_Al35BN36
_symmetry_space_group_name_H-M   'P 1'
_cell_length_a   9.80920100
_cell_length_b   9.80919645
_cell_length_c   8.59549337
_cell_angle_alpha   89.99999888
_cell_angle_beta   89.99999813
_cell_angle_gamma   60.00000809
_symmetry_Int_Tables_number   1
_chemical_formula_structural   Al35BN36
_chemical_formula_sum   'Al35 B1 N36'
_cell_volume   716.25644476
_cell_formula_units_Z   1
loop_
 _symmetry_equiv_pos_site_id
 _symmetry_equiv_pos_as_xyz
  1  'x, y, z'
loop_
 _atom_site_type_symbol
 _atom_site_label
 _atom_site_symmetry_multiplicity
 _atom_site_fract_x
 _atom_site_fract_y
 _atom_site_fract_z
 _atom_site_occupancy
  Al  Al0  1  0.10733972  0.09256283  0.34857605  1
  Al  Al1  1  0.22275748  0.20448509  0.10081854  1
  Al  Al2  1  0.77777777  0.09444449  0.84845036  1
  Al  Al3  1  0.88375147  0.20041814  0.58767657  1
  Al  Al4  1  0.45009741  0.09256284  0.34857603  1
  Al  Al5  1  0.55548720  0.20558974  0.09946900  1
  Al  Al6  1  0.10851520  0.09605076  0.84617428  1
  Al  Al7  1  0.22203326  0.20593355  0.59646142  1
  Al  Al8  1  0.88892310  0.20558977  0.09946901  1
  Al  Al9  1  0.44543408  0.09605073  0.84617428  1
  Al  Al10  1  0.56583051  0.20041809  0.58767655  1
  Al  Al11  1  0.11111111  0.42777780  0.34853714  1
  Al  Al12  1  0.22275750  0.53942411  0.10081853  1
  Al  Al13  1  0.77938404  0.42518191  0.84617429  1
  Al  Al14  1  0.88926692  0.53869989  0.59646142  1
  Al  Al15  1  0.45009746  0.42400640  0.34857604  1
  Al  Al16  1  0.55579224  0.53841556  0.09830773  1
  Al  Al17  1  0.11111110  0.42777779  0.84938902  1
  Al  Al18  1  0.22203327  0.53869989  0.59646143  1
  Al  Al19  1  0.77589611  0.42400644  0.34857604  1
  Al  Al20  1  0.88781846  0.53942411  0.10081852  1
  Al  Al21  1  0.44543407  0.42518188  0.84617428  1
  Al  Al22  1  0.55587789  0.53824429  0.59805328  1
  Al  Al23  1  0.10733971  0.76676414  0.34857604  1
  Al  Al24  1  0.22174891  0.87245890  0.09830773  1
  Al  Al25  1  0.77938403  0.76210077  0.84617428  1
  Al  Al26  1  0.88375142  0.88249716  0.58767656  1
  Al  Al27  1  0.44444441  0.76111113  0.34830884  1
  Al  Al28  1  0.55579223  0.87245888  0.09830773  1
  Al  Al29  1  0.10851517  0.76210076  0.84617427  1
  Al  Al30  1  0.22157763  0.87254453  0.59805328  1
  Al  Al31  1  0.77589613  0.76676410  0.34857603  1
  Al  Al32  1  0.88892310  0.87215384  0.09946898  1
  Al  Al33  1  0.44444441  0.76111113  0.84883411  1
  Al  Al34  1  0.55587788  0.87254451  0.59805326  1
  B  B35  1  0.77777779  0.09444446  0.30888824  1
  N  N36  1  0.22244874  0.20510259  0.36164633  1
  N  N37  1  0.11112302  0.09426986  0.11586999  1
  N  N38  1  0.88877799  0.20544462  0.87164868  1
  N  N39  1  0.77777775  0.09444452  0.63218029  1
  N  N40  1  0.58485745  0.19090463  0.35760712  1
  N  N41  1  0.44460712  0.09426985  0.11586998  1
  N  N42  1  0.22298988  0.20402034  0.86086092  1
  N  N43  1  0.10680564  0.09677496  0.60810088  1
  N  N44  1  0.87423797  0.19090463  0.35760712  1
  N  N45  1  0.77777773  0.09444453  0.12526454  1
  N  N46  1  0.55577749  0.20544459  0.87164866  1
  N  N47  1  0.44641943  0.09677491  0.60810090  1
  N  N48  1  0.22244875  0.53911533  0.36164631  1
  N  N49  1  0.11111110  0.42777781  0.11032364  1
  N  N50  1  0.88735374  0.53965647  0.86086093  1
  N  N51  1  0.78010820  0.42347239  0.60810091  1
  N  N52  1  0.55486638  0.54026728  0.36291668  1
  N  N53  1  0.44460715  0.42778973  0.11586996  1
  N  N54  1  0.22298986  0.53965645  0.86086092  1
  N  N55  1  0.11111110  0.42777781  0.61196527  1
  N  N56  1  0.88843600  0.53911533  0.36164632  1
  N  N57  1  0.77760310  0.42778977  0.11586997  1
  N  N58  1  0.55643113  0.53713781  0.86026602  1
  N  N59  1  0.44641944  0.42347237  0.60810091  1
  N  N60  1  0.22360064  0.87153301  0.36291670  1
  N  N61  1  0.11112302  0.76127385  0.11586997  1
  N  N62  1  0.88877796  0.87244412  0.87164868  1
  N  N63  1  0.78010817  0.76308615  0.60810093  1
  N  N64  1  0.55486637  0.87153301  0.36291668  1
  N  N65  1  0.44444441  0.76111114  0.10942213  1
  N  N66  1  0.22047117  0.87309776  0.86026600  1
  N  N67  1  0.10680564  0.76308616  0.60810091  1
  N  N68  1  0.87423797  0.90152410  0.35760712  1
  N  N69  1  0.77760311  0.76127384  0.11586997  1
  N  N70  1  0.55643109  0.87309773  0.86026604  1
  N  N71  1  0.44444441  0.76111115  0.61327155  1
