# generated using pymatgen
data_Al35BN36
_symmetry_space_group_name_H-M   'P 1'
_cell_length_a   9.63344418
_cell_length_b   9.63360946
_cell_length_c   9.15149750
_cell_angle_alpha   89.99999359
_cell_angle_beta   89.99999492
_cell_angle_gamma   60.00059452
_symmetry_Int_Tables_number   1
_chemical_formula_structural   Al35BN36
_chemical_formula_sum   'Al35 B1 N36'
_cell_volume   735.52259817
_cell_formula_units_Z   1
loop_
 _symmetry_equiv_pos_site_id
 _symmetry_equiv_pos_as_xyz
  1  'x, y, z'
loop_
 _atom_site_type_symbol
 _atom_site_label
 _atom_site_symmetry_multiplicity
 _atom_site_fract_x
 _atom_site_fract_y
 _atom_site_fract_z
 _atom_site_occupancy
  Al  Al0  1  0.10814841  0.09226986  0.33608179  1
  Al  Al1  1  0.22293453  0.20413116  0.08548844  1
  Al  Al2  1  0.77777781  0.09444420  0.83774485  1
  Al  Al3  1  0.88443122  0.20109876  0.57662362  1
  Al  Al4  1  0.44958177  0.09226993  0.33608179  1
  Al  Al5  1  0.55592553  0.20537111  0.09128129  1
  Al  Al6  1  0.10814406  0.09607036  0.83300614  1
  Al  Al7  1  0.22173020  0.20653986  0.58385553  1
  Al  Al8  1  0.88870337  0.20537107  0.09128133  1
  Al  Al9  1  0.44578569  0.09607040  0.83300611  1
  Al  Al10  1  0.56446987  0.20109883  0.57662359  1
  Al  Al11  1  0.11111167  0.42777682  0.33287421  1
  Al  Al12  1  0.22293464  0.53960190  0.08548857  1
  Al  Al13  1  0.77940460  0.42480937  0.83300609  1
  Al  Al14  1  0.88987213  0.53839777  0.58385553  1
  Al  Al15  1  0.44958174  0.42481368  0.33608192  1
  Al  Al16  1  0.55604307  0.53791371  0.08344448  1
  Al  Al17  1  0.11111172  0.42777670  0.83619590  1
  Al  Al18  1  0.22173028  0.53839770  0.58385550  1
  Al  Al19  1  0.77560442  0.42481380  0.33608190  1
  Al  Al20  1  0.88746355  0.53960197  0.08548857  1
  Al  Al21  1  0.44578600  0.42480926  0.83300606  1
  Al  Al22  1  0.55549371  0.53901244  0.58535873  1
  Al  Al23  1  0.10814819  0.76624746  0.33608205  1
  Al  Al24  1  0.22124601  0.87271117  0.08344459  1
  Al  Al25  1  0.77940443  0.76245136  0.83300609  1
  Al  Al26  1  0.88443088  0.88113823  0.57662350  1
  Al  Al27  1  0.44444485  0.76111029  0.33278219  1
  Al  Al28  1  0.55604278  0.87271128  0.08344459  1
  Al  Al29  1  0.10814426  0.76245121  0.83300608  1
  Al  Al30  1  0.22234492  0.87216177  0.58535853  1
  Al  Al31  1  0.77560427  0.76624754  0.33608202  1
  Al  Al32  1  0.88870307  0.87259391  0.09128167  1
  Al  Al33  1  0.44444494  0.76111014  0.83602199  1
  Al  Al34  1  0.55549329  0.87216188  0.58535853  1
  B  B35  1  0.77777719  0.09444557  0.31300329  1
  N  N36  1  0.22226760  0.20546471  0.37463730  1
  N  N37  1  0.11166878  0.09383612  0.12757008  1
  N  N38  1  0.88829597  0.20496472  0.88233814  1
  N  N39  1  0.77777905  0.09444229  0.63507530  1
  N  N40  1  0.58286389  0.19190229  0.36688759  1
  N  N41  1  0.44449501  0.09383607  0.12757007  1
  N  N42  1  0.22298190  0.20403604  0.87433249  1
  N  N43  1  0.10712961  0.09667239  0.62144964  1
  N  N44  1  0.87523396  0.19190233  0.36688757  1
  N  N45  1  0.77777882  0.09444263  0.14117237  1
  N  N46  1  0.55673955  0.20496465  0.88233814  1
  N  N47  1  0.44619793  0.09667231  0.62144962  1
  N  N48  1  0.22226761  0.53893714  0.37463735  1
  N  N49  1  0.11111156  0.42777666  0.12316571  1
  N  N50  1  0.88736674  0.53965149  0.87433252  1
  N  N51  1  0.78000837  0.42379396  0.62144937  1
  N  N52  1  0.55471715  0.54056595  0.37649689  1
  N  N53  1  0.44449457  0.42833341  0.12757027  1
  N  N54  1  0.22298169  0.53965157  0.87433253  1
  N  N55  1  0.11111146  0.42777683  0.62643644  1
  N  N56  1  0.88879524  0.53893710  0.37463738  1
  N  N57  1  0.77717211  0.42833337  0.12757025  1
  N  N58  1  0.55643583  0.53712857  0.87314487  1
  N  N59  1  0.44619774  0.42379399  0.62144935  1
  N  N60  1  0.22389711  0.87138566  0.37649690  1
  N  N61  1  0.11166855  0.76115926  0.12757020  1
  N  N62  1  0.88829603  0.87340805  0.88233819  1
  N  N63  1  0.78000843  0.76286225  0.62144959  1
  N  N64  1  0.55471732  0.87138550  0.37649688  1
  N  N65  1  0.44444521  0.76110952  0.12238603  1
  N  N66  1  0.22045941  0.87310456  0.87314489  1
  N  N67  1  0.10712920  0.76286239  0.62144958  1
  N  N68  1  0.87523416  0.89953177  0.36688782  1
  N  N69  1  0.77717223  0.76115912  0.12757018  1
  N  N70  1  0.55643612  0.87310441  0.87314491  1
  N  N71  1  0.44444522  0.76110949  0.62715377  1
