# generated using pymatgen
data_Al35BN36
_symmetry_space_group_name_H-M   'P 1'
_cell_length_a   9.81384887
_cell_length_b   9.81384682
_cell_length_c   8.58123474
_cell_angle_alpha   89.99999960
_cell_angle_beta   90.00000018
_cell_angle_gamma   60.00000544
_symmetry_Int_Tables_number   1
_chemical_formula_structural   Al35BN36
_chemical_formula_sum   'Al35 B1 N36'
_cell_volume   715.74624499
_cell_formula_units_Z   1
loop_
 _symmetry_equiv_pos_site_id
 _symmetry_equiv_pos_as_xyz
  1  'x, y, z'
loop_
 _atom_site_type_symbol
 _atom_site_label
 _atom_site_symmetry_multiplicity
 _atom_site_fract_x
 _atom_site_fract_y
 _atom_site_fract_z
 _atom_site_occupancy
  Al  Al0  1  0.10729074  0.09257711  0.36031100  1
  Al  Al1  1  0.22204802  0.20590403  0.11239547  1
  Al  Al2  1  0.77777778  0.09444446  0.86047862  1
  Al  Al3  1  0.88892707  0.20559373  0.60961819  1
  Al  Al4  1  0.45013212  0.09257712  0.36031101  1
  Al  Al5  1  0.56583765  0.20041451  0.12109656  1
  Al  Al6  1  0.10856689  0.09603456  0.86260882  1
  Al  Al7  1  0.22274231  0.20451543  0.60792889  1
  Al  Al8  1  0.88374788  0.20041456  0.12109655  1
  Al  Al9  1  0.44539858  0.09603454  0.86260883  1
  Al  Al10  1  0.55547924  0.20559372  0.60961820  1
  Al  Al11  1  0.11111111  0.42777780  0.36018408  1
  Al  Al12  1  0.22204803  0.53871469  0.11239545  1
  Al  Al13  1  0.77936787  0.42523359  0.86260881  1
  Al  Al14  1  0.88784877  0.53940898  0.60792891  1
  Al  Al15  1  0.45013216  0.42395740  0.36031102  1
  Al  Al16  1  0.55589510  0.53820985  0.11080152  1
  Al  Al17  1  0.11111110  0.42777780  0.85945857  1
  Al  Al18  1  0.22274232  0.53940898  0.60792890  1
  Al  Al19  1  0.77591041  0.42395743  0.36031101  1
  Al  Al20  1  0.88923736  0.53871468  0.11239547  1
  Al  Al21  1  0.44539856  0.42523356  0.86260882  1
  Al  Al22  1  0.55577390  0.53845223  0.61042668  1
  Al  Al23  1  0.10729071  0.76679885  0.36031100  1
  Al  Al24  1  0.22154318  0.87256176  0.11080152  1
  Al  Al25  1  0.77936785  0.76206526  0.86260883  1
  Al  Al26  1  0.88892706  0.87214589  0.60961821  1
  Al  Al27  1  0.44444442  0.76111112  0.36039302  1
  Al  Al28  1  0.55589508  0.87256175  0.11080153  1
  Al  Al29  1  0.10856687  0.76206525  0.86260883  1
  Al  Al30  1  0.22178556  0.87244058  0.61042668  1
  Al  Al31  1  0.77591043  0.76679881  0.36031101  1
  Al  Al32  1  0.88374785  0.88250431  0.12109655  1
  Al  Al33  1  0.44444442  0.76111112  0.86001741  1
  Al  Al34  1  0.55577390  0.87244056  0.61042667  1
  B  B35  1  0.77777780  0.09444443  0.40047208  1
  N  N36  1  0.22245425  0.20509154  0.34810336  1
  N  N37  1  0.10682605  0.09676113  0.10162713  1
  N  N38  1  0.88880997  0.20547662  0.83808083  1
  N  N39  1  0.77777779  0.09444443  0.58457459  1
  N  N40  1  0.58492727  0.19086971  0.35194715  1
  N  N41  1  0.44641285  0.09676109  0.10162714  1
  N  N42  1  0.22298196  0.20403613  0.84890692  1
  N  N43  1  0.11110565  0.09428672  0.59386814  1
  N  N44  1  0.87420305  0.19086971  0.35194716  1
  N  N45  1  0.77777778  0.09444448  0.07717942  1
  N  N46  1  0.55571346  0.20547660  0.83808085  1
  N  N47  1  0.44460765  0.09428670  0.59386814  1
  N  N48  1  0.22245426  0.53912091  0.34810336  1
  N  N49  1  0.11111111  0.42777782  0.09785768  1
  N  N50  1  0.88736949  0.53964862  0.84890691  1
  N  N51  1  0.77762001  0.42777236  0.59386815  1
  N  N52  1  0.55487403  0.54025195  0.34689267  1
  N  N53  1  0.44641285  0.42349275  0.10162712  1
  N  N54  1  0.22298194  0.53964860  0.84890692  1
  N  N55  1  0.11111111  0.42777782  0.59941332  1
  N  N56  1  0.88842489  0.53912091  0.34810335  1
  N  N57  1  0.78009442  0.42349277  0.10162713  1
  N  N58  1  0.55642277  0.53715450  0.84946534  1
  N  N59  1  0.44460766  0.42777235  0.59386816  1
  N  N60  1  0.22358529  0.87154068  0.34689266  1
  N  N61  1  0.10682605  0.76307956  0.10162713  1
  N  N62  1  0.88880995  0.87238010  0.83808085  1
  N  N63  1  0.77762001  0.76127435  0.59386814  1
  N  N64  1  0.55487404  0.87154068  0.34689267  1
  N  N65  1  0.44444442  0.76111114  0.09655474  1
  N  N66  1  0.22048784  0.87308943  0.84946535  1
  N  N67  1  0.11110563  0.76127437  0.59386815  1
  N  N68  1  0.87420306  0.90159392  0.35194715  1
  N  N69  1  0.78009439  0.76307955  0.10162714  1
  N  N70  1  0.55642275  0.87308940  0.84946534  1
  N  N71  1  0.44444442  0.76111114  0.60031914  1
