# generated using pymatgen
data_Al35BN36
_symmetry_space_group_name_H-M   'P 1'
_cell_length_a   9.34320832
_cell_length_b   9.34320890
_cell_length_c   9.98341854
_cell_angle_alpha   89.99999210
_cell_angle_beta   89.99999745
_cell_angle_gamma   60.00000307
_symmetry_Int_Tables_number   1
_chemical_formula_structural   Al35BN36
_chemical_formula_sum   'Al35 B1 N36'
_cell_volume   754.74807694
_cell_formula_units_Z   1
loop_
 _symmetry_equiv_pos_site_id
 _symmetry_equiv_pos_as_xyz
  1  'x, y, z'
loop_
 _atom_site_type_symbol
 _atom_site_label
 _atom_site_symmetry_multiplicity
 _atom_site_fract_x
 _atom_site_fract_y
 _atom_site_fract_z
 _atom_site_occupancy
  Al  Al0  1  0.10765957  0.09273693  0.39278178  1
  Al  Al1  1  0.22212273  0.20575416  0.14278149  1
  Al  Al2  1  0.77777759  0.09444438  0.89078205  1
  Al  Al3  1  0.88765788  0.20432424  0.63609752  1
  Al  Al4  1  0.44960347  0.09273647  0.39278182  1
  Al  Al5  1  0.56115134  0.20275744  0.14678352  1
  Al  Al6  1  0.10934106  0.09520032  0.89243716  1
  Al  Al7  1  0.22239656  0.20520679  0.64255264  1
  Al  Al8  1  0.88609120  0.20275713  0.14678349  1
  Al  Al9  1  0.44545831  0.09520041  0.89243723  1
  Al  Al10  1  0.55801795  0.20432444  0.63609747  1
  Al  Al11  1  0.11111153  0.42777759  0.39336570  1
  Al  Al12  1  0.22212304  0.53879004  0.14278142  1
  Al  Al13  1  0.77853438  0.42600715  0.89243722  1
  Al  Al14  1  0.88854011  0.53906333  0.64255276  1
  Al  Al15  1  0.44960354  0.42432701  0.39278177  1
  Al  Al16  1  0.55569819  0.53860411  0.14252448  1
  Al  Al17  1  0.11111153  0.42777759  0.89267960  1
  Al  Al18  1  0.22239672  0.53906359  0.64255267  1
  Al  Al19  1  0.77606928  0.42432731  0.39278178  1
  Al  Al20  1  0.88908713  0.53878975  0.14278141  1
  Al  Al21  1  0.44545834  0.42600737  0.89243729  1
  Al  Al22  1  0.55557629  0.53884793  0.64314069  1
  Al  Al23  1  0.10765991  0.76626990  0.39278184  1
  Al  Al24  1  0.22193761  0.87236441  0.14252462  1
  Al  Al25  1  0.77853416  0.76212515  0.89243707  1
  Al  Al26  1  0.88765767  0.87468517  0.63609737  1
  Al  Al27  1  0.44444376  0.76111190  0.39297169  1
  Al  Al28  1  0.55569826  0.87236416  0.14252454  1
  Al  Al29  1  0.10934072  0.76212533  0.89243707  1
  Al  Al30  1  0.22218138  0.87224255  0.64314032  1
  Al  Al31  1  0.77606960  0.76626974  0.39278190  1
  Al  Al32  1  0.88609111  0.87781811  0.14678360  1
  Al  Al33  1  0.44444426  0.76111134  0.89276977  1
  Al  Al34  1  0.55557638  0.87224231  0.64314050  1
  B  B35  1  0.77777755  0.09444466  0.39643110  1
  N  N36  1  0.22251989  0.20496029  0.33405192  1
  N  N37  1  0.10870812  0.09572914  0.08491059  1
  N  N38  1  0.88801951  0.20468578  0.82860230  1
  N  N39  1  0.77777768  0.09444472  0.56175309  1
  N  N40  1  0.58058036  0.19304327  0.34067460  1
  N  N41  1  0.44556256  0.09572918  0.08491069  1
  N  N42  1  0.22243331  0.20513326  0.83403953  1
  N  N43  1  0.11160584  0.09395935  0.58298366  1
  N  N44  1  0.87637607  0.19304349  0.34067449  1
  N  N45  1  0.77777767  0.09444434  0.07957304  1
  N  N46  1  0.55729448  0.20468596  0.82860230  1
  N  N47  1  0.44443495  0.09395923  0.58298374  1
  N  N48  1  0.22252001  0.53918658  0.33405188  1
  N  N49  1  0.11111114  0.42777800  0.08349321  1
  N  N50  1  0.88846692  0.53909992  0.83403966  1
  N  N51  1  0.77729284  0.42827246  0.58298370  1
  N  N52  1  0.55525197  0.53949591  0.33295341  1
  N  N53  1  0.44556275  0.42537460  0.08491072  1
  N  N54  1  0.22243332  0.53910021  0.83403959  1
  N  N55  1  0.11111126  0.42777791  0.58410569  1
  N  N56  1  0.88829379  0.53918641  0.33405191  1
  N  N57  1  0.77906297  0.42537432  0.08491065  1
  N  N58  1  0.55574173  0.53851662  0.83427353  1
  N  N59  1  0.44443492  0.42827257  0.58298369  1
  N  N60  1  0.22282803  0.87191936  0.33295353  1
  N  N61  1  0.10870800  0.76222953  0.08491051  1
  N  N62  1  0.88801937  0.87396142  0.82860216  1
  N  N63  1  0.77729293  0.76110153  0.58298374  1
  N  N64  1  0.55525228  0.87191914  0.33295341  1
  N  N65  1  0.44444449  0.76111109  0.08338817  1
  N  N66  1  0.22185002  0.87240823  0.83427313  1
  N  N67  1  0.11160572  0.76110162  0.58298364  1
  N  N68  1  0.87637621  0.89724712  0.34067460  1
  N  N69  1  0.77906287  0.76222932  0.08491055  1
  N  N70  1  0.55574180  0.87240817  0.83427329  1
  N  N71  1  0.44444452  0.76111110  0.58411690  1
