# generated using pymatgen
data_Al35BN36
_symmetry_space_group_name_H-M   'P 1'
_cell_length_a   9.49599257
_cell_length_b   9.49600333
_cell_length_c   9.56562250
_cell_angle_alpha   89.99999500
_cell_angle_beta   89.99999980
_cell_angle_gamma   60.00004156
_symmetry_Int_Tables_number   1
_chemical_formula_structural   Al35BN36
_chemical_formula_sum   'Al35 B1 N36'
_cell_volume   747.00803893
_cell_formula_units_Z   1
loop_
 _symmetry_equiv_pos_site_id
 _symmetry_equiv_pos_as_xyz
  1  'x, y, z'
loop_
 _atom_site_type_symbol
 _atom_site_label
 _atom_site_symmetry_multiplicity
 _atom_site_fract_x
 _atom_site_fract_y
 _atom_site_fract_z
 _atom_site_occupancy
  Al  Al0  1  0.10800850  0.09244310  0.37956872  1
  Al  Al1  1  0.22185200  0.20629609  0.13069079  1
  Al  Al2  1  0.77777811  0.09444375  0.87767419  1
  Al  Al3  1  0.88828717  0.20495351  0.62357730  1
  Al  Al4  1  0.44954845  0.09244311  0.37956872  1
  Al  Al5  1  0.56291430  0.20187606  0.13639809  1
  Al  Al6  1  0.10866566  0.09567346  0.88108838  1
  Al  Al7  1  0.22272858  0.20454292  0.62993530  1
  Al  Al8  1  0.88520964  0.20187607  0.13639809  1
  Al  Al9  1  0.44566091  0.09567347  0.88108839  1
  Al  Al10  1  0.55675934  0.20495352  0.62357731  1
  Al  Al11  1  0.11111081  0.42777842  0.38175580  1
  Al  Al12  1  0.22185156  0.53851920  0.13069087  1
  Al  Al13  1  0.77900714  0.42533263  0.88108828  1
  Al  Al14  1  0.88787618  0.53939564  0.62993541  1
  Al  Al15  1  0.44954801  0.42467528  0.37956861  1
  Al  Al16  1  0.55554296  0.53891408  0.12977962  1
  Al  Al17  1  0.11111079  0.42777845  0.87931033  1
  Al  Al18  1  0.22272823  0.53939563  0.62993540  1
  Al  Al19  1  0.77577669  0.42467532  0.37956861  1
  Al  Al20  1  0.88962929  0.53851922  0.13069086  1
  Al  Al21  1  0.44566021  0.42533261  0.88108828  1
  Al  Al22  1  0.55586575  0.53826850  0.63125387  1
  Al  Al23  1  0.10800805  0.76621495  0.37956860  1
  Al  Al24  1  0.22224716  0.87220916  0.12977948  1
  Al  Al25  1  0.77900729  0.76232757  0.88108839  1
  Al  Al26  1  0.88828736  0.87342531  0.62357728  1
  Al  Al27  1  0.44444430  0.76111140  0.38163030  1
  Al  Al28  1  0.55554370  0.87220918  0.12977948  1
  Al  Al29  1  0.10866515  0.76232752  0.88108840  1
  Al  Al30  1  0.22160168  0.87253195  0.63125385  1
  Al  Al31  1  0.77577700  0.76621497  0.37956862  1
  Al  Al32  1  0.88521008  0.87957985  0.13639825  1
  Al  Al33  1  0.44444426  0.76111148  0.87944864  1
  Al  Al34  1  0.55586639  0.87253198  0.63125385  1
  B  B35  1  0.77777789  0.09444422  0.39273315  1
  N  N36  1  0.22234020  0.20531960  0.32939121  1
  N  N37  1  0.10785209  0.09625766  0.08142364  1
  N  N38  1  0.88812414  0.20479105  0.82296598  1
  N  N39  1  0.77777734  0.09444537  0.55975734  1
  N  N40  1  0.58161922  0.19252402  0.33686241  1
  N  N41  1  0.44589027  0.09625763  0.08142364  1
  N  N42  1  0.22275599  0.20448798  0.82951506  1
  N  N43  1  0.11169856  0.09384045  0.57745311  1
  N  N44  1  0.87585681  0.19252404  0.33686242  1
  N  N45  1  0.77777716  0.09444578  0.07261677  1
  N  N46  1  0.55708486  0.20479103  0.82296598  1
  N  N47  1  0.44446099  0.09384045  0.57745311  1
  N  N48  1  0.22234050  0.53900625  0.32939124  1
  N  N49  1  0.11111143  0.42777711  0.07798478  1
  N  N50  1  0.88782161  0.53942182  0.82951504  1
  N  N51  1  0.77717321  0.42836507  0.57745308  1
  N  N52  1  0.55491033  0.54017939  0.32789132  1
  N  N53  1  0.44589108  0.42451852  0.08142360  1
  N  N54  1  0.22275654  0.53942183  0.82951503  1
  N  N55  1  0.11111139  0.42777720  0.58031539  1
  N  N56  1  0.88865326  0.53900625  0.32939122  1
  N  N57  1  0.77959045  0.42451851  0.08142360  1
  N  N58  1  0.55615942  0.53768120  0.83029924  1
  N  N59  1  0.44446176  0.42836508  0.57745308  1
  N  N60  1  0.22351342  0.87157710  0.32789134  1
  N  N61  1  0.10785254  0.76255736  0.08142363  1
  N  N62  1  0.88812386  0.87375230  0.82296584  1
  N  N63  1  0.77717294  0.76112800  0.57745305  1
  N  N64  1  0.55490950  0.87157706  0.32789135  1
  N  N65  1  0.44444447  0.76111106  0.07763057  1
  N  N66  1  0.22101518  0.87282621  0.83029912  1
  N  N67  1  0.11169907  0.76112803  0.57745304  1
  N  N68  1  0.87585682  0.89828640  0.33686226  1
  N  N69  1  0.77959013  0.76255733  0.08142362  1
  N  N70  1  0.55615862  0.87282618  0.83029911  1
  N  N71  1  0.44444448  0.76111106  0.58074380  1
