# generated using pymatgen
data_Al31B5N36
_symmetry_space_group_name_H-M   'P 1'
_cell_length_a   9.15851297
_cell_length_b   9.20343751
_cell_length_c   10.16427430
_cell_angle_alpha   89.62701122
_cell_angle_beta   89.44692630
_cell_angle_gamma   60.05358393
_symmetry_Int_Tables_number   1
_chemical_formula_structural   Al31B5N36
_chemical_formula_sum   'Al31 B5 N36'
_cell_volume   742.32694077
_cell_formula_units_Z   1
loop_
 _symmetry_equiv_pos_site_id
 _symmetry_equiv_pos_as_xyz
  1  'x, y, z'
loop_
 _atom_site_type_symbol
 _atom_site_label
 _atom_site_symmetry_multiplicity
 _atom_site_fract_x
 _atom_site_fract_y
 _atom_site_fract_z
 _atom_site_occupancy
  Al  Al0  1  0.09661123  0.10425353  0.39356415  1
  Al  Al1  1  0.22218849  0.19701677  0.13618946  1
  Al  Al2  1  0.77801904  0.08484479  0.80903028  1
  Al  Al3  1  0.44630709  0.09049230  0.37409428  1
  Al  Al4  1  0.55917565  0.20356257  0.07443287  1
  Al  Al5  1  0.11218674  0.09640043  0.87583214  1
  Al  Al6  1  0.22604191  0.20554237  0.63752792  1
  Al  Al7  1  0.88697296  0.20791369  0.13957936  1
  Al  Al8  1  0.44558215  0.07993589  0.89375314  1
  Al  Al9  1  0.57538630  0.18790092  0.55879032  1
  Al  Al10  1  0.11040815  0.42690720  0.38462168  1
  Al  Al11  1  0.22409614  0.54109936  0.09086903  1
  Al  Al12  1  0.77795791  0.43275309  0.87734900  1
  Al  Al13  1  0.89506125  0.54217169  0.63907404  1
  Al  Al14  1  0.45767547  0.42492428  0.32094214  1
  Al  Al15  1  0.54682611  0.55456946  0.05993869  1
  Al  Al16  1  0.11172231  0.42748671  0.88858165  1
  Al  Al17  1  0.22304808  0.54180947  0.57598163  1
  Al  Al18  1  0.78787517  0.41690679  0.39253010  1
  Al  Al19  1  0.87872785  0.54171618  0.13948099  1
  Al  Al20  1  0.44739326  0.42712923  0.81616508  1
  Al  Al21  1  0.55430998  0.53650660  0.57793919  1
  Al  Al22  1  0.10669065  0.77561727  0.32120735  1
  Al  Al23  1  0.23558153  0.86598576  0.05842776  1
  Al  Al24  1  0.76458432  0.76288475  0.89707815  1
  Al  Al25  1  0.44420900  0.76272795  0.31783740  1
  Al  Al26  1  0.10735051  0.76295020  0.82067990  1
  Al  Al27  1  0.20717428  0.87555077  0.58053142  1
  Al  Al28  1  0.78032650  0.77209198  0.37935206  1
  Al  Al29  1  0.88484780  0.87672402  0.08692183  1
  Al  Al30  1  0.55996681  0.87442190  0.63964982  1
  B  B31  1  0.91521658  0.23562801  0.65183153  1
  B  B32  1  0.77513123  0.08919732  0.30693390  1
  B  B33  1  0.88037622  0.86622992  0.59682839  1
  B  B34  1  0.55893876  0.87275806  0.14629292  1
  B  B35  1  0.43930526  0.75758787  0.80682000  1
  N  N36  1  0.21779917  0.20528627  0.32241097  1
  N  N37  1  0.10220739  0.09939209  0.06427057  1
  N  N38  1  0.89251465  0.21520239  0.79844131  1
  N  N39  1  0.77724354  0.04068496  0.63313776  1
  N  N40  1  0.58506064  0.19510701  0.36956019  1
  N  N41  1  0.45320224  0.06553511  0.08483755  1
  N  N42  1  0.22810903  0.20618598  0.82389533  1
  N  N43  1  0.08094107  0.11796287  0.58782891  1
  N  N44  1  0.88024646  0.20026341  0.32556819  1
  N  N45  1  0.76827020  0.09406006  0.14744609  1
  N  N46  1  0.56217817  0.20709008  0.88550401  1
  N  N47  1  0.43793142  0.08436715  0.56239738  1
  N  N48  1  0.22695346  0.54491407  0.37357390  1
  N  N49  1  0.10744513  0.42513288  0.07895599  1
  N  N50  1  0.89010123  0.54602699  0.82484663  1
  N  N51  1  0.79893550  0.40349693  0.58747040  1
  N  N52  1  0.55494830  0.54680039  0.38966579  1
  N  N53  1  0.45055928  0.42942215  0.13243019  1
  N  N54  1  0.22542202  0.54118831  0.86634803  1
  N  N55  1  0.11147616  0.42215097  0.57395393  1
  N  N56  1  0.88713308  0.54069840  0.32634882  1
  N  N57  1  0.78102189  0.42243840  0.06622547  1
  N  N58  1  0.53887162  0.56850991  0.86684104  1
  N  N59  1  0.45341588  0.41186320  0.62824957  1
  N  N60  1  0.22792401  0.87211826  0.39264493  1
  N  N61  1  0.11720564  0.76570169  0.13179990  1
  N  N62  1  0.89151365  0.87851190  0.89613854  1
  N  N63  1  0.78797347  0.76262837  0.57181815  1
  N  N64  1  0.56425247  0.87739522  0.30576045  1
  N  N65  1  0.45184577  0.77137772  0.13009068  1
  N  N66  1  0.24836837  0.85755054  0.86456424  1
  N  N67  1  0.07487462  0.77275069  0.62868469  1
  N  N68  1  0.87778424  0.90321752  0.35105686  1
  N  N69  1  0.74744039  0.76942302  0.08619201  1
  N  N70  1  0.54721414  0.86244203  0.82479113  1
  N  N71  1  0.43367051  0.75541899  0.64728607  1
