# generated using pymatgen
data_Al31B5N36
_symmetry_space_group_name_H-M   'P 1'
_cell_length_a   9.16978020
_cell_length_b   9.16821721
_cell_length_c   9.80039141
_cell_angle_alpha   90.11388921
_cell_angle_beta   90.03449367
_cell_angle_gamma   60.05093429
_symmetry_Int_Tables_number   1
_chemical_formula_structural   Al31B5N36
_chemical_formula_sum   'Al31 B5 N36'
_cell_volume   713.90371526
_cell_formula_units_Z   1
loop_
 _symmetry_equiv_pos_site_id
 _symmetry_equiv_pos_as_xyz
  1  'x, y, z'
loop_
 _atom_site_type_symbol
 _atom_site_label
 _atom_site_symmetry_multiplicity
 _atom_site_fract_x
 _atom_site_fract_y
 _atom_site_fract_z
 _atom_site_occupancy
  Al  Al0  1  0.10255215  0.09368851  0.41330004  1
  Al  Al1  1  0.22460944  0.20004201  0.15913223  1
  Al  Al2  1  0.77954185  0.09353611  0.89483101  1
  Al  Al3  1  0.45038889  0.08899564  0.40234798  1
  Al  Al4  1  0.56460655  0.19716331  0.16279747  1
  Al  Al5  1  0.11304334  0.09219940  0.90373955  1
  Al  Al6  1  0.21920820  0.20603491  0.65903988  1
  Al  Al7  1  0.88600975  0.20181406  0.16115945  1
  Al  Al8  1  0.44684953  0.08672659  0.91269981  1
  Al  Al9  1  0.56514194  0.19975565  0.65036592  1
  Al  Al10  1  0.10971049  0.42823245  0.40903788  1
  Al  Al11  1  0.22092183  0.54088762  0.16019778  1
  Al  Al12  1  0.77695793  0.42852312  0.90258259  1
  Al  Al13  1  0.88954259  0.54029352  0.65792069  1
  Al  Al14  1  0.44991201  0.42535682  0.40866961  1
  Al  Al15  1  0.55718391  0.54408445  0.15123594  1
  Al  Al16  1  0.11117264  0.42841722  0.91047536  1
  Al  Al17  1  0.21739462  0.54305315  0.65894650  1
  Al  Al18  1  0.77664268  0.41860478  0.41362518  1
  Al  Al19  1  0.88147895  0.54371475  0.15969541  1
  Al  Al20  1  0.44414860  0.43069275  0.90868005  1
  Al  Al21  1  0.55624132  0.54020308  0.66405659  1
  Al  Al22  1  0.10203246  0.77090155  0.41298573  1
  Al  Al23  1  0.22695624  0.87284727  0.15187683  1
  Al  Al24  1  0.77116170  0.76488759  0.90674872  1
  Al  Al25  1  0.44628847  0.76172701  0.40077414  1
  Al  Al26  1  0.11281906  0.76263362  0.90348076  1
  Al  Al27  1  0.22026155  0.87391105  0.66328031  1
  Al  Al28  1  0.77393278  0.77210319  0.40715289  1
  Al  Al29  1  0.88101308  0.88011788  0.16102343  1
  Al  Al30  1  0.55705477  0.87186586  0.66170359  1
  B  B31  1  0.89420204  0.19859923  0.65956939  1
  B  B32  1  0.78622554  0.09010905  0.41587436  1
  B  B33  1  0.89306118  0.87507790  0.65823397  1
  B  B34  1  0.55691744  0.87295553  0.15577495  1
  B  B35  1  0.44951146  0.76552614  0.91406468  1
  N  N36  1  0.22003591  0.20355846  0.35170637  1
  N  N37  1  0.10664050  0.09660592  0.09642983  1
  N  N38  1  0.88990183  0.20373324  0.82465274  1
  N  N39  1  0.80023784  0.08314095  0.59327139  1
  N  N40  1  0.58325219  0.19152301  0.36061285  1
  N  N41  1  0.45802219  0.07094429  0.10835690  1
  N  N42  1  0.22450814  0.20544058  0.85164132  1
  N  N43  1  0.08810307  0.10458852  0.60843136  1
  N  N44  1  0.87588650  0.19091383  0.35554992  1
  N  N45  1  0.77922436  0.09384763  0.08674203  1
  N  N46  1  0.55403898  0.20454827  0.84500176  1
  N  N47  1  0.44410526  0.09132647  0.59571783  1
  N  N48  1  0.22051342  0.54271827  0.35315447  1
  N  N49  1  0.10963841  0.42799232  0.10306190  1
  N  N50  1  0.88894737  0.54130727  0.85011255  1
  N  N51  1  0.78799851  0.40302639  0.60849964  1
  N  N52  1  0.55742317  0.53860667  0.34471830  1
  N  N53  1  0.44545729  0.42428908  0.10225419  1
  N  N54  1  0.22212974  0.53908695  0.85009717  1
  N  N55  1  0.11099477  0.42767136  0.59970548  1
  N  N56  1  0.88388207  0.54094465  0.35416163  1
  N  N57  1  0.78133138  0.42246951  0.09598320  1
  N  N58  1  0.54329614  0.56532616  0.85970935  1
  N  N59  1  0.44385985  0.43036811  0.60130693  1
  N  N60  1  0.22163950  0.87251339  0.34705592  1
  N  N61  1  0.10585130  0.76369094  0.09735829  1
  N  N62  1  0.88851294  0.87283414  0.82527257  1
  N  N63  1  0.78662840  0.77718815  0.60356601  1
  N  N64  1  0.55596413  0.87005585  0.32394052  1
  N  N65  1  0.45674071  0.77368348  0.08652528  1
  N  N66  1  0.24977743  0.85944418  0.85815741  1
  N  N67  1  0.08749687  0.77532566  0.60823232  1
  N  N68  1  0.87545579  0.90018539  0.35476576  1
  N  N69  1  0.75472541  0.77558902  0.10399337  1
  N  N70  1  0.54327796  0.86005367  0.85345611  1
  N  N71  1  0.44617379  0.76159782  0.59306889  1
