# generated using pymatgen
data_Al31B5N36
_symmetry_space_group_name_H-M   'P 1'
_cell_length_a   9.18258198
_cell_length_b   9.18114274
_cell_length_c   10.05557178
_cell_angle_alpha   89.58405410
_cell_angle_beta   89.40087895
_cell_angle_gamma   60.06964072
_symmetry_Int_Tables_number   1
_chemical_formula_structural   Al31B5N36
_chemical_formula_sum   'Al31 B5 N36'
_cell_volume   734.64638016
_cell_formula_units_Z   1
loop_
 _symmetry_equiv_pos_site_id
 _symmetry_equiv_pos_as_xyz
  1  'x, y, z'
loop_
 _atom_site_type_symbol
 _atom_site_label
 _atom_site_symmetry_multiplicity
 _atom_site_fract_x
 _atom_site_fract_y
 _atom_site_fract_z
 _atom_site_occupancy
  Al  Al0  1  0.10174779  0.09568864  0.39764869  1
  Al  Al1  1  0.22579820  0.19979009  0.14072191  1
  Al  Al2  1  0.77917358  0.09160119  0.85209509  1
  Al  Al3  1  0.44808780  0.08958306  0.38164113  1
  Al  Al4  1  0.55854133  0.20522570  0.06410391  1
  Al  Al5  1  0.10944463  0.09846375  0.87834749  1
  Al  Al6  1  0.21915505  0.20716693  0.63826131  1
  Al  Al7  1  0.88638399  0.20380710  0.13077113  1
  Al  Al8  1  0.43951326  0.07863608  0.89278063  1
  Al  Al9  1  0.57965127  0.19341218  0.57222380  1
  Al  Al10  1  0.11034702  0.42975841  0.38907864  1
  Al  Al11  1  0.21698078  0.54333382  0.14113542  1
  Al  Al12  1  0.77866856  0.42873841  0.87749370  1
  Al  Al13  1  0.88656886  0.53883586  0.63819722  1
  Al  Al14  1  0.46023606  0.42355710  0.32083802  1
  Al  Al15  1  0.54792627  0.55357644  0.06080627  1
  Al  Al16  1  0.11094130  0.42739447  0.89044083  1
  Al  Al17  1  0.20803662  0.54438985  0.63726947  1
  Al  Al18  1  0.78670905  0.41447792  0.39340309  1
  Al  Al19  1  0.88010284  0.54385624  0.13943056  1
  Al  Al20  1  0.44799874  0.42704817  0.81263736  1
  Al  Al21  1  0.55279602  0.53593775  0.57327909  1
  Al  Al22  1  0.10201465  0.77291683  0.39751283  1
  Al  Al23  1  0.23427665  0.87143162  0.07582783  1
  Al  Al24  1  0.76746835  0.76160596  0.88957052  1
  Al  Al25  1  0.44564616  0.76266788  0.31549933  1
  Al  Al26  1  0.11018308  0.75704595  0.88095498  1
  Al  Al27  1  0.21060147  0.87746953  0.62296803  1
  Al  Al28  1  0.77698997  0.77285402  0.38970258  1
  Al  Al29  1  0.88213655  0.88038060  0.13396245  1
  Al  Al30  1  0.56071263  0.87416946  0.64232684  1
  B  B31  1  0.89373742  0.19772203  0.64910311  1
  B  B32  1  0.78123360  0.09445114  0.34920172  1
  B  B33  1  0.89344140  0.87941057  0.65113616  1
  B  B34  1  0.56126719  0.87682354  0.14536225  1
  B  B35  1  0.44487642  0.75471687  0.80613003  1
  N  N36  1  0.21909716  0.20576752  0.32930574  1
  N  N37  1  0.10872029  0.10079741  0.07012166  1
  N  N38  1  0.89150996  0.20996647  0.80879244  1
  N  N39  1  0.80309783  0.07966052  0.62568054  1
  N  N40  1  0.59240034  0.19114951  0.37251744  1
  N  N41  1  0.45652506  0.06689835  0.08764990  1
  N  N42  1  0.22382871  0.20662619  0.82615191  1
  N  N43  1  0.08312452  0.11082391  0.59063956  1
  N  N44  1  0.87587389  0.19116725  0.32474581  1
  N  N45  1  0.78975528  0.08952396  0.05879465  1
  N  N46  1  0.54485935  0.20881191  0.87343117  1
  N  N47  1  0.44238541  0.08963021  0.57147781  1
  N  N48  1  0.21747805  0.54705296  0.33308708  1
  N  N49  1  0.11119828  0.42766022  0.08020824  1
  N  N50  1  0.88890139  0.54090193  0.82661821  1
  N  N51  1  0.79295559  0.39582957  0.58645362  1
  N  N52  1  0.55500614  0.54599030  0.38365689  1
  N  N53  1  0.45359638  0.42614280  0.12970271  1
  N  N54  1  0.21651021  0.53923010  0.82599782  1
  N  N55  1  0.10795689  0.42731858  0.57536169  1
  N  N56  1  0.88582032  0.54154770  0.33008851  1
  N  N57  1  0.78146616  0.42538745  0.07077904  1
  N  N58  1  0.53672965  0.56630804  0.86816498  1
  N  N59  1  0.44649389  0.41922047  0.62229373  1
  N  N60  1  0.22948803  0.87159536  0.37412114  1
  N  N61  1  0.10936387  0.76087300  0.07283942  1
  N  N62  1  0.88921730  0.86153889  0.81215296  1
  N  N63  1  0.78476229  0.77392398  0.58061559  1
  N  N64  1  0.56647381  0.87791109  0.30796696  1
  N  N65  1  0.45730765  0.77203543  0.12579643  1
  N  N66  1  0.24263644  0.86200998  0.84651635  1
  N  N67  1  0.07937346  0.77537336  0.59046458  1
  N  N68  1  0.87682978  0.90422252  0.32697336  1
  N  N69  1  0.75442942  0.77523926  0.08386414  1
  N  N70  1  0.54451642  0.85900218  0.82950919  1
  N  N71  1  0.44449650  0.75123185  0.64488140  1
