# generated using pymatgen
data_Al31B5N36
_symmetry_space_group_name_H-M   'P 1'
_cell_length_a   9.17630665
_cell_length_b   9.16750819
_cell_length_c   10.06863949
_cell_angle_alpha   89.47267561
_cell_angle_beta   89.31196020
_cell_angle_gamma   59.97921587
_symmetry_Int_Tables_number   1
_chemical_formula_structural   Al31B5N36
_chemical_formula_sum   'Al31 B5 N36'
_cell_volume   733.32312516
_cell_formula_units_Z   1
loop_
 _symmetry_equiv_pos_site_id
 _symmetry_equiv_pos_as_xyz
  1  'x, y, z'
loop_
 _atom_site_type_symbol
 _atom_site_label
 _atom_site_symmetry_multiplicity
 _atom_site_fract_x
 _atom_site_fract_y
 _atom_site_fract_z
 _atom_site_occupancy
  Al  Al0  1  0.10203638  0.09361956  0.39495981  1
  Al  Al1  1  0.22553566  0.19999449  0.14047588  1
  Al  Al2  1  0.78096588  0.09066704  0.85116579  1
  Al  Al3  1  0.44824446  0.09113672  0.38335495  1
  Al  Al4  1  0.55774499  0.20571981  0.06231439  1
  Al  Al5  1  0.11438450  0.09008570  0.88594027  1
  Al  Al6  1  0.21901595  0.20566844  0.63910152  1
  Al  Al7  1  0.88329781  0.20610929  0.13020868  1
  Al  Al8  1  0.43939535  0.07806428  0.89229044  1
  Al  Al9  1  0.57998654  0.19508686  0.57298829  1
  Al  Al10  1  0.11060254  0.42880762  0.39004493  1
  Al  Al11  1  0.21556432  0.54267029  0.14051426  1
  Al  Al12  1  0.77959215  0.42735203  0.87695348  1
  Al  Al13  1  0.88715064  0.53884097  0.63855613  1
  Al  Al14  1  0.46042535  0.42205393  0.31806077  1
  Al  Al15  1  0.54325150  0.55970302  0.05889128  1
  Al  Al16  1  0.11078016  0.42691392  0.88992826  1
  Al  Al17  1  0.20826768  0.54563718  0.63777112  1
  Al  Al18  1  0.78800248  0.41288055  0.39346425  1
  Al  Al19  1  0.87836399  0.54419528  0.13911152  1
  Al  Al20  1  0.44771434  0.42790234  0.81264528  1
  Al  Al21  1  0.55367703  0.53567274  0.57179254  1
  Al  Al22  1  0.10171946  0.77213323  0.39504667  1
  Al  Al23  1  0.21905251  0.87816107  0.13761079  1
  Al  Al24  1  0.76829820  0.76153584  0.88830840  1
  Al  Al25  1  0.45392280  0.75840871  0.31852867  1
  Al  Al26  1  0.11487826  0.75871773  0.88682751  1
  Al  Al27  1  0.20943067  0.87788810  0.64133489  1
  Al  Al28  1  0.77791042  0.77315193  0.39070821  1
  Al  Al29  1  0.87938684  0.88048524  0.13338437  1
  Al  Al30  1  0.56136737  0.87512604  0.64019249  1
  B  B31  1  0.89615475  0.19490842  0.64798711  1
  B  B32  1  0.78058612  0.09442346  0.34886666  1
  B  B33  1  0.89511756  0.87860523  0.64937882  1
  B  B34  1  0.55879285  0.87642577  0.14460140  1
  B  B35  1  0.44441399  0.75661047  0.80652267  1
  N  N36  1  0.21968317  0.20469028  0.32964799  1
  N  N37  1  0.10882016  0.09762479  0.07486442  1
  N  N38  1  0.89639682  0.20672339  0.80867251  1
  N  N39  1  0.80460359  0.07970922  0.62498592  1
  N  N40  1  0.59209546  0.19149390  0.37261308  1
  N  N41  1  0.45605429  0.06736716  0.08703641  1
  N  N42  1  0.22258232  0.20450952  0.82758815  1
  N  N43  1  0.08728534  0.10541860  0.58545173  1
  N  N44  1  0.87507940  0.19111436  0.32428731  1
  N  N45  1  0.78896867  0.08989927  0.05825262  1
  N  N46  1  0.54562540  0.20805417  0.87190654  1
  N  N47  1  0.44283939  0.09243773  0.57268148  1
  N  N48  1  0.21791237  0.54536655  0.33263132  1
  N  N49  1  0.10960572  0.42766178  0.07974274  1
  N  N50  1  0.88882062  0.54061261  0.82613529  1
  N  N51  1  0.79462999  0.39493958  0.58603197  1
  N  N52  1  0.55583375  0.54234995  0.38256753  1
  N  N53  1  0.45226653  0.42725079  0.12740475  1
  N  N54  1  0.21594068  0.54072169  0.82724964  1
  N  N55  1  0.10882624  0.42712670  0.57631355  1
  N  N56  1  0.88555906  0.54157423  0.33030093  1
  N  N57  1  0.77856763  0.42717493  0.06966655  1
  N  N58  1  0.53594304  0.56870281  0.86579998  1
  N  N59  1  0.44678012  0.42080986  0.62316059  1
  N  N60  1  0.21901791  0.87505051  0.33240201  1
  N  N61  1  0.10931317  0.76282678  0.07666985  1
  N  N62  1  0.89336947  0.85992458  0.81195272  1
  N  N63  1  0.78797514  0.77570109  0.58162195  1
  N  N64  1  0.56672651  0.87904207  0.31069388  1
  N  N65  1  0.45737774  0.77372972  0.12817367  1
  N  N66  1  0.24148888  0.86175566  0.83027223  1
  N  N67  1  0.08400091  0.77632167  0.58579293  1
  N  N68  1  0.87575116  0.90417079  0.32647078  1
  N  N69  1  0.75293910  0.77544832  0.08304271  1
  N  N70  1  0.54395278  0.85829211  0.82737840  1
  N  N71  1  0.44591524  0.75535671  0.63008034  1
