# generated using pymatgen
data_Al31B5N36
_symmetry_space_group_name_H-M   'P 1'
_cell_length_a   9.21177371
_cell_length_b   9.20408792
_cell_length_c   9.92374230
_cell_angle_alpha   90.23528638
_cell_angle_beta   89.97148638
_cell_angle_gamma   59.87936532
_symmetry_Int_Tables_number   1
_chemical_formula_structural   Al31B5N36
_chemical_formula_sum   'Al31 B5 N36'
_cell_volume   727.77202365
_cell_formula_units_Z   1
loop_
 _symmetry_equiv_pos_site_id
 _symmetry_equiv_pos_as_xyz
  1  'x, y, z'
loop_
 _atom_site_type_symbol
 _atom_site_label
 _atom_site_symmetry_multiplicity
 _atom_site_fract_x
 _atom_site_fract_y
 _atom_site_fract_z
 _atom_site_occupancy
  Al  Al0  1  0.10595527  0.09085572  0.32794826  1
  Al  Al1  1  0.22575609  0.19824562  0.07949337  1
  Al  Al2  1  0.78140092  0.08755041  0.82510112  1
  Al  Al3  1  0.45667703  0.08321207  0.33021393  1
  Al  Al4  1  0.56101303  0.20068981  0.07812237  1
  Al  Al5  1  0.10898332  0.09305108  0.81817074  1
  Al  Al6  1  0.21885612  0.20243673  0.57052281  1
  Al  Al7  1  0.88773889  0.20827539  0.07770108  1
  Al  Al8  1  0.44164319  0.09188120  0.82132157  1
  Al  Al9  1  0.57035732  0.19476571  0.56823874  1
  Al  Al10  1  0.11189339  0.42957326  0.36326595  1
  Al  Al11  1  0.22550255  0.54226013  0.07297595  1
  Al  Al12  1  0.77112857  0.42210869  0.81857375  1
  Al  Al13  1  0.89140566  0.54356659  0.63850317  1
  Al  Al14  1  0.45122110  0.42394084  0.32135663  1
  Al  Al15  1  0.55862626  0.54938596  0.06928793  1
  Al  Al16  1  0.10709329  0.42827975  0.86326187  1
  Al  Al17  1  0.22083842  0.54380161  0.57589896  1
  Al  Al18  1  0.77602956  0.41790923  0.33583124  1
  Al  Al19  1  0.88043072  0.55126904  0.15067376  1
  Al  Al20  1  0.44512795  0.42952100  0.82230928  1
  Al  Al21  1  0.55800520  0.53154104  0.57527866  1
  Al  Al22  1  0.10944518  0.76835151  0.31931151  1
  Al  Al23  1  0.23411950  0.87445296  0.06643153  1
  Al  Al24  1  0.75869885  0.76440751  0.89604873  1
  Al  Al25  1  0.44927619  0.76319297  0.33124025  1
  Al  Al26  1  0.10756850  0.76476546  0.83034423  1
  Al  Al27  1  0.21190511  0.87488445  0.57623480  1
  Al  Al28  1  0.78275929  0.77574354  0.40205065  1
  Al  Al29  1  0.88307570  0.88159828  0.10409795  1
  Al  Al30  1  0.55459912  0.87244182  0.60905644  1
  B  B31  1  0.89401601  0.19274505  0.56544740  1
  B  B32  1  0.77702101  0.09165140  0.31836306  1
  B  B33  1  0.89443001  0.87638003  0.61176099  1
  B  B34  1  0.55422994  0.87286766  0.11436337  1
  B  B35  1  0.44308711  0.76113965  0.81069005  1
  N  N36  1  0.22677964  0.19892835  0.37764482  1
  N  N37  1  0.10995888  0.09299211  0.13655030  1
  N  N38  1  0.88723850  0.20337777  0.88751591  1
  N  N39  1  0.80378979  0.07203072  0.62781711  1
  N  N40  1  0.58186776  0.19134309  0.37488543  1
  N  N41  1  0.46137656  0.06454406  0.13251058  1
  N  N42  1  0.22200894  0.19926501  0.88567434  1
  N  N43  1  0.08464528  0.10613091  0.62386007  1
  N  N44  1  0.88098831  0.19064680  0.39943351  1
  N  N45  1  0.77381239  0.10944753  0.15521770  1
  N  N46  1  0.55701935  0.20233134  0.88558304  1
  N  N47  1  0.43939712  0.10468717  0.63134568  1
  N  N48  1  0.22609296  0.54480335  0.38276974  1
  N  N49  1  0.10933406  0.43122053  0.11110190  1
  N  N50  1  0.88103915  0.54446408  0.83334023  1
  N  N51  1  0.78906502  0.39492915  0.62290088  1
  N  N52  1  0.55346259  0.54042518  0.38626164  1
  N  N53  1  0.44771847  0.43030613  0.13009410  1
  N  N54  1  0.22369832  0.54060645  0.88025841  1
  N  N55  1  0.11263080  0.42689819  0.60433982  1
  N  N56  1  0.88282468  0.55011305  0.34621041  1
  N  N57  1  0.77424273  0.42721932  0.13931989  1
  N  N58  1  0.54363731  0.56294776  0.87516771  1
  N  N59  1  0.44744295  0.42064599  0.63202221  1
  N  N60  1  0.22529713  0.86959817  0.38721603  1
  N  N61  1  0.12146670  0.76360851  0.12848517  1
  N  N62  1  0.88728516  0.87420982  0.89962283  1
  N  N63  1  0.79939166  0.78133103  0.59749135  1
  N  N64  1  0.55256061  0.87141956  0.40466498  1
  N  N65  1  0.45952862  0.77844876  0.13497407  1
  N  N66  1  0.24544818  0.86183885  0.87171641  1
  N  N67  1  0.08314219  0.77601338  0.63413249  1
  N  N68  1  0.87630708  0.89756854  0.33793425  1
  N  N69  1  0.74115097  0.77726894  0.09381316  1
  N  N70  1  0.54176065  0.85841955  0.83242603  1
  N  N71  1  0.43592137  0.75265599  0.64773469  1
