# generated using pymatgen
data_Al31B5N36
_symmetry_space_group_name_H-M   'P 1'
_cell_length_a   9.21002716
_cell_length_b   9.19011050
_cell_length_c   10.01607061
_cell_angle_alpha   90.03904017
_cell_angle_beta   89.95838771
_cell_angle_gamma   60.07901170
_symmetry_Int_Tables_number   1
_chemical_formula_structural   Al31B5N36
_chemical_formula_sum   'Al31 B5 N36'
_cell_volume   734.77512889
_cell_formula_units_Z   1
loop_
 _symmetry_equiv_pos_site_id
 _symmetry_equiv_pos_as_xyz
  1  'x, y, z'
loop_
 _atom_site_type_symbol
 _atom_site_label
 _atom_site_symmetry_multiplicity
 _atom_site_fract_x
 _atom_site_fract_y
 _atom_site_fract_z
 _atom_site_occupancy
  Al  Al0  1  0.10571272  0.08653056  0.32830789  1
  Al  Al1  1  0.22456620  0.20703353  0.14347011  1
  Al  Al2  1  0.78062785  0.08898570  0.82217898  1
  Al  Al3  1  0.46324553  0.08052976  0.33550657  1
  Al  Al4  1  0.56149815  0.20067679  0.07609772  1
  Al  Al5  1  0.10337198  0.09121079  0.81485892  1
  Al  Al6  1  0.21416759  0.21050808  0.62550147  1
  Al  Al7  1  0.88878193  0.20476982  0.07478162  1
  Al  Al8  1  0.44492535  0.09089227  0.81859275  1
  Al  Al9  1  0.57299221  0.19499502  0.56545533  1
  Al  Al10  1  0.10941412  0.42702990  0.38906752  1
  Al  Al11  1  0.22554072  0.54491529  0.07104747  1
  Al  Al12  1  0.77236411  0.43612456  0.88281884  1
  Al  Al13  1  0.89162811  0.53780922  0.64608522  1
  Al  Al14  1  0.45324790  0.42266876  0.32044994  1
  Al  Al15  1  0.54522761  0.55795506  0.06936675  1
  Al  Al16  1  0.10494680  0.42475628  0.89388833  1
  Al  Al17  1  0.22145321  0.54470346  0.57366736  1
  Al  Al18  1  0.78539193  0.41732620  0.39683088  1
  Al  Al19  1  0.87597611  0.54821244  0.14794226  1
  Al  Al20  1  0.44329998  0.43084792  0.82120886  1
  Al  Al21  1  0.55381956  0.53472334  0.57919461  1
  Al  Al22  1  0.11134334  0.76521508  0.31660020  1
  Al  Al23  1  0.23262309  0.87933397  0.06316614  1
  Al  Al24  1  0.75913619  0.76729019  0.89542885  1
  Al  Al25  1  0.45072491  0.76136208  0.32983154  1
  Al  Al26  1  0.10739415  0.76335278  0.82962986  1
  Al  Al27  1  0.21286285  0.87325404  0.57332099  1
  Al  Al28  1  0.78589589  0.77041367  0.39948386  1
  Al  Al29  1  0.88250251  0.88213258  0.10526469  1
  Al  Al30  1  0.55699716  0.87047887  0.60657999  1
  B  B31  1  0.89854878  0.17986202  0.56162015  1
  B  B32  1  0.78007381  0.09075167  0.31690620  1
  B  B33  1  0.89579421  0.87223272  0.61105228  1
  B  B34  1  0.55497371  0.87471804  0.11426939  1
  B  B35  1  0.44132791  0.76213839  0.80958261  1
  N  N36  1  0.22691658  0.20427212  0.33993007  1
  N  N37  1  0.10692731  0.09338797  0.13527960  1
  N  N38  1  0.88780333  0.20030547  0.88363264  1
  N  N39  1  0.80561939  0.06993217  0.62524422  1
  N  N40  1  0.58555661  0.19077290  0.37473248  1
  N  N41  1  0.46526240  0.06427073  0.13270629  1
  N  N42  1  0.21476377  0.20911265  0.83176738  1
  N  N43  1  0.08230132  0.10220577  0.61847988  1
  N  N44  1  0.88376383  0.17922766  0.39521926  1
  N  N45  1  0.77312154  0.11128058  0.15477909  1
  N  N46  1  0.55690917  0.20326457  0.88470702  1
  N  N47  1  0.44619873  0.10184157  0.62449069  1
  N  N48  1  0.22741669  0.54299276  0.38045209  1
  N  N49  1  0.10397958  0.43129889  0.08766801  1
  N  N50  1  0.88562911  0.54558067  0.83265472  1
  N  N51  1  0.79266525  0.40000379  0.59155730  1
  N  N52  1  0.55433941  0.53954616  0.38508189  1
  N  N53  1  0.44597440  0.42978369  0.13071587  1
  N  N54  1  0.22317706  0.54012085  0.87955658  1
  N  N55  1  0.10482477  0.42986205  0.57886964  1
  N  N56  1  0.88502903  0.54306931  0.33642148  1
  N  N57  1  0.77424595  0.43618317  0.08170302  1
  N  N58  1  0.53442203  0.57033631  0.87349843  1
  N  N59  1  0.44652392  0.41973596  0.63229965  1
  N  N60  1  0.22731510  0.86653015  0.38626375  1
  N  N61  1  0.12212171  0.76474833  0.12706246  1
  N  N62  1  0.88728987  0.87612618  0.89827153  1
  N  N63  1  0.80191522  0.77630630  0.59488501  1
  N  N64  1  0.55559902  0.86728180  0.40419132  1
  N  N65  1  0.45689257  0.78233594  0.13552349  1
  N  N66  1  0.24361173  0.86398595  0.87053468  1
  N  N67  1  0.08393668  0.77383436  0.63357182  1
  N  N68  1  0.87742046  0.89360596  0.33280771  1
  N  N69  1  0.74113851  0.77821160  0.09231337  1
  N  N70  1  0.54301595  0.85840550  0.82994752  1
  N  N71  1  0.43379544  0.75521505  0.64721327  1
