# generated using pymatgen
data_Al31B5N36
_symmetry_space_group_name_H-M   'P 1'
_cell_length_a   9.20480342
_cell_length_b   9.17923938
_cell_length_c   10.04658040
_cell_angle_alpha   90.01908841
_cell_angle_beta   89.93891701
_cell_angle_gamma   60.12504072
_symmetry_Int_Tables_number   1
_chemical_formula_structural   Al31B5N36
_chemical_formula_sum   'Al31 B5 N36'
_cell_volume   736.06383106
_cell_formula_units_Z   1
loop_
 _symmetry_equiv_pos_site_id
 _symmetry_equiv_pos_as_xyz
  1  'x, y, z'
loop_
 _atom_site_type_symbol
 _atom_site_label
 _atom_site_symmetry_multiplicity
 _atom_site_fract_x
 _atom_site_fract_y
 _atom_site_fract_z
 _atom_site_occupancy
  Al  Al0  1  0.10498011  0.08621355  0.32462537  1
  Al  Al1  1  0.22637324  0.20569414  0.14238092  1
  Al  Al2  1  0.78148380  0.08918401  0.81905354  1
  Al  Al3  1  0.46089485  0.08121704  0.34148468  1
  Al  Al4  1  0.56117940  0.19945654  0.07245399  1
  Al  Al5  1  0.10342448  0.09047152  0.81137951  1
  Al  Al6  1  0.21274503  0.21344015  0.62752920  1
  Al  Al7  1  0.88890282  0.20436792  0.07180893  1
  Al  Al8  1  0.44669243  0.09096001  0.81349605  1
  Al  Al9  1  0.57410875  0.19642990  0.56295597  1
  Al  Al10  1  0.10909031  0.42627308  0.38736925  1
  Al  Al11  1  0.22560133  0.54365503  0.06693767  1
  Al  Al12  1  0.77252462  0.43659906  0.88062236  1
  Al  Al13  1  0.89072145  0.53899098  0.64275532  1
  Al  Al14  1  0.45312883  0.42161212  0.31643811  1
  Al  Al15  1  0.54491873  0.55769790  0.06620733  1
  Al  Al16  1  0.10550008  0.42396428  0.88974795  1
  Al  Al17  1  0.22144552  0.54551416  0.56995056  1
  Al  Al18  1  0.78521626  0.41723897  0.39304817  1
  Al  Al19  1  0.87706562  0.54704075  0.14396445  1
  Al  Al20  1  0.44363497  0.43187697  0.81752706  1
  Al  Al21  1  0.55324179  0.53582770  0.57457363  1
  Al  Al22  1  0.11155115  0.76412312  0.31288450  1
  Al  Al23  1  0.23258133  0.87887355  0.06025777  1
  Al  Al24  1  0.75974298  0.76730508  0.89217064  1
  Al  Al25  1  0.45042335  0.76064644  0.32572116  1
  Al  Al26  1  0.10790976  0.76325558  0.82610892  1
  Al  Al27  1  0.21249497  0.87455320  0.56937855  1
  Al  Al28  1  0.78624170  0.76948926  0.39594518  1
  Al  Al29  1  0.88229888  0.88165911  0.10272301  1
  Al  Al30  1  0.55730367  0.87000472  0.60409733  1
  B  B31  1  0.89893442  0.18027498  0.55835866  1
  B  B32  1  0.77968966  0.09014611  0.31355615  1
  B  B33  1  0.89608885  0.87258303  0.60809723  1
  B  B34  1  0.55457901  0.87522429  0.11138761  1
  B  B35  1  0.44156275  0.76216848  0.80579300  1
  N  N36  1  0.22601805  0.20452074  0.33589822  1
  N  N37  1  0.10704795  0.09300519  0.13220885  1
  N  N38  1  0.88856865  0.20052849  0.88097292  1
  N  N39  1  0.80606136  0.07046498  0.62248218  1
  N  N40  1  0.58596620  0.19034614  0.37256493  1
  N  N41  1  0.46502397  0.06372239  0.12809699  1
  N  N42  1  0.21535734  0.20964866  0.82368975  1
  N  N43  1  0.08187616  0.10320877  0.61549659  1
  N  N44  1  0.88373460  0.17898685  0.39205697  1
  N  N45  1  0.77258264  0.11120674  0.15165244  1
  N  N46  1  0.55739229  0.20378909  0.88059222  1
  N  N47  1  0.44567518  0.10269787  0.61771839  1
  N  N48  1  0.22759044  0.54203339  0.37729970  1
  N  N49  1  0.10490801  0.42856079  0.08230414  1
  N  N50  1  0.88597522  0.54550030  0.82892444  1
  N  N51  1  0.79208222  0.40142954  0.58708059  1
  N  N52  1  0.55402170  0.53881379  0.38102785  1
  N  N53  1  0.44579019  0.42882168  0.12715265  1
  N  N54  1  0.22358554  0.53988823  0.87596327  1
  N  N55  1  0.10409682  0.43106175  0.57587377  1
  N  N56  1  0.88585225  0.54216990  0.33208292  1
  N  N57  1  0.77395448  0.43597814  0.07826504  1
  N  N58  1  0.53468916  0.57111017  0.87056020  1
  N  N59  1  0.44632700  0.42087929  0.62923693  1
  N  N60  1  0.22702842  0.86625074  0.38275955  1
  N  N61  1  0.12223111  0.76342369  0.12379349  1
  N  N62  1  0.88795758  0.87625643  0.89493549  1
  N  N63  1  0.80216359  0.77688652  0.59094404  1
  N  N64  1  0.55616020  0.86455147  0.40200710  1
  N  N65  1  0.45675258  0.78187431  0.13246042  1
  N  N66  1  0.24430682  0.86411416  0.86783966  1
  N  N67  1  0.08416406  0.77447002  0.63040160  1
  N  N68  1  0.87740639  0.89282427  0.32854090  1
  N  N69  1  0.74112389  0.77754817  0.08814837  1
  N  N70  1  0.54458770  0.85846232  0.82355748  1
  N  N71  1  0.43278844  0.75555904  0.64395251  1
