# generated using pymatgen
data_Al31B5N36
_symmetry_space_group_name_H-M   'P 1'
_cell_length_a   9.20764877
_cell_length_b   9.18106685
_cell_length_c   10.04087843
_cell_angle_alpha   89.98839468
_cell_angle_beta   89.92131184
_cell_angle_gamma   60.12364036
_symmetry_Int_Tables_number   1
_chemical_formula_structural   Al31B5N36
_chemical_formula_sum   'Al31 B5 N36'
_cell_volume   736.00962025
_cell_formula_units_Z   1
loop_
 _symmetry_equiv_pos_site_id
 _symmetry_equiv_pos_as_xyz
  1  'x, y, z'
loop_
 _atom_site_type_symbol
 _atom_site_label
 _atom_site_symmetry_multiplicity
 _atom_site_fract_x
 _atom_site_fract_y
 _atom_site_fract_z
 _atom_site_occupancy
  Al  Al0  1  0.10448689  0.08602833  0.32424080  1
  Al  Al1  1  0.22988994  0.20335973  0.14285970  1
  Al  Al2  1  0.78254757  0.08919228  0.81912471  1
  Al  Al3  1  0.45518733  0.08477270  0.36719691  1
  Al  Al4  1  0.56056355  0.19857013  0.07158905  1
  Al  Al5  1  0.10377971  0.09037113  0.81134054  1
  Al  Al6  1  0.21150212  0.21434308  0.62766561  1
  Al  Al7  1  0.88889632  0.20427972  0.07230802  1
  Al  Al8  1  0.44672372  0.09107595  0.81595133  1
  Al  Al9  1  0.57644263  0.19853764  0.56503745  1
  Al  Al10  1  0.10837166  0.42695075  0.38679953  1
  Al  Al11  1  0.22553141  0.54339863  0.06722929  1
  Al  Al12  1  0.77266990  0.43667435  0.88095208  1
  Al  Al13  1  0.89078117  0.53906698  0.64262799  1
  Al  Al14  1  0.45335297  0.42076653  0.31590440  1
  Al  Al15  1  0.54478766  0.55789491  0.06648487  1
  Al  Al16  1  0.10584310  0.42371467  0.89008281  1
  Al  Al17  1  0.22128055  0.54574433  0.56965018  1
  Al  Al18  1  0.78494317  0.41731351  0.39260151  1
  Al  Al19  1  0.87707225  0.54700264  0.14353231  1
  Al  Al20  1  0.44358307  0.43290747  0.81754314  1
  Al  Al21  1  0.55292567  0.53640034  0.57381636  1
  Al  Al22  1  0.11160801  0.76411309  0.31268370  1
  Al  Al23  1  0.23268811  0.87908313  0.06062122  1
  Al  Al24  1  0.76040846  0.76724437  0.89204908  1
  Al  Al25  1  0.45044243  0.76049227  0.32470459  1
  Al  Al26  1  0.10820086  0.76328119  0.82627701  1
  Al  Al27  1  0.21233128  0.87460788  0.56912411  1
  Al  Al28  1  0.78605687  0.76941677  0.39552262  1
  Al  Al29  1  0.88175324  0.88154089  0.10300766  1
  Al  Al30  1  0.55872115  0.86767498  0.60686201  1
  B  B31  1  0.89932190  0.18024798  0.55801606  1
  B  B32  1  0.77896840  0.08962264  0.31342308  1
  B  B33  1  0.89657276  0.87222127  0.60822255  1
  B  B34  1  0.55299712  0.87739768  0.10974572  1
  B  B35  1  0.44121623  0.76183503  0.80514340  1
  N  N36  1  0.22578441  0.20425041  0.33653334  1
  N  N37  1  0.10703014  0.09334154  0.13255674  1
  N  N38  1  0.88929793  0.20059272  0.88119552  1
  N  N39  1  0.80701828  0.07021212  0.62289726  1
  N  N40  1  0.58614566  0.19022990  0.37400937  1
  N  N41  1  0.46302508  0.06364049  0.11613662  1
  N  N42  1  0.21607739  0.20980018  0.82195694  1
  N  N43  1  0.08188794  0.10331701  0.61537781  1
  N  N44  1  0.88365047  0.17902344  0.39215773  1
  N  N45  1  0.77181588  0.11126038  0.15163794  1
  N  N46  1  0.55813198  0.20460046  0.87821166  1
  N  N47  1  0.44446214  0.10295581  0.60961510  1
  N  N48  1  0.22770975  0.54175835  0.37694591  1
  N  N49  1  0.10554217  0.42748238  0.08265956  1
  N  N50  1  0.88640063  0.54521326  0.82890367  1
  N  N51  1  0.79179506  0.40181953  0.58689501  1
  N  N52  1  0.55377386  0.53844635  0.38047011  1
  N  N53  1  0.44599753  0.42825457  0.12662495  1
  N  N54  1  0.22366253  0.53989123  0.87600751  1
  N  N55  1  0.10384227  0.43145694  0.57544528  1
  N  N56  1  0.88564542  0.54216146  0.33180498  1
  N  N57  1  0.77379708  0.43584374  0.07835604  1
  N  N58  1  0.53486623  0.57175675  0.87053678  1
  N  N59  1  0.44592237  0.42184979  0.62939118  1
  N  N60  1  0.22707404  0.86621389  0.38259932  1
  N  N61  1  0.12201696  0.76344457  0.12358462  1
  N  N62  1  0.88829009  0.87640673  0.89470368  1
  N  N63  1  0.80267781  0.77695031  0.59099667  1
  N  N64  1  0.55715140  0.86127298  0.40331161  1
  N  N65  1  0.45648241  0.78178448  0.13233632  1
  N  N66  1  0.24483481  0.86428455  0.86782897  1
  N  N67  1  0.08444573  0.77439638  0.63036893  1
  N  N68  1  0.87748874  0.89259701  0.32847727  1
  N  N69  1  0.74099212  0.77723509  0.08740127  1
  N  N70  1  0.54609029  0.85851271  0.81951410  1
  N  N71  1  0.43184924  0.75522430  0.64394110  1
