# generated using pymatgen
data_Al31B5N36
_symmetry_space_group_name_H-M   'P 1'
_cell_length_a   9.15766471
_cell_length_b   9.20267543
_cell_length_c   10.16503673
_cell_angle_alpha   89.62347749
_cell_angle_beta   89.44390849
_cell_angle_gamma   60.04961294
_symmetry_Int_Tables_number   1
_chemical_formula_structural   Al31B5N36
_chemical_formula_sum   'Al31 B5 N36'
_cell_volume   742.22232180
_cell_formula_units_Z   1
loop_
 _symmetry_equiv_pos_site_id
 _symmetry_equiv_pos_as_xyz
  1  'x, y, z'
loop_
 _atom_site_type_symbol
 _atom_site_label
 _atom_site_symmetry_multiplicity
 _atom_site_fract_x
 _atom_site_fract_y
 _atom_site_fract_z
 _atom_site_occupancy
  Al  Al0  1  0.09661807  0.10419847  0.39357938  1
  Al  Al1  1  0.22215597  0.19713174  0.13620492  1
  Al  Al2  1  0.77805091  0.08483534  0.80906803  1
  Al  Al3  1  0.44634623  0.09049622  0.37412245  1
  Al  Al4  1  0.55910845  0.20365221  0.07453249  1
  Al  Al5  1  0.11220381  0.09634310  0.87584567  1
  Al  Al6  1  0.22604379  0.20559734  0.63747291  1
  Al  Al7  1  0.88697908  0.20791799  0.13958615  1
  Al  Al8  1  0.44563104  0.07991291  0.89380462  1
  Al  Al9  1  0.57529209  0.18800483  0.55888418  1
  Al  Al10  1  0.11034970  0.42684229  0.38448636  1
  Al  Al11  1  0.22446495  0.54146982  0.08628819  1
  Al  Al12  1  0.77791636  0.43276318  0.87736250  1
  Al  Al13  1  0.89512418  0.54216026  0.63901842  1
  Al  Al14  1  0.45724992  0.42515885  0.32072211  1
  Al  Al15  1  0.54685156  0.55452992  0.06006166  1
  Al  Al16  1  0.11142635  0.42716762  0.88867131  1
  Al  Al17  1  0.22317544  0.54204877  0.57365235  1
  Al  Al18  1  0.78781146  0.41690996  0.39254523  1
  Al  Al19  1  0.87885461  0.54167824  0.13949548  1
  Al  Al20  1  0.44716220  0.42725894  0.81627660  1
  Al  Al21  1  0.55423458  0.53649348  0.57802047  1
  Al  Al22  1  0.10690849  0.77523952  0.32097900  1
  Al  Al23  1  0.23553244  0.86599545  0.05854979  1
  Al  Al24  1  0.76457255  0.76292934  0.89713639  1
  Al  Al25  1  0.44420631  0.76272833  0.31786883  1
  Al  Al26  1  0.10747084  0.76273886  0.82072212  1
  Al  Al27  1  0.20716904  0.87551650  0.58059876  1
  Al  Al28  1  0.78033351  0.77212160  0.37936057  1
  Al  Al29  1  0.88495311  0.87664507  0.08704586  1
  Al  Al30  1  0.55997183  0.87441554  0.63966020  1
  B  B31  1  0.91522187  0.23562190  0.65184232  1
  B  B32  1  0.77517210  0.08921737  0.30696733  1
  B  B33  1  0.88041949  0.86610962  0.59696254  1
  B  B34  1  0.55893732  0.87275917  0.14629092  1
  B  B35  1  0.43932228  0.75759672  0.80682759  1
  N  N36  1  0.21783861  0.20524726  0.32243055  1
  N  N37  1  0.10222036  0.09937095  0.06426218  1
  N  N38  1  0.89253163  0.21521093  0.79845310  1
  N  N39  1  0.77731193  0.04065223  0.63316119  1
  N  N40  1  0.58499091  0.19524496  0.36961695  1
  N  N41  1  0.45320707  0.06553262  0.08484039  1
  N  N42  1  0.22816491  0.20618291  0.82382978  1
  N  N43  1  0.08094745  0.11793197  0.58785010  1
  N  N44  1  0.88025416  0.20026345  0.32557139  1
  N  N45  1  0.76826301  0.09406613  0.14748071  1
  N  N46  1  0.56214434  0.20714327  0.88550721  1
  N  N47  1  0.43796454  0.08436311  0.56241500  1
  N  N48  1  0.22709188  0.54510934  0.37517126  1
  N  N49  1  0.10733736  0.42502782  0.07899990  1
  N  N50  1  0.89012040  0.54607910  0.82477804  1
  N  N51  1  0.79887629  0.40348889  0.58749555  1
  N  N52  1  0.55487258  0.54675652  0.38970016  1
  N  N53  1  0.45008859  0.42965736  0.13240499  1
  N  N54  1  0.22574830  0.54145338  0.86991430  1
  N  N55  1  0.11150259  0.42217832  0.57404373  1
  N  N56  1  0.88709251  0.54073011  0.32637203  1
  N  N57  1  0.78101000  0.42244670  0.06621825  1
  N  N58  1  0.53884823  0.56851415  0.86683209  1
  N  N59  1  0.45278800  0.41222610  0.62855186  1
  N  N60  1  0.22788647  0.87206044  0.39267258  1
  N  N61  1  0.11744871  0.76524878  0.13181550  1
  N  N62  1  0.89159034  0.87845968  0.89615991  1
  N  N63  1  0.78798720  0.76263766  0.57183377  1
  N  N64  1  0.56425858  0.87740296  0.30577519  1
  N  N65  1  0.45186692  0.77139889  0.13012012  1
  N  N66  1  0.24837647  0.85750383  0.86455134  1
  N  N67  1  0.07516444  0.77225822  0.62900878  1
  N  N68  1  0.87791104  0.90314643  0.35104221  1
  N  N69  1  0.74744665  0.76942175  0.08620298  1
  N  N70  1  0.54723012  0.86244624  0.82479885  1
  N  N71  1  0.43370299  0.75544612  0.64729960  1
