# generated using pymatgen
data_Al31B5N36
_symmetry_space_group_name_H-M   'P 1'
_cell_length_a   9.16022250
_cell_length_b   9.20442578
_cell_length_c   10.16740282
_cell_angle_alpha   89.64373298
_cell_angle_beta   89.45688863
_cell_angle_gamma   60.08363136
_symmetry_Int_Tables_number   1
_chemical_formula_structural   Al31B5N36
_chemical_formula_sum   'Al31 B5 N36'
_cell_volume   742.99964279
_cell_formula_units_Z   1
loop_
 _symmetry_equiv_pos_site_id
 _symmetry_equiv_pos_as_xyz
  1  'x, y, z'
loop_
 _atom_site_type_symbol
 _atom_site_label
 _atom_site_symmetry_multiplicity
 _atom_site_fract_x
 _atom_site_fract_y
 _atom_site_fract_z
 _atom_site_occupancy
  Al  Al0  1  0.09660112  0.10452735  0.39339762  1
  Al  Al1  1  0.22226515  0.19707452  0.13591999  1
  Al  Al2  1  0.77778915  0.08489284  0.80870281  1
  Al  Al3  1  0.44605667  0.09049983  0.37389319  1
  Al  Al4  1  0.55929920  0.20352796  0.07406259  1
  Al  Al5  1  0.11210107  0.09682445  0.87592038  1
  Al  Al6  1  0.22600751  0.20511521  0.63746892  1
  Al  Al7  1  0.88693865  0.20789190  0.13950491  1
  Al  Al8  1  0.44530625  0.07994186  0.89366737  1
  Al  Al9  1  0.57583362  0.18742952  0.55814689  1
  Al  Al10  1  0.11132666  0.42790263  0.38552412  1
  Al  Al11  1  0.22147465  0.53857870  0.12725156  1
  Al  Al12  1  0.77830688  0.43270406  0.87745833  1
  Al  Al13  1  0.89450208  0.54221463  0.63897783  1
  Al  Al14  1  0.46071453  0.42321072  0.32115247  1
  Al  Al15  1  0.54662827  0.55456613  0.05964399  1
  Al  Al16  1  0.11333234  0.42926645  0.88854655  1
  Al  Al17  1  0.22092977  0.53894581  0.60847432  1
  Al  Al18  1  0.78818963  0.41691924  0.39236247  1
  Al  Al19  1  0.87873051  0.54181663  0.13919940  1
  Al  Al20  1  0.45027996  0.42573609  0.81608708  1
  Al  Al21  1  0.55437418  0.53662829  0.57727016  1
  Al  Al22  1  0.10515858  0.77833525  0.32149238  1
  Al  Al23  1  0.23565937  0.86590693  0.05813101  1
  Al  Al24  1  0.76451053  0.76263447  0.89693903  1
  Al  Al25  1  0.44421747  0.76270813  0.31754644  1
  Al  Al26  1  0.10607422  0.76558699  0.82108495  1
  Al  Al27  1  0.20720671  0.87536412  0.57991840  1
  Al  Al28  1  0.78032215  0.77189765  0.37925883  1
  Al  Al29  1  0.88477257  0.87687201  0.08635612  1
  Al  Al30  1  0.55995585  0.87446843  0.63958991  1
  B  B31  1  0.91514862  0.23560039  0.65173522  1
  B  B32  1  0.77494623  0.08908919  0.30668145  1
  B  B33  1  0.88015211  0.86688680  0.59608458  1
  B  B34  1  0.55892211  0.87272772  0.14624826  1
  B  B35  1  0.43928243  0.75762496  0.80671407  1
  N  N36  1  0.21747433  0.20561236  0.32233090  1
  N  N37  1  0.10221834  0.09975359  0.06420334  1
  N  N38  1  0.89242518  0.21517022  0.79834016  1
  N  N39  1  0.77677748  0.04095727  0.63302160  1
  N  N40  1  0.58539956  0.19440570  0.36927181  1
  N  N41  1  0.45320101  0.06552928  0.08476840  1
  N  N42  1  0.22787743  0.20640045  0.82396286  1
  N  N43  1  0.08091452  0.11813079  0.58767328  1
  N  N44  1  0.88018734  0.20024929  0.32550113  1
  N  N45  1  0.76830618  0.09395214  0.14725759  1
  N  N46  1  0.56223027  0.20675027  0.88547985  1
  N  N47  1  0.43777150  0.08433119  0.56225002  1
  N  N48  1  0.22507332  0.54267377  0.35052354  1
  N  N49  1  0.10918960  0.42678934  0.07750018  1
  N  N50  1  0.89018524  0.54580664  0.82492831  1
  N  N51  1  0.79926344  0.40354433  0.58729192  1
  N  N52  1  0.55506071  0.54699651  0.38953900  1
  N  N53  1  0.45318013  0.42826777  0.13086890  1
  N  N54  1  0.22280001  0.53912120  0.83731759  1
  N  N55  1  0.11205955  0.42274786  0.57276249  1
  N  N56  1  0.88744810  0.54042218  0.32626016  1
  N  N57  1  0.78134221  0.42247372  0.06615810  1
  N  N58  1  0.53877064  0.56855244  0.86700053  1
  N  N59  1  0.45756614  0.40942539  0.62654653  1
  N  N60  1  0.22809353  0.87214076  0.39253640  1
  N  N61  1  0.11602215  0.76808068  0.12995788  1
  N  N62  1  0.89096513  0.87870883  0.89594723  1
  N  N63  1  0.78783019  0.76261135  0.57170792  1
  N  N64  1  0.56423556  0.87736199  0.30569216  1
  N  N65  1  0.45182244  0.77133787  0.12994441  1
  N  N66  1  0.24840227  0.85759852  0.86471433  1
  N  N67  1  0.07287588  0.77601181  0.62679649  1
  N  N68  1  0.87710170  0.90363089  0.35112603  1
  N  N69  1  0.74741696  0.76944740  0.08609077  1
  N  N70  1  0.54707674  0.86236950  0.82471445  1
  N  N71  1  0.43344587  0.75523386  0.64729533  1
