# generated using pymatgen
data_Al31B5N36
_symmetry_space_group_name_H-M   'P 1'
_cell_length_a   9.20447985
_cell_length_b   9.25931327
_cell_length_c   9.94411957
_cell_angle_alpha   89.72985650
_cell_angle_beta   89.66516543
_cell_angle_gamma   60.09439661
_symmetry_Int_Tables_number   1
_chemical_formula_structural   Al31B5N36
_chemical_formula_sum   'Al31 B5 N36'
_cell_volume   734.64742652
_cell_formula_units_Z   1
loop_
 _symmetry_equiv_pos_site_id
 _symmetry_equiv_pos_as_xyz
  1  'x, y, z'
loop_
 _atom_site_type_symbol
 _atom_site_label
 _atom_site_symmetry_multiplicity
 _atom_site_fract_x
 _atom_site_fract_y
 _atom_site_fract_z
 _atom_site_occupancy
  Al  Al0  1  0.10888445  0.08829038  0.32378077  1
  Al  Al1  1  0.22747575  0.19459475  0.08000873  1
  Al  Al2  1  0.78231721  0.08750618  0.82356018  1
  Al  Al3  1  0.45703556  0.08141636  0.32957956  1
  Al  Al4  1  0.56132815  0.20182854  0.07645070  1
  Al  Al5  1  0.10730464  0.09277506  0.81677324  1
  Al  Al6  1  0.21779912  0.19938438  0.56818750  1
  Al  Al7  1  0.88512558  0.21165225  0.07082344  1
  Al  Al8  1  0.43961534  0.09342781  0.81981816  1
  Al  Al9  1  0.56980597  0.19554861  0.56545488  1
  Al  Al10  1  0.10997639  0.42997328  0.38186682  1
  Al  Al11  1  0.22783374  0.54303347  0.07538787  1
  Al  Al12  1  0.76988885  0.43606729  0.83838831  1
  Al  Al13  1  0.89504484  0.55421731  0.64843493  1
  Al  Al14  1  0.45828587  0.42250208  0.32025826  1
  Al  Al15  1  0.55397818  0.55474813  0.06344202  1
  Al  Al16  1  0.10199722  0.43149622  0.89675636  1
  Al  Al17  1  0.22330503  0.54029636  0.57437687  1
  Al  Al18  1  0.78849567  0.41995713  0.42013172  1
  Al  Al19  1  0.87633401  0.54429087  0.15090506  1
  Al  Al20  1  0.44313204  0.43032401  0.82223250  1
  Al  Al21  1  0.54340971  0.54890344  0.58494666  1
  Al  Al22  1  0.11162309  0.76509058  0.31711703  1
  Al  Al23  1  0.23250992  0.87590230  0.06609768  1
  Al  Al24  1  0.75744159  0.76779691  0.89968655  1
  Al  Al25  1  0.45422241  0.75752308  0.33035571  1
  Al  Al26  1  0.10779921  0.76337416  0.83228355  1
  Al  Al27  1  0.21315049  0.86951186  0.57258255  1
  Al  Al28  1  0.78360879  0.77145020  0.39892811  1
  Al  Al29  1  0.88239034  0.88216163  0.10667074  1
  Al  Al30  1  0.55517247  0.87187879  0.60954306  1
  B  B31  1  0.91930334  0.13066811  0.55402866  1
  B  B32  1  0.77500288  0.08812767  0.31430742  1
  B  B33  1  0.89770786  0.86851414  0.61157584  1
  B  B34  1  0.55532353  0.87266735  0.11546748  1
  B  B35  1  0.43658550  0.76599003  0.81012544  1
  N  N36  1  0.22666800  0.19730785  0.37449829  1
  N  N37  1  0.10676079  0.09363511  0.13451996  1
  N  N38  1  0.88619600  0.20348855  0.87752632  1
  N  N39  1  0.81096723  0.06301701  0.62245443  1
  N  N40  1  0.58356951  0.18890455  0.37319481  1
  N  N41  1  0.46208383  0.06415580  0.13200434  1
  N  N42  1  0.21959743  0.20001817  0.88311904  1
  N  N43  1  0.08213309  0.09856777  0.62019457  1
  N  N44  1  0.88780989  0.17694498  0.40566908  1
  N  N45  1  0.77408486  0.11106393  0.15399238  1
  N  N46  1  0.55712976  0.20260446  0.88306984  1
  N  N47  1  0.43872182  0.10503531  0.62904897  1
  N  N48  1  0.22987895  0.54263361  0.37945786  1
  N  N49  1  0.10737970  0.43078547  0.09699038  1
  N  N50  1  0.88789305  0.55125287  0.83622693  1
  N  N51  1  0.77001590  0.45084401  0.61547478  1
  N  N52  1  0.55738255  0.53754633  0.39067478  1
  N  N53  1  0.45013648  0.42971671  0.12937236  1
  N  N54  1  0.22361831  0.54074314  0.88120309  1
  N  N55  1  0.10730824  0.42713689  0.58286057  1
  N  N56  1  0.88362418  0.54379919  0.34220262  1
  N  N57  1  0.77701836  0.43512075  0.08539322  1
  N  N58  1  0.53302646  0.57172543  0.86894678  1
  N  N59  1  0.44860717  0.41909868  0.63216630  1
  N  N60  1  0.22689932  0.86709343  0.38428639  1
  N  N61  1  0.12186745  0.76297147  0.12741052  1
  N  N62  1  0.88636023  0.87682652  0.89949934  1
  N  N63  1  0.80033257  0.78273766  0.59506115  1
  N  N64  1  0.55330406  0.86966073  0.40423489  1
  N  N65  1  0.45824353  0.77992157  0.13457519  1
  N  N66  1  0.24184616  0.86497613  0.87263631  1
  N  N67  1  0.08526378  0.77042638  0.63361853  1
  N  N68  1  0.87648957  0.89436158  0.33239665  1
  N  N69  1  0.74145539  0.77818064  0.09699600  1
  N  N70  1  0.54197964  0.85971763  0.83012550  1
  N  N71  1  0.42372923  0.76608318  0.64885179  1
