# generated using pymatgen
data_Al31B5N36
_symmetry_space_group_name_H-M   'P 1'
_cell_length_a   9.17407067
_cell_length_b   9.15208563
_cell_length_c   10.15925818
_cell_angle_alpha   89.62342053
_cell_angle_beta   89.47766682
_cell_angle_gamma   60.30903142
_symmetry_Int_Tables_number   1
_chemical_formula_structural   Al31B5N36
_chemical_formula_sum   'Al31 B5 N36'
_cell_volume   740.96809854
_cell_formula_units_Z   1
loop_
 _symmetry_equiv_pos_site_id
 _symmetry_equiv_pos_as_xyz
  1  'x, y, z'
loop_
 _atom_site_type_symbol
 _atom_site_label
 _atom_site_symmetry_multiplicity
 _atom_site_fract_x
 _atom_site_fract_y
 _atom_site_fract_z
 _atom_site_occupancy
  Al  Al0  1  0.09650141  0.10299794  0.39547507  1
  Al  Al1  1  0.22481631  0.19939656  0.14055851  1
  Al  Al2  1  0.78065122  0.08891253  0.86648042  1
  Al  Al3  1  0.44659277  0.09166612  0.38251869  1
  Al  Al4  1  0.55472708  0.20704436  0.06608402  1
  Al  Al5  1  0.10982883  0.09666243  0.87997533  1
  Al  Al6  1  0.21741838  0.20542905  0.63910783  1
  Al  Al7  1  0.88713485  0.20734745  0.13382354  1
  Al  Al8  1  0.43879123  0.07767969  0.89380572  1
  Al  Al9  1  0.57757024  0.19378765  0.57143601  1
  Al  Al10  1  0.11080679  0.43143170  0.39072873  1
  Al  Al11  1  0.22269147  0.53554575  0.13895754  1
  Al  Al12  1  0.78027245  0.42556814  0.87692151  1
  Al  Al13  1  0.88794052  0.54036790  0.63858960  1
  Al  Al14  1  0.46205693  0.42252649  0.32051034  1
  Al  Al15  1  0.55005571  0.55323580  0.06085470  1
  Al  Al16  1  0.10971486  0.42808497  0.89069304  1
  Al  Al17  1  0.20997705  0.54167823  0.63747974  1
  Al  Al18  1  0.78496010  0.41680774  0.39649193  1
  Al  Al19  1  0.87972368  0.54364732  0.14302727  1
  Al  Al20  1  0.45047441  0.42410612  0.81407877  1
  Al  Al21  1  0.55181777  0.53702074  0.57660134  1
  Al  Al22  1  0.10704521  0.77924066  0.31480318  1
  Al  Al23  1  0.24084804  0.86792379  0.06298418  1
  Al  Al24  1  0.76313781  0.75575752  0.89923518  1
  Al  Al25  1  0.44576112  0.76270424  0.31780360  1
  Al  Al26  1  0.11078058  0.76325400  0.84024239  1
  Al  Al27  1  0.21254338  0.87062027  0.57829203  1
  Al  Al28  1  0.77903241  0.77701367  0.38344330  1
  Al  Al29  1  0.88338519  0.87774091  0.08962211  1
  Al  Al30  1  0.55953531  0.87616999  0.64357376  1
  B  B31  1  0.89730596  0.19208403  0.64963405  1
  B  B32  1  0.78036491  0.09362829  0.34297191  1
  B  B33  1  0.89031429  0.88346219  0.60962735  1
  B  B34  1  0.56025676  0.87385946  0.14930282  1
  B  B35  1  0.44145606  0.75604084  0.80912748  1
  N  N36  1  0.21805489  0.20698098  0.32841925  1
  N  N37  1  0.10779490  0.10086087  0.07063373  1
  N  N38  1  0.89218850  0.20418512  0.80688113  1
  N  N39  1  0.80398939  0.07050318  0.62426654  1
  N  N40  1  0.59197395  0.19254301  0.37490388  1
  N  N41  1  0.45462551  0.06624645  0.08785676  1
  N  N42  1  0.22289961  0.20580176  0.82543341  1
  N  N43  1  0.08128004  0.10980409  0.58784875  1
  N  N44  1  0.87481247  0.19491358  0.32466454  1
  N  N45  1  0.78061243  0.10483096  0.06749643  1
  N  N46  1  0.54609013  0.20609087  0.87470926  1
  N  N47  1  0.43962660  0.09014956  0.57110895  1
  N  N48  1  0.22260632  0.54049816  0.33210403  1
  N  N49  1  0.10944052  0.42853990  0.07871836  1
  N  N50  1  0.88839494  0.54092290  0.82468612  1
  N  N51  1  0.79197329  0.39747311  0.58775138  1
  N  N52  1  0.55317405  0.54760819  0.38796576  1
  N  N53  1  0.45584383  0.42608307  0.13023976  1
  N  N54  1  0.22041115  0.53555864  0.82891001  1
  N  N55  1  0.10800070  0.42681376  0.57569914  1
  N  N56  1  0.88614540  0.54226419  0.33224282  1
  N  N57  1  0.78337889  0.42643715  0.06888992  1
  N  N58  1  0.53943101  0.56424879  0.86852428  1
  N  N59  1  0.44763154  0.41779081  0.62530441  1
  N  N60  1  0.22879501  0.87049207  0.38839286  1
  N  N61  1  0.11841601  0.76659834  0.12127597  1
  N  N62  1  0.89253552  0.85909999  0.88931069  1
  N  N63  1  0.78839338  0.78222156  0.57827298  1
  N  N64  1  0.56360976  0.87992167  0.31133232  1
  N  N65  1  0.45633767  0.77057819  0.13177992  1
  N  N66  1  0.25209628  0.85615367  0.87073076  1
  N  N67  1  0.07656102  0.77859781  0.62500571  1
  N  N68  1  0.87270833  0.90973717  0.32639359  1
  N  N69  1  0.74628954  0.77160864  0.09049068  1
  N  N70  1  0.54568273  0.85808141  0.82849129  1
  N  N71  1  0.43548542  0.75562854  0.64754662  1
