# generated using pymatgen
data_Al31B5N36
_symmetry_space_group_name_H-M   'P 1'
_cell_length_a   9.18229188
_cell_length_b   9.17263478
_cell_length_c   9.93571654
_cell_angle_alpha   90.21069842
_cell_angle_beta   89.86636635
_cell_angle_gamma   59.97369165
_symmetry_Int_Tables_number   1
_chemical_formula_structural   Al31B5N36
_chemical_formula_sum   'Al31 B5 N36'
_cell_volume   724.52245078
_cell_formula_units_Z   1
loop_
 _symmetry_equiv_pos_site_id
 _symmetry_equiv_pos_as_xyz
  1  'x, y, z'
loop_
 _atom_site_type_symbol
 _atom_site_label
 _atom_site_symmetry_multiplicity
 _atom_site_fract_x
 _atom_site_fract_y
 _atom_site_fract_z
 _atom_site_occupancy
  Al  Al0  1  0.10570078  0.09235292  0.31863604  1
  Al  Al1  1  0.22665740  0.19869410  0.06617982  1
  Al  Al2  1  0.78179620  0.09044240  0.81367572  1
  Al  Al3  1  0.45404728  0.08579293  0.32086814  1
  Al  Al4  1  0.56176305  0.19979197  0.06855201  1
  Al  Al5  1  0.10918847  0.09425701  0.80854020  1
  Al  Al6  1  0.21690783  0.20698544  0.55983424  1
  Al  Al7  1  0.88795728  0.20660109  0.06773643  1
  Al  Al8  1  0.44075809  0.09357222  0.81092587  1
  Al  Al9  1  0.56990209  0.19534208  0.55783282  1
  Al  Al10  1  0.10993533  0.43038396  0.31341180  1
  Al  Al11  1  0.22425976  0.54011737  0.06102914  1
  Al  Al12  1  0.77494885  0.42743049  0.80908434  1
  Al  Al13  1  0.89315825  0.53223425  0.56872653  1
  Al  Al14  1  0.44982659  0.42429867  0.31257744  1
  Al  Al15  1  0.55724772  0.54929016  0.05973108  1
  Al  Al16  1  0.10945841  0.42805491  0.81548939  1
  Al  Al17  1  0.21727651  0.54103629  0.56468698  1
  Al  Al18  1  0.77782275  0.42178830  0.32231370  1
  Al  Al19  1  0.88458951  0.53815028  0.06855122  1
  Al  Al20  1  0.44500800  0.43041248  0.81261933  1
  Al  Al21  1  0.55638914  0.53245576  0.56532751  1
  Al  Al22  1  0.10931342  0.76737709  0.31059853  1
  Al  Al23  1  0.23397464  0.87395050  0.05692210  1
  Al  Al24  1  0.75832816  0.77068201  0.87927399  1
  Al  Al25  1  0.44923697  0.76323491  0.32038102  1
  Al  Al26  1  0.10894049  0.76389358  0.81904280  1
  Al  Al27  1  0.21191110  0.87469383  0.56553457  1
  Al  Al28  1  0.78062280  0.77793190  0.38818689  1
  Al  Al29  1  0.88331004  0.88077921  0.09195829  1
  Al  Al30  1  0.55476396  0.87212737  0.60001599  1
  B  B31  1  0.89417985  0.18892176  0.55542842  1
  B  B32  1  0.77804611  0.09311396  0.31087862  1
  B  B33  1  0.89440269  0.87472468  0.59973704  1
  B  B34  1  0.55599202  0.87230582  0.10539844  1
  B  B35  1  0.44265466  0.76101250  0.80048032  1
  N  N36  1  0.22286236  0.20588378  0.36967433  1
  N  N37  1  0.11056263  0.09357253  0.12659048  1
  N  N38  1  0.88698020  0.20560663  0.87748683  1
  N  N39  1  0.80416682  0.07322103  0.61685498  1
  N  N40  1  0.58140612  0.19206117  0.36541044  1
  N  N41  1  0.46048657  0.06541100  0.12313747  1
  N  N42  1  0.22046887  0.20441092  0.87544617  1
  N  N43  1  0.08420781  0.10664844  0.61321304  1
  N  N44  1  0.87917238  0.19214671  0.38900845  1
  N  N45  1  0.77471387  0.10786673  0.14642737  1
  N  N46  1  0.55772811  0.20253410  0.87572295  1
  N  N47  1  0.43816723  0.10570389  0.62077236  1
  N  N48  1  0.22173598  0.54138105  0.37393615  1
  N  N49  1  0.11191980  0.42894124  0.12298473  1
  N  N50  1  0.88707000  0.53639393  0.87427789  1
  N  N51  1  0.78817054  0.39902252  0.61591664  1
  N  N52  1  0.55388767  0.54027065  0.37580366  1
  N  N53  1  0.44669142  0.43003748  0.12070185  1
  N  N54  1  0.22205588  0.53906984  0.87130104  1
  N  N55  1  0.11120112  0.42625469  0.62645751  1
  N  N56  1  0.88826570  0.53982567  0.37661038  1
  N  N57  1  0.77627396  0.42829035  0.13003901  1
  N  N58  1  0.54388453  0.56379149  0.86498573  1
  N  N59  1  0.44515189  0.42139130  0.62182862  1
  N  N60  1  0.22528739  0.86990621  0.37670846  1
  N  N61  1  0.12095734  0.76187358  0.11921877  1
  N  N62  1  0.88841703  0.87676271  0.88799530  1
  N  N63  1  0.79902286  0.77958952  0.58994126  1
  N  N64  1  0.55120312  0.87287354  0.39409438  1
  N  N65  1  0.45965012  0.77807856  0.12478448  1
  N  N66  1  0.24560942  0.86235865  0.86198671  1
  N  N67  1  0.08349972  0.77463578  0.62299742  1
  N  N68  1  0.87766552  0.89926770  0.33383660  1
  N  N69  1  0.74151402  0.77891005  0.08487819  1
  N  N70  1  0.54178170  0.85916898  0.81991383  1
  N  N71  1  0.43462958  0.75315025  0.63755833  1
