# generated using pymatgen
data_Al31B5N36
_symmetry_space_group_name_H-M   'P 1'
_cell_length_a   9.19965669
_cell_length_b   9.19450915
_cell_length_c   9.99214369
_cell_angle_alpha   90.03094284
_cell_angle_beta   89.95423690
_cell_angle_gamma   60.07557946
_symmetry_Int_Tables_number   1
_chemical_formula_structural   Al31B5N36
_chemical_formula_sum   'Al31 B5 N36'
_cell_volume   732.51973551
_cell_formula_units_Z   1
loop_
 _symmetry_equiv_pos_site_id
 _symmetry_equiv_pos_as_xyz
  1  'x, y, z'
loop_
 _atom_site_type_symbol
 _atom_site_label
 _atom_site_symmetry_multiplicity
 _atom_site_fract_x
 _atom_site_fract_y
 _atom_site_fract_z
 _atom_site_occupancy
  Al  Al0  1  0.10777854  0.08774858  0.32601999  1
  Al  Al1  1  0.22720920  0.19803052  0.08567254  1
  Al  Al2  1  0.78153081  0.08900297  0.82252147  1
  Al  Al3  1  0.45882261  0.08232456  0.33085748  1
  Al  Al4  1  0.56167746  0.20131423  0.07635804  1
  Al  Al5  1  0.10829788  0.09511182  0.81522370  1
  Al  Al6  1  0.22015473  0.19927929  0.56822912  1
  Al  Al7  1  0.88913473  0.20454997  0.07525264  1
  Al  Al8  1  0.43962417  0.09393714  0.81980960  1
  Al  Al9  1  0.57115997  0.19445522  0.56667288  1
  Al  Al10  1  0.10758558  0.43118724  0.38381860  1
  Al  Al11  1  0.22558264  0.54569783  0.07287004  1
  Al  Al12  1  0.77266776  0.43525088  0.88281257  1
  Al  Al13  1  0.89343965  0.53562160  0.64572149  1
  Al  Al14  1  0.45366048  0.42239561  0.32083130  1
  Al  Al15  1  0.54564208  0.55794935  0.06959950  1
  Al  Al16  1  0.10292650  0.43056715  0.89406493  1
  Al  Al17  1  0.22106344  0.54376280  0.57458349  1
  Al  Al18  1  0.78544535  0.41666833  0.39667473  1
  Al  Al19  1  0.87555215  0.54876669  0.14876358  1
  Al  Al20  1  0.44400449  0.43051107  0.82141255  1
  Al  Al21  1  0.55404593  0.53420663  0.57936281  1
  Al  Al22  1  0.11102377  0.76634179  0.31731429  1
  Al  Al23  1  0.23215593  0.87838634  0.06336712  1
  Al  Al24  1  0.75843405  0.76813802  0.89501382  1
  Al  Al25  1  0.45048494  0.76188604  0.33085241  1
  Al  Al26  1  0.10749451  0.76464274  0.82960414  1
  Al  Al27  1  0.21252399  0.87296211  0.57432408  1
  Al  Al28  1  0.78413321  0.77202855  0.40031396  1
  Al  Al29  1  0.88224254  0.88213529  0.10550128  1
  Al  Al30  1  0.55639153  0.87120097  0.60938763  1
  B  B31  1  0.89827154  0.18154583  0.56268479  1
  B  B32  1  0.78004320  0.09047127  0.31767949  1
  B  B33  1  0.89553984  0.87234732  0.61131814  1
  B  B34  1  0.55460106  0.87450640  0.11478170  1
  B  B35  1  0.44105596  0.76217980  0.80962545  1
  N  N36  1  0.22727041  0.19818446  0.37266450  1
  N  N37  1  0.10853994  0.09420260  0.13700932  1
  N  N38  1  0.89003357  0.19958735  0.88330923  1
  N  N39  1  0.80545998  0.06994695  0.62555300  1
  N  N40  1  0.58393250  0.19034640  0.37508690  1
  N  N41  1  0.46262950  0.06571942  0.13376635  1
  N  N42  1  0.22184430  0.19936021  0.88543887  1
  N  N43  1  0.08541631  0.10353611  0.62110925  1
  N  N44  1  0.88480665  0.17864237  0.39542861  1
  N  N45  1  0.77325921  0.11121186  0.15513906  1
  N  N46  1  0.55734484  0.20312242  0.88456764  1
  N  N47  1  0.43945041  0.10460299  0.62959962  1
  N  N48  1  0.22753411  0.54370666  0.38023181  1
  N  N49  1  0.10283408  0.43568190  0.09350521  1
  N  N50  1  0.88529218  0.54538338  0.83260660  1
  N  N51  1  0.79330876  0.39829113  0.59193897  1
  N  N52  1  0.55441984  0.53968375  0.38511169  1
  N  N53  1  0.44664518  0.43006949  0.13083671  1
  N  N54  1  0.22357113  0.54116630  0.87983082  1
  N  N55  1  0.10646201  0.42843348  0.58194551  1
  N  N56  1  0.88245736  0.54483873  0.33737411  1
  N  N57  1  0.77484517  0.43582077  0.08208444  1
  N  N58  1  0.53476753  0.57025818  0.87362932  1
  N  N59  1  0.44679543  0.41942672  0.63232394  1
  N  N60  1  0.22670514  0.86734170  0.38663815  1
  N  N61  1  0.12183307  0.76569882  0.12742978  1
  N  N62  1  0.88741521  0.87596318  0.89865199  1
  N  N63  1  0.80135988  0.77670159  0.59572987  1
  N  N64  1  0.55395488  0.86985293  0.40460392  1
  N  N65  1  0.45668532  0.78239881  0.13557305  1
  N  N66  1  0.24381536  0.86439049  0.86995890  1
  N  N67  1  0.08374435  0.77390980  0.63357917  1
  N  N68  1  0.87708264  0.89362571  0.33307354  1
  N  N69  1  0.74020585  0.77898481  0.09260872  1
  N  N70  1  0.54261806  0.85913835  0.82911959  1
  N  N71  1  0.43407922  0.75437401  0.64712980  1
