# generated using pymatgen
data_Al31B5N36
_symmetry_space_group_name_H-M   'P 1'
_cell_length_a   9.18536258
_cell_length_b   9.15909737
_cell_length_c   10.14039625
_cell_angle_alpha   89.60442120
_cell_angle_beta   89.39424557
_cell_angle_gamma   60.24314118
_symmetry_Int_Tables_number   1
_chemical_formula_structural   Al31B5N36
_chemical_formula_sum   'Al31 B5 N36'
_cell_volume   740.57374866
_cell_formula_units_Z   1
loop_
 _symmetry_equiv_pos_site_id
 _symmetry_equiv_pos_as_xyz
  1  'x, y, z'
loop_
 _atom_site_type_symbol
 _atom_site_label
 _atom_site_symmetry_multiplicity
 _atom_site_fract_x
 _atom_site_fract_y
 _atom_site_fract_z
 _atom_site_occupancy
  Al  Al0  1  0.09696714  0.10387717  0.39521414  1
  Al  Al1  1  0.22484199  0.20041717  0.14028396  1
  Al  Al2  1  0.78137171  0.08741692  0.86426518  1
  Al  Al3  1  0.44663878  0.09166966  0.38262127  1
  Al  Al4  1  0.55477983  0.20724058  0.06535802  1
  Al  Al5  1  0.10986584  0.09595383  0.87909678  1
  Al  Al6  1  0.21746212  0.20636878  0.63916637  1
  Al  Al7  1  0.88690053  0.20741068  0.13347723  1
  Al  Al8  1  0.43903256  0.07764485  0.89342634  1
  Al  Al9  1  0.57745024  0.19399482  0.57206992  1
  Al  Al10  1  0.11032415  0.43125732  0.39135909  1
  Al  Al11  1  0.22200636  0.53689080  0.14013804  1
  Al  Al12  1  0.77990668  0.42541212  0.87648514  1
  Al  Al13  1  0.88759795  0.54076937  0.63840980  1
  Al  Al14  1  0.46302913  0.42199312  0.32013150  1
  Al  Al15  1  0.55007317  0.55279569  0.06065277  1
  Al  Al16  1  0.10933981  0.42800041  0.88988120  1
  Al  Al17  1  0.20592739  0.54791492  0.63826070  1
  Al  Al18  1  0.78475070  0.41673506  0.39657973  1
  Al  Al19  1  0.87991697  0.54325877  0.14232529  1
  Al  Al20  1  0.44928149  0.42480228  0.81322257  1
  Al  Al21  1  0.55154549  0.53699718  0.57702131  1
  Al  Al22  1  0.10455772  0.77543849  0.34527688  1
  Al  Al23  1  0.24371844  0.87099097  0.06564433  1
  Al  Al24  1  0.76351194  0.75644017  0.89832508  1
  Al  Al25  1  0.44693039  0.76227446  0.31747789  1
  Al  Al26  1  0.11774518  0.75408951  0.88667180  1
  Al  Al27  1  0.21306935  0.87180215  0.58012882  1
  Al  Al28  1  0.77792537  0.77631192  0.38291993  1
  Al  Al29  1  0.88067416  0.87922310  0.09608232  1
  Al  Al30  1  0.55936447  0.87621719  0.64353940  1
  B  B31  1  0.89728632  0.19200356  0.64939463  1
  B  B32  1  0.78031640  0.09404947  0.34164939  1
  B  B33  1  0.89132782  0.88244915  0.60488527  1
  B  B34  1  0.56084436  0.87372249  0.14911931  1
  B  B35  1  0.44074626  0.75668814  0.80930156  1
  N  N36  1  0.21835736  0.20776434  0.32841680  1
  N  N37  1  0.10754650  0.10193130  0.07133461  1
  N  N38  1  0.89198124  0.20428655  0.80672588  1
  N  N39  1  0.80447185  0.07032955  0.62318505  1
  N  N40  1  0.59257624  0.19171680  0.37423156  1
  N  N41  1  0.45474775  0.06625330  0.08777770  1
  N  N42  1  0.22290358  0.20580212  0.82564681  1
  N  N43  1  0.08152350  0.11041481  0.58798562  1
  N  N44  1  0.87491841  0.19435482  0.32492002  1
  N  N45  1  0.78071314  0.10464780  0.06733242  1
  N  N46  1  0.54584048  0.20659625  0.87419443  1
  N  N47  1  0.43960008  0.09048411  0.57112773  1
  N  N48  1  0.22185147  0.54104411  0.33049367  1
  N  N49  1  0.10983333  0.42885382  0.07865663  1
  N  N50  1  0.88800038  0.54055057  0.82474786  1
  N  N51  1  0.79175909  0.39764530  0.58762695  1
  N  N52  1  0.55302005  0.54741864  0.38774856  1
  N  N53  1  0.45564233  0.42603259  0.13046665  1
  N  N54  1  0.21797214  0.53871416  0.82765066  1
  N  N55  1  0.10819805  0.42752313  0.57629288  1
  N  N56  1  0.88626059  0.54175939  0.33196127  1
  N  N57  1  0.78317845  0.42636461  0.06899706  1
  N  N58  1  0.53883143  0.56404927  0.86842516  1
  N  N59  1  0.44592445  0.41885725  0.62461892  1
  N  N60  1  0.23119857  0.87274797  0.38665229  1
  N  N61  1  0.12037787  0.76144551  0.09711711  1
  N  N62  1  0.89092165  0.85924893  0.88396186  1
  N  N63  1  0.78641749  0.78237625  0.57693879  1
  N  N64  1  0.56363616  0.88020582  0.31109148  1
  N  N65  1  0.45828806  0.76974897  0.13181795  1
  N  N66  1  0.25344416  0.85688864  0.87095784  1
  N  N67  1  0.07541877  0.77644414  0.59371822  1
  N  N68  1  0.87332136  0.90822090  0.32000269  1
  N  N69  1  0.74650727  0.77135704  0.09045390  1
  N  N70  1  0.54572353  0.85797269  0.82854499  1
  N  N71  1  0.43564681  0.75573897  0.64746000  1
