# generated using pymatgen
data_Al31B5N36
_symmetry_space_group_name_H-M   'P 1'
_cell_length_a   9.17011308
_cell_length_b   9.16600259
_cell_length_c   9.79834356
_cell_angle_alpha   90.05214335
_cell_angle_beta   90.23012149
_cell_angle_gamma   60.05856868
_symmetry_Int_Tables_number   1
_chemical_formula_structural   Al31B5N36
_chemical_formula_sum   'Al31 B5 N36'
_cell_volume   713.65796963
_cell_formula_units_Z   1
loop_
 _symmetry_equiv_pos_site_id
 _symmetry_equiv_pos_as_xyz
  1  'x, y, z'
loop_
 _atom_site_type_symbol
 _atom_site_label
 _atom_site_symmetry_multiplicity
 _atom_site_fract_x
 _atom_site_fract_y
 _atom_site_fract_z
 _atom_site_occupancy
  Al  Al0  1  0.10689172  0.09187327  0.30298150  1
  Al  Al1  1  0.22464506  0.19943140  0.04673612  1
  Al  Al2  1  0.78268639  0.09175248  0.79003508  1
  Al  Al3  1  0.45240434  0.08690959  0.29229771  1
  Al  Al4  1  0.56356510  0.19704304  0.05339839  1
  Al  Al5  1  0.10845810  0.09410143  0.79179552  1
  Al  Al6  1  0.21822419  0.20679319  0.54595744  1
  Al  Al7  1  0.88747766  0.20227288  0.05463857  1
  Al  Al8  1  0.44516466  0.08859129  0.80395987  1
  Al  Al9  1  0.56652969  0.19913949  0.54344646  1
  Al  Al10  1  0.11059028  0.42820814  0.29484130  1
  Al  Al11  1  0.22162029  0.54068791  0.04624512  1
  Al  Al12  1  0.77652519  0.42553639  0.79188314  1
  Al  Al13  1  0.88839664  0.54111420  0.54713167  1
  Al  Al14  1  0.44998529  0.42483664  0.29693401  1
  Al  Al15  1  0.55637109  0.54667016  0.04259971  1
  Al  Al16  1  0.10962208  0.42807438  0.79664183  1
  Al  Al17  1  0.21615596  0.54317390  0.54562752  1
  Al  Al18  1  0.77679555  0.42183395  0.30462722  1
  Al  Al19  1  0.88113354  0.54322020  0.04661243  1
  Al  Al20  1  0.44389249  0.43122140  0.79707409  1
  Al  Al21  1  0.55719747  0.53771722  0.55226848  1
  Al  Al22  1  0.10660950  0.76798960  0.30291289  1
  Al  Al23  1  0.22968981  0.87156536  0.04202304  1
  Al  Al24  1  0.77354838  0.76593315  0.79922368  1
  Al  Al25  1  0.44763926  0.76350680  0.29415199  1
  Al  Al26  1  0.10823184  0.76416798  0.79229064  1
  Al  Al27  1  0.21759964  0.87522503  0.55243580  1
  Al  Al28  1  0.77208065  0.77029289  0.29941099  1
  Al  Al29  1  0.88289594  0.87635313  0.05440614  1
  Al  Al30  1  0.55857645  0.87442329  0.55375437  1
  B  B31  1  0.89027561  0.19168506  0.53826337  1
  B  B32  1  0.77873520  0.09310850  0.30618857  1
  B  B33  1  0.88957028  0.88442151  0.53985917  1
  B  B34  1  0.55230003  0.86780381  0.04201857  1
  B  B35  1  0.44598491  0.76065768  0.79835000  1
  N  N36  1  0.22554611  0.20411054  0.35282078  1
  N  N37  1  0.11122276  0.09162434  0.10959422  1
  N  N38  1  0.88748439  0.20384733  0.86183846  1
  N  N39  1  0.80187460  0.08236118  0.59524173  1
  N  N40  1  0.57948996  0.19214467  0.34900970  1
  N  N41  1  0.45786298  0.06725012  0.09563632  1
  N  N42  1  0.21970274  0.20468497  0.85456160  1
  N  N43  1  0.08428052  0.10732737  0.59580225  1
  N  N44  1  0.87795137  0.19147956  0.37044048  1
  N  N45  1  0.78174842  0.09169008  0.13761581  1
  N  N46  1  0.56142683  0.20337749  0.85799121  1
  N  N47  1  0.44365390  0.09727204  0.60992781  1
  N  N48  1  0.22310720  0.53875451  0.35409734  1
  N  N49  1  0.10989409  0.42770635  0.10273267  1
  N  N50  1  0.88535678  0.54003723  0.85246474  1
  N  N51  1  0.78960763  0.39991496  0.59682040  1
  N  N52  1  0.55315001  0.54321411  0.35945125  1
  N  N53  1  0.44701585  0.42792271  0.10327431  1
  N  N54  1  0.22037431  0.54162079  0.85357724  1
  N  N55  1  0.10986312  0.42831485  0.60550331  1
  N  N56  1  0.88751305  0.54169135  0.35452941  1
  N  N57  1  0.77668121  0.42599633  0.11026579  1
  N  N58  1  0.54490610  0.56269510  0.84760431  1
  N  N59  1  0.44320948  0.42626559  0.60428455  1
  N  N60  1  0.22849777  0.86912880  0.36059565  1
  N  N61  1  0.11137902  0.76351255  0.10852358  1
  N  N62  1  0.88815177  0.87576086  0.86283325  1
  N  N63  1  0.78906036  0.77869466  0.60210909  1
  N  N64  1  0.55450977  0.87205460  0.36416212  1
  N  N65  1  0.45709860  0.77376947  0.10082898  1
  N  N66  1  0.24490299  0.86070181  0.84509466  1
  N  N67  1  0.08415315  0.77601753  0.59622725  1
  N  N68  1  0.87705934  0.89615154  0.36915789  1
  N  N69  1  0.75146069  0.77439537  0.10049527  1
  N  N70  1  0.54498657  0.85940354  0.86765398  1
  N  N71  1  0.44743217  0.76278992  0.63056914  1
