# generated using pymatgen
data_Al31B5N36
_symmetry_space_group_name_H-M   'P 1'
_cell_length_a   9.15917590
_cell_length_b   9.20401565
_cell_length_c   10.16388650
_cell_angle_alpha   89.63012220
_cell_angle_beta   89.44939413
_cell_angle_gamma   60.05731983
_symmetry_Int_Tables_number   1
_chemical_formula_structural   Al31B5N36
_chemical_formula_sum   'Al31 B5 N36'
_cell_volume   742.42723000
_cell_formula_units_Z   1
loop_
 _symmetry_equiv_pos_site_id
 _symmetry_equiv_pos_as_xyz
  1  'x, y, z'
loop_
 _atom_site_type_symbol
 _atom_site_label
 _atom_site_symmetry_multiplicity
 _atom_site_fract_x
 _atom_site_fract_y
 _atom_site_fract_z
 _atom_site_occupancy
  Al  Al0  1  0.09660614  0.10430021  0.39354819  1
  Al  Al1  1  0.22221611  0.19693219  0.13617068  1
  Al  Al2  1  0.77798940  0.08485268  0.80899555  1
  Al  Al3  1  0.44627166  0.09049100  0.37406820  1
  Al  Al4  1  0.55922934  0.20349426  0.07434480  1
  Al  Al5  1  0.11217374  0.09645324  0.87582413  1
  Al  Al6  1  0.22604060  0.20548646  0.63756974  1
  Al  Al7  1  0.88696788  0.20791009  0.13957251  1
  Al  Al8  1  0.44553787  0.07995467  0.89371271  1
  Al  Al9  1  0.57546986  0.18781107  0.55870166  1
  Al  Al10  1  0.11047810  0.42698434  0.38474495  1
  Al  Al11  1  0.22373336  0.54074108  0.09552174  1
  Al  Al12  1  0.77799761  0.43274591  0.87734160  1
  Al  Al13  1  0.89499559  0.54218104  0.63911561  1
  Al  Al14  1  0.45808310  0.42469911  0.32110519  1
  Al  Al15  1  0.54680224  0.55460082  0.05983717  1
  Al  Al16  1  0.11199743  0.42778348  0.88851472  1
  Al  Al17  1  0.22289117  0.54155279  0.57867997  1
  Al  Al18  1  0.78792881  0.41690481  0.39251426  1
  Al  Al19  1  0.87863315  0.54174840  0.13946265  1
  Al  Al20  1  0.44763485  0.42699998  0.81608632  1
  Al  Al21  1  0.55436813  0.53651999  0.57785871  1
  Al  Al22  1  0.10648484  0.77597914  0.32137824  1
  Al  Al23  1  0.23562257  0.86597707  0.05832663  1
  Al  Al24  1  0.76459333  0.76284393  0.89703194  1
  Al  Al25  1  0.44421153  0.76272692  0.31780785  1
  Al  Al26  1  0.10723145  0.76317090  0.82066710  1
  Al  Al27  1  0.20717899  0.87557301  0.58046296  1
  Al  Al28  1  0.78032320  0.77206486  0.37934218  1
  Al  Al29  1  0.88476695  0.87678668  0.08681218  1
  Al  Al30  1  0.55996297  0.87442900  0.63964262  1
  B  B31  1  0.91521070  0.23563055  0.65182240  1
  B  B32  1  0.77509672  0.08918034  0.30690236  1
  B  B33  1  0.88033234  0.86634309  0.59671175  1
  B  B34  1  0.55893994  0.87275647  0.14629446  1
  B  B35  1  0.43929185  0.75758176  0.80681353  1
  N  N36  1  0.21776052  0.20532229  0.32239308  1
  N  N37  1  0.10219855  0.09941980  0.06427563  1
  N  N38  1  0.89250063  0.21519540  0.79843006  1
  N  N39  1  0.77718387  0.04071232  0.63311740  1
  N  N40  1  0.58512161  0.19498762  0.36950912  1
  N  N41  1  0.45319854  0.06553772  0.08483432  1
  N  N42  1  0.22806161  0.20619163  0.82394533  1
  N  N43  1  0.08093585  0.11798996  0.58780844  1
  N  N44  1  0.88023911  0.20026251  0.32556330  1
  N  N45  1  0.76827546  0.09405370  0.14741631  1
  N  N46  1  0.56220566  0.20704058  0.88550181  1
  N  N47  1  0.43790330  0.08436976  0.56237968  1
  N  N48  1  0.22679399  0.54470336  0.37166166  1
  N  N49  1  0.10758071  0.42526346  0.07887438  1
  N  N50  1  0.89008719  0.54598255  0.82489915  1
  N  N51  1  0.79898722  0.40350467  0.58744651  1
  N  N52  1  0.55500483  0.54683759  0.38963658  1
  N  N53  1  0.45099323  0.42921188  0.13238876  1
  N  N54  1  0.22509464  0.54092472  0.86272676  1
  N  N55  1  0.11146369  0.42213941  0.57384175  1
  N  N56  1  0.88716954  0.54066675  0.32632844  1
  N  N57  1  0.78104179  0.42243361  0.06622974  1
  N  N58  1  0.53888671  0.56850882  0.86685349  1
  N  N59  1  0.45401454  0.41151738  0.62797538  1
  N  N60  1  0.22795550  0.87215941  0.39262139  1
  N  N61  1  0.11698928  0.76611462  0.13171915  1
  N  N62  1  0.89144177  0.87855638  0.89611851  1
  N  N63  1  0.78796133  0.76262049  0.57180297  1
  N  N64  1  0.56424820  0.87738887  0.30574849  1
  N  N65  1  0.45182923  0.77136068  0.13006696  1
  N  N66  1  0.24836429  0.85758662  0.86457897  1
  N  N67  1  0.07459239  0.77322357  0.62838834  1
  N  N68  1  0.87767409  0.90328086  0.35106456  1
  N  N69  1  0.74743620  0.76942430  0.08618213  1
  N  N70  1  0.54719918  0.86243668  0.82478312  1
  N  N71  1  0.43363977  0.75539373  0.64727629  1
