# generated using pymatgen
data_Al31B5N36
_symmetry_space_group_name_H-M   'P 1'
_cell_length_a   9.14464539
_cell_length_b   9.19089552
_cell_length_c   10.20220796
_cell_angle_alpha   89.56976894
_cell_angle_beta   89.33329158
_cell_angle_gamma   59.98933206
_symmetry_Int_Tables_number   1
_chemical_formula_structural   Al31B5N36
_chemical_formula_sum   'Al31 B5 N36'
_cell_volume   742.45917259
_cell_formula_units_Z   1
loop_
 _symmetry_equiv_pos_site_id
 _symmetry_equiv_pos_as_xyz
  1  'x, y, z'
loop_
 _atom_site_type_symbol
 _atom_site_label
 _atom_site_symmetry_multiplicity
 _atom_site_fract_x
 _atom_site_fract_y
 _atom_site_fract_z
 _atom_site_occupancy
  Al  Al0  1  0.09662118  0.10320893  0.39359776  1
  Al  Al1  1  0.22232715  0.19813450  0.13626415  1
  Al  Al2  1  0.77850551  0.08489556  0.81004329  1
  Al  Al3  1  0.44675682  0.09058610  0.37453749  1
  Al  Al4  1  0.55840305  0.20480653  0.07398157  1
  Al  Al5  1  0.11253093  0.09619718  0.87591128  1
  Al  Al6  1  0.22605417  0.20552499  0.63675661  1
  Al  Al7  1  0.88724739  0.20874360  0.13923110  1
  Al  Al8  1  0.44592936  0.07989843  0.89403401  1
  Al  Al9  1  0.57498313  0.18861124  0.55935205  1
  Al  Al10  1  0.10979644  0.42623950  0.38347842  1
  Al  Al11  1  0.22615805  0.54307179  0.07003777  1
  Al  Al12  1  0.77774004  0.43333194  0.87746487  1
  Al  Al13  1  0.89520820  0.54158858  0.63840853  1
  Al  Al14  1  0.45489040  0.42610623  0.31818568  1
  Al  Al15  1  0.54710649  0.55478853  0.06069694  1
  Al  Al16  1  0.11002198  0.42556903  0.88897289  1
  Al  Al17  1  0.22276942  0.54268224  0.56696020  1
  Al  Al18  1  0.78689424  0.41664396  0.39250877  1
  Al  Al19  1  0.87987342  0.54176042  0.13965999  1
  Al  Al20  1  0.44634707  0.42805484  0.81670820  1
  Al  Al21  1  0.55280437  0.53649427  0.57800180  1
  Al  Al22  1  0.10861980  0.77274365  0.31755416  1
  Al  Al23  1  0.23597743  0.86653861  0.05892704  1
  Al  Al24  1  0.76501735  0.76348379  0.89818269  1
  Al  Al25  1  0.44414651  0.76270962  0.31824156  1
  Al  Al26  1  0.10828726  0.76209711  0.82226098  1
  Al  Al27  1  0.20665641  0.87468231  0.58093911  1
  Al  Al28  1  0.78076556  0.77249304  0.37909903  1
  Al  Al29  1  0.88542257  0.87657124  0.08998025  1
  Al  Al30  1  0.56011618  0.87444149  0.64005868  1
  B  B31  1  0.91509233  0.23550808  0.65185031  1
  B  B32  1  0.77520134  0.08971209  0.30536748  1
  B  B33  1  0.88070425  0.86399419  0.60177028  1
  B  B34  1  0.55912215  0.87280654  0.14650070  1
  B  B35  1  0.43964185  0.75766785  0.80708112  1
  N  N36  1  0.21816606  0.20444497  0.32211443  1
  N  N37  1  0.10267363  0.10002101  0.06371559  1
  N  N38  1  0.89280405  0.21557419  0.79825565  1
  N  N39  1  0.77752237  0.03976673  0.63446229  1
  N  N40  1  0.58483459  0.19613946  0.36995030  1
  N  N41  1  0.45346218  0.06568997  0.08447994  1
  N  N42  1  0.22872453  0.20601972  0.82261425  1
  N  N43  1  0.08078260  0.11732993  0.58761757  1
  N  N44  1  0.88053949  0.19999291  0.32481389  1
  N  N45  1  0.76736539  0.09629382  0.14659473  1
  N  N46  1  0.56172292  0.20781971  0.88540874  1
  N  N47  1  0.43844352  0.08409409  0.56213869  1
  N  N48  1  0.22684693  0.54548344  0.37805195  1
  N  N49  1  0.10745386  0.42513659  0.07815334  1
  N  N50  1  0.89019391  0.54676288  0.82370945  1
  N  N51  1  0.79790910  0.40318858  0.58728624  1
  N  N52  1  0.55349839  0.54623672  0.38990917  1
  N  N53  1  0.44768612  0.43124324  0.13100273  1
  N  N54  1  0.22676147  0.54197247  0.87979775  1
  N  N55  1  0.11134690  0.42182553  0.57295557  1
  N  N56  1  0.88638391  0.54072744  0.32621044  1
  N  N57  1  0.78140965  0.42322233  0.06570696  1
  N  N58  1  0.53858549  0.56878495  0.86721648  1
  N  N59  1  0.44919858  0.41399165  0.63020978  1
  N  N60  1  0.22724717  0.87061639  0.39320660  1
  N  N61  1  0.12003602  0.76284777  0.12994133  1
  N  N62  1  0.89221058  0.87871371  0.89763426  1
  N  N63  1  0.78866279  0.76258479  0.57173075  1
  N  N64  1  0.56427215  0.87751674  0.30591468  1
  N  N65  1  0.45216145  0.77182827  0.13088796  1
  N  N66  1  0.24891359  0.85729319  0.86496383  1
  N  N67  1  0.07606972  0.76936474  0.63207451  1
  N  N68  1  0.87865831  0.90173984  0.34483459  1
  N  N69  1  0.74755985  0.76952758  0.08637969  1
  N  N70  1  0.54793386  0.86241397  0.82469250  1
  N  N71  1  0.43374036  0.75565019  0.64773291  1
