# generated using pymatgen
data_Al31B5N36
_symmetry_space_group_name_H-M   'P 1'
_cell_length_a   9.18805505
_cell_length_b   9.18527743
_cell_length_c   9.94579853
_cell_angle_alpha   89.89140812
_cell_angle_beta   89.44014187
_cell_angle_gamma   59.94457481
_symmetry_Int_Tables_number   1
_chemical_formula_structural   Al31B5N36
_chemical_formula_sum   'Al31 B5 N36'
_cell_volume   726.47385879
_cell_formula_units_Z   1
loop_
 _symmetry_equiv_pos_site_id
 _symmetry_equiv_pos_as_xyz
  1  'x, y, z'
loop_
 _atom_site_type_symbol
 _atom_site_label
 _atom_site_symmetry_multiplicity
 _atom_site_fract_x
 _atom_site_fract_y
 _atom_site_fract_z
 _atom_site_occupancy
  Al  Al0  1  0.09961475  0.09454700  0.40487228  1
  Al  Al1  1  0.22569777  0.19962870  0.15113440  1
  Al  Al2  1  0.78193291  0.09113934  0.86292607  1
  Al  Al3  1  0.44830112  0.08782591  0.39119082  1
  Al  Al4  1  0.55837487  0.20340920  0.07425721  1
  Al  Al5  1  0.11392933  0.09119936  0.89746185  1
  Al  Al6  1  0.21894023  0.20644875  0.64944201  1
  Al  Al7  1  0.88637334  0.20248485  0.14328100  1
  Al  Al8  1  0.43929574  0.07930670  0.90165880  1
  Al  Al9  1  0.57947344  0.19676956  0.58523471  1
  Al  Al10  1  0.10775484  0.42950840  0.40144454  1
  Al  Al11  1  0.21541595  0.54286023  0.15075232  1
  Al  Al12  1  0.77452030  0.43119873  0.89478799  1
  Al  Al13  1  0.88820457  0.54093287  0.64986670  1
  Al  Al14  1  0.45345884  0.41915173  0.33532917  1
  Al  Al15  1  0.55910135  0.54862314  0.14372305  1
  Al  Al16  1  0.10966218  0.42718310  0.90096319  1
  Al  Al17  1  0.21011068  0.54665631  0.64674367  1
  Al  Al18  1  0.77702245  0.41865277  0.40529307  1
  Al  Al19  1  0.88136184  0.54398513  0.15097700  1
  Al  Al20  1  0.44412007  0.42675209  0.83030896  1
  Al  Al21  1  0.56080343  0.54343280  0.64581046  1
  Al  Al22  1  0.09892724  0.77463697  0.40486265  1
  Al  Al23  1  0.22827550  0.87283172  0.14572423  1
  Al  Al24  1  0.77068818  0.76190188  0.89881936  1
  Al  Al25  1  0.44489521  0.76445424  0.39157571  1
  Al  Al26  1  0.11568688  0.75930608  0.89830267  1
  Al  Al27  1  0.21987508  0.87445967  0.65228926  1
  Al  Al28  1  0.77287752  0.77349205  0.39836035  1
  Al  Al29  1  0.87985410  0.88053904  0.14386963  1
  Al  Al30  1  0.55791437  0.87402350  0.64971712  1
  B  B31  1  0.89758002  0.19223544  0.66088835  1
  B  B32  1  0.77932101  0.09439843  0.36149634  1
  B  B33  1  0.89634415  0.87959935  0.66044881  1
  B  B34  1  0.55490281  0.87260943  0.14690603  1
  B  B35  1  0.44816608  0.76138727  0.89071797  1
  N  N36  1  0.21845639  0.20497894  0.34189010  1
  N  N37  1  0.11018853  0.09554381  0.08747717  1
  N  N38  1  0.89524538  0.20915978  0.82182317  1
  N  N39  1  0.80527334  0.08097836  0.63589370  1
  N  N40  1  0.59082780  0.18913667  0.38366043  1
  N  N41  1  0.45607033  0.06692132  0.09721188  1
  N  N42  1  0.22236471  0.20465487  0.83929481  1
  N  N43  1  0.08762559  0.10449614  0.59850433  1
  N  N44  1  0.87307835  0.19107786  0.33848363  1
  N  N45  1  0.78911173  0.08971685  0.06923071  1
  N  N46  1  0.54685179  0.20560381  0.88052062  1
  N  N47  1  0.44355260  0.09298668  0.58465160  1
  N  N48  1  0.21420562  0.54695104  0.34615766  1
  N  N49  1  0.10994894  0.42687323  0.09193100  1
  N  N50  1  0.88808890  0.54022161  0.83970488  1
  N  N51  1  0.79025227  0.40163347  0.59693610  1
  N  N52  1  0.56121003  0.54206730  0.33949143  1
  N  N53  1  0.44841038  0.42179680  0.13739911  1
  N  N54  1  0.21469279  0.54108637  0.83923057  1
  N  N55  1  0.10936646  0.42761664  0.58907586  1
  N  N56  1  0.88402185  0.54149503  0.34347196  1
  N  N57  1  0.78059427  0.42504753  0.08537368  1
  N  N58  1  0.54321933  0.56735780  0.84528375  1
  N  N59  1  0.44756988  0.42488938  0.63044397  1
  N  N60  1  0.21976945  0.87431307  0.33915712  1
  N  N61  1  0.10934549  0.76297641  0.08887474  1
  N  N62  1  0.89480804  0.86060110  0.82306439  1
  N  N63  1  0.78679210  0.77771082  0.59300845  1
  N  N64  1  0.55663823  0.87175004  0.31518305  1
  N  N65  1  0.45708820  0.77465046  0.08504672  1
  N  N66  1  0.25019580  0.85796870  0.84568254  1
  N  N67  1  0.08616927  0.77831732  0.59816429  1
  N  N68  1  0.87235830  0.90465008  0.33823545  1
  N  N69  1  0.75432579  0.77458140  0.09373380  1
  N  N70  1  0.54354294  0.85623968  0.83980636  1
  N  N71  1  0.44498397  0.76535782  0.58136739  1
