# generated using pymatgen
data_Al31B5N36
_symmetry_space_group_name_H-M   'P 1'
_cell_length_a   9.20802399
_cell_length_b   9.19454103
_cell_length_c   9.92413486
_cell_angle_alpha   90.22262120
_cell_angle_beta   89.95475228
_cell_angle_gamma   59.88556407
_symmetry_Int_Tables_number   1
_chemical_formula_structural   Al31B5N36
_chemical_formula_sum   'Al31 B5 N36'
_cell_volume   726.79574467
_cell_formula_units_Z   1
loop_
 _symmetry_equiv_pos_site_id
 _symmetry_equiv_pos_as_xyz
  1  'x, y, z'
loop_
 _atom_site_type_symbol
 _atom_site_label
 _atom_site_symmetry_multiplicity
 _atom_site_fract_x
 _atom_site_fract_y
 _atom_site_fract_z
 _atom_site_occupancy
  Al  Al0  1  0.10604293  0.09131478  0.32852298  1
  Al  Al1  1  0.22465316  0.20033797  0.07805585  1
  Al  Al2  1  0.78139482  0.08758850  0.82519674  1
  Al  Al3  1  0.45633012  0.08347287  0.33078850  1
  Al  Al4  1  0.56094876  0.20073206  0.07829148  1
  Al  Al5  1  0.10901340  0.09359932  0.81863323  1
  Al  Al6  1  0.21746597  0.20561969  0.57013525  1
  Al  Al7  1  0.88785782  0.20814551  0.07770509  1
  Al  Al8  1  0.44147221  0.09183545  0.82189060  1
  Al  Al9  1  0.57025325  0.19482269  0.56849914  1
  Al  Al10  1  0.11662206  0.42747089  0.33365695  1
  Al  Al11  1  0.22431414  0.54081958  0.07222560  1
  Al  Al12  1  0.77137010  0.42257351  0.81922372  1
  Al  Al13  1  0.88852254  0.54450924  0.63648481  1
  Al  Al14  1  0.45109751  0.42396362  0.32185283  1
  Al  Al15  1  0.55804559  0.54937762  0.06935008  1
  Al  Al16  1  0.11287216  0.42559466  0.83149212  1
  Al  Al17  1  0.21946788  0.54212685  0.57521838  1
  Al  Al18  1  0.77634406  0.41790763  0.33668616  1
  Al  Al19  1  0.87772395  0.55269714  0.15000822  1
  Al  Al20  1  0.44474582  0.42986520  0.82282685  1
  Al  Al21  1  0.55743527  0.53166839  0.57546794  1
  Al  Al22  1  0.10946692  0.76799244  0.31986003  1
  Al  Al23  1  0.23402941  0.87444823  0.06672409  1
  Al  Al24  1  0.75927026  0.76371629  0.89597181  1
  Al  Al25  1  0.44932583  0.76318440  0.33124889  1
  Al  Al26  1  0.10763787  0.76431540  0.83092496  1
  Al  Al27  1  0.21196929  0.87490773  0.57652481  1
  Al  Al28  1  0.78325692  0.77513321  0.40209294  1
  Al  Al29  1  0.88320981  0.88174691  0.10414039  1
  Al  Al30  1  0.55415185  0.87284178  0.60901137  1
  B  B31  1  0.89407237  0.19234945  0.56552587  1
  B  B32  1  0.77719911  0.09168730  0.31858873  1
  B  B33  1  0.89468251  0.87635359  0.61185007  1
  B  B34  1  0.55368651  0.87339925  0.11443671  1
  B  B35  1  0.44316937  0.76112914  0.81090121  1
  N  N36  1  0.22543265  0.20185424  0.37969927  1
  N  N37  1  0.11020504  0.09354206  0.13676261  1
  N  N38  1  0.88716223  0.20331657  0.88762945  1
  N  N39  1  0.80390567  0.07210076  0.62784996  1
  N  N40  1  0.58190963  0.19131613  0.37511322  1
  N  N41  1  0.46064652  0.06507635  0.13276653  1
  N  N42  1  0.22062390  0.20254026  0.88657102  1
  N  N43  1  0.08469696  0.10659577  0.62380730  1
  N  N44  1  0.88090039  0.19029910  0.39944159  1
  N  N45  1  0.77378135  0.10956546  0.15537562  1
  N  N46  1  0.55706991  0.20234256  0.88572342  1
  N  N47  1  0.43893631  0.10493968  0.63149065  1
  N  N48  1  0.22466269  0.54309767  0.38448971  1
  N  N49  1  0.11358549  0.42925820  0.13143461  1
  N  N50  1  0.88076871  0.54435201  0.83492547  1
  N  N51  1  0.78889230  0.39497958  0.62269548  1
  N  N52  1  0.55327197  0.54044148  0.38641079  1
  N  N53  1  0.44704135  0.43054293  0.13036736  1
  N  N54  1  0.22254965  0.53936121  0.88190664  1
  N  N55  1  0.11646574  0.42476520  0.62872938  1
  N  N56  1  0.88411983  0.54867291  0.34909894  1
  N  N57  1  0.77396439  0.42725205  0.13953179  1
  N  N58  1  0.54327116  0.56303659  0.87530618  1
  N  N59  1  0.44678423  0.42093710  0.63221246  1
  N  N60  1  0.22537820  0.86953707  0.38732419  1
  N  N61  1  0.12168362  0.76276137  0.12871716  1
  N  N62  1  0.88724632  0.87435317  0.89982807  1
  N  N63  1  0.79944841  0.78138515  0.59739146  1
  N  N64  1  0.55262085  0.87137913  0.40472819  1
  N  N65  1  0.45949584  0.77842518  0.13507604  1
  N  N66  1  0.24534868  0.86200742  0.87189215  1
  N  N67  1  0.08333931  0.77547897  0.63417463  1
  N  N68  1  0.87642207  0.89743932  0.33808755  1
  N  N69  1  0.74086036  0.77792349  0.09414256  1
  N  N70  1  0.54161800  0.85856415  0.83289809  1
  N  N71  1  0.43601603  0.75273969  0.64791504  1
