# generated using pymatgen
data_Al31B5N36
_symmetry_space_group_name_H-M   'P 1'
_cell_length_a   9.19669274
_cell_length_b   9.15168846
_cell_length_c   10.14529968
_cell_angle_alpha   89.39499547
_cell_angle_beta   89.38592574
_cell_angle_gamma   60.19973094
_symmetry_Int_Tables_number   1
_chemical_formula_structural   Al31B5N36
_chemical_formula_sum   'Al31 B5 N36'
_cell_volume   740.91115285
_cell_formula_units_Z   1
loop_
 _symmetry_equiv_pos_site_id
 _symmetry_equiv_pos_as_xyz
  1  'x, y, z'
loop_
 _atom_site_type_symbol
 _atom_site_label
 _atom_site_symmetry_multiplicity
 _atom_site_fract_x
 _atom_site_fract_y
 _atom_site_fract_z
 _atom_site_occupancy
  Al  Al0  1  0.10673503  0.08716059  0.32003634  1
  Al  Al1  1  0.23084279  0.20391560  0.13487254  1
  Al  Al2  1  0.78130979  0.09072064  0.82318657  1
  Al  Al3  1  0.44740992  0.09026452  0.39389235  1
  Al  Al4  1  0.55776454  0.20322460  0.06592345  1
  Al  Al5  1  0.11010062  0.09361970  0.87051267  1
  Al  Al6  1  0.21557877  0.21000778  0.64197832  1
  Al  Al7  1  0.87996380  0.20968263  0.11046193  1
  Al  Al8  1  0.44368358  0.08079601  0.87734355  1
  Al  Al9  1  0.57789486  0.20094638  0.56385878  1
  Al  Al10  1  0.11004789  0.42271875  0.38750680  1
  Al  Al11  1  0.22478043  0.54359709  0.06619466  1
  Al  Al12  1  0.77531915  0.43209163  0.88840217  1
  Al  Al13  1  0.89226366  0.53785976  0.63975994  1
  Al  Al14  1  0.45321239  0.42083158  0.31683368  1
  Al  Al15  1  0.54496920  0.55648325  0.06522375  1
  Al  Al16  1  0.10405783  0.42883687  0.88933487  1
  Al  Al17  1  0.22097740  0.54512464  0.56784823  1
  Al  Al18  1  0.78664858  0.40905479  0.38654194  1
  Al  Al19  1  0.87609441  0.54800253  0.14661166  1
  Al  Al20  1  0.44415758  0.43207196  0.81494215  1
  Al  Al21  1  0.55242165  0.53681113  0.57213942  1
  Al  Al22  1  0.10771756  0.76641746  0.31378071  1
  Al  Al23  1  0.23816301  0.86645840  0.06353633  1
  Al  Al24  1  0.76348218  0.76183003  0.88519345  1
  Al  Al25  1  0.45288558  0.76074963  0.32492177  1
  Al  Al26  1  0.11148000  0.76434236  0.82152184  1
  Al  Al27  1  0.21133390  0.88011079  0.56907573  1
  Al  Al28  1  0.78514421  0.77310889  0.39614327  1
  Al  Al29  1  0.88306842  0.87634030  0.08581469  1
  Al  Al30  1  0.55648161  0.87535962  0.61490215  1
  B  B31  1  0.90105963  0.19240553  0.60813061  1
  B  B32  1  0.77638205  0.08991270  0.29996625  1
  B  B33  1  0.89872097  0.87547131  0.60679123  1
  B  B34  1  0.55335519  0.87234808  0.10071292  1
  B  B35  1  0.44258407  0.75916902  0.80532743  1
  N  N36  1  0.22932754  0.20314502  0.32227162  1
  N  N37  1  0.11486704  0.09127471  0.10255744  1
  N  N38  1  0.88419390  0.20221035  0.88350686  1
  N  N39  1  0.80902895  0.07746250  0.62721765  1
  N  N40  1  0.58708848  0.19126263  0.37154114  1
  N  N41  1  0.45594418  0.06126700  0.07532818  1
  N  N42  1  0.22082535  0.20918305  0.82997557  1
  N  N43  1  0.08262952  0.10803236  0.61108091  1
  N  N44  1  0.87666146  0.19611593  0.31649542  1
  N  N45  1  0.76285230  0.09608865  0.14045647  1
  N  N46  1  0.55651207  0.20680232  0.87671813  1
  N  N47  1  0.43660372  0.10758148  0.58462273  1
  N  N48  1  0.22665687  0.54212285  0.37772540  1
  N  N49  1  0.10208571  0.43074134  0.07946080  1
  N  N50  1  0.88661847  0.54071901  0.82423975  1
  N  N51  1  0.79528511  0.38804687  0.58497449  1
  N  N52  1  0.55391686  0.53892825  0.38302942  1
  N  N53  1  0.44446430  0.42885680  0.12782394  1
  N  N54  1  0.22457356  0.54186977  0.87607220  1
  N  N55  1  0.10643011  0.42613616  0.57627094  1
  N  N56  1  0.88630525  0.54208358  0.33421085  1
  N  N57  1  0.77237832  0.43885216  0.07918015  1
  N  N58  1  0.53726115  0.56944256  0.87051068  1
  N  N59  1  0.44452520  0.42336768  0.62921806  1
  N  N60  1  0.22655002  0.86841597  0.38073152  1
  N  N61  1  0.11826913  0.76218462  0.12535597  1
  N  N62  1  0.89112450  0.87153238  0.88948826  1
  N  N63  1  0.80144558  0.78112777  0.59206289  1
  N  N64  1  0.55907303  0.86151350  0.39666800  1
  N  N65  1  0.45817980  0.77840884  0.13253604  1
  N  N66  1  0.25072631  0.85800068  0.87186152  1
  N  N67  1  0.08608080  0.77528643  0.62939082  1
  N  N68  1  0.87839127  0.89823171  0.33714687  1
  N  N69  1  0.74047498  0.77461852  0.08171611  1
  N  N70  1  0.54629934  0.86028026  0.81713912  1
  N  N71  1  0.43351152  0.75546174  0.64467050  1
