# generated using pymatgen
data_Al31B5N36
_symmetry_space_group_name_H-M   'P 1'
_cell_length_a   9.18527075
_cell_length_b   9.18821189
_cell_length_c   9.85918523
_cell_angle_alpha   90.01951991
_cell_angle_beta   89.54924918
_cell_angle_gamma   59.99426479
_symmetry_Int_Tables_number   1
_chemical_formula_structural   Al31B5N36
_chemical_formula_sum   'Al31 B5 N36'
_cell_volume   720.52787774
_cell_formula_units_Z   1
loop_
 _symmetry_equiv_pos_site_id
 _symmetry_equiv_pos_as_xyz
  1  'x, y, z'
loop_
 _atom_site_type_symbol
 _atom_site_label
 _atom_site_symmetry_multiplicity
 _atom_site_fract_x
 _atom_site_fract_y
 _atom_site_fract_z
 _atom_site_occupancy
  Al  Al0  1  0.09948983  0.09367793  0.40351092  1
  Al  Al1  1  0.22477347  0.20038361  0.15030037  1
  Al  Al2  1  0.78315525  0.09149692  0.86317605  1
  Al  Al3  1  0.45035189  0.08850493  0.38915682  1
  Al  Al4  1  0.56089670  0.19850152  0.08732801  1
  Al  Al5  1  0.11453890  0.09174630  0.89686667  1
  Al  Al6  1  0.21821325  0.20618144  0.64793247  1
  Al  Al7  1  0.88617410  0.20264215  0.14383825  1
  Al  Al8  1  0.44128301  0.08208832  0.89759396  1
  Al  Al9  1  0.57405995  0.19512944  0.61423248  1
  Al  Al10  1  0.10826680  0.42909910  0.40001604  1
  Al  Al11  1  0.22032727  0.54106168  0.15157674  1
  Al  Al12  1  0.77719708  0.43020805  0.89385045  1
  Al  Al13  1  0.88842092  0.54062494  0.64799697  1
  Al  Al14  1  0.44893391  0.42761617  0.39647033  1
  Al  Al15  1  0.55715148  0.54535635  0.14203499  1
  Al  Al16  1  0.11106147  0.42805819  0.89947367  1
  Al  Al17  1  0.21648567  0.54344069  0.64833519  1
  Al  Al18  1  0.77490177  0.41886395  0.40399592  1
  Al  Al19  1  0.88171031  0.54377541  0.15017027  1
  Al  Al20  1  0.43963338  0.43865274  0.89497482  1
  Al  Al21  1  0.55734134  0.53988567  0.65282404  1
  Al  Al22  1  0.09839087  0.77466259  0.40354528  1
  Al  Al23  1  0.22741915  0.87245220  0.14290722  1
  Al  Al24  1  0.77148180  0.76252598  0.89739870  1
  Al  Al25  1  0.44494983  0.76291141  0.39113514  1
  Al  Al26  1  0.11449189  0.76069501  0.89694359  1
  Al  Al27  1  0.22119198  0.87338905  0.65374055  1
  Al  Al28  1  0.77182082  0.77394361  0.39732844  1
  Al  Al29  1  0.88033399  0.87972895  0.14383668  1
  Al  Al30  1  0.55806823  0.87060085  0.65026960  1
  B  B31  1  0.89802417  0.19161986  0.65955090  1
  B  B32  1  0.77463402  0.09646184  0.36105010  1
  B  B33  1  0.89763969  0.87843782  0.65893393  1
  B  B34  1  0.55652106  0.87173560  0.14437560  1
  B  B35  1  0.44995090  0.76405482  0.90250422  1
  N  N36  1  0.21875013  0.20414811  0.34207470  1
  N  N37  1  0.10962469  0.09579988  0.08789998  1
  N  N38  1  0.89647452  0.20861052  0.82154094  1
  N  N39  1  0.80719899  0.07971631  0.63238469  1
  N  N40  1  0.58721885  0.19011675  0.36796410  1
  N  N41  1  0.45571722  0.06743267  0.09490553  1
  N  N42  1  0.22256070  0.20546973  0.83912336  1
  N  N43  1  0.08840097  0.10320721  0.59816318  1
  N  N44  1  0.87240495  0.19087045  0.33894698  1
  N  N45  1  0.78848826  0.08959171  0.06751777  1
  N  N46  1  0.54847700  0.20634968  0.86175812  1
  N  N47  1  0.44429265  0.09042181  0.58496378  1
  N  N48  1  0.21862700  0.54429149  0.34380363  1
  N  N49  1  0.11073157  0.42755025  0.09228503  1
  N  N50  1  0.88939062  0.54068735  0.83944950  1
  N  N51  1  0.78801064  0.40208641  0.59789968  1
  N  N52  1  0.55690521  0.53990097  0.33421863  1
  N  N53  1  0.44252530  0.43227947  0.09007255  1
  N  N54  1  0.22068154  0.53983336  0.83817340  1
  N  N55  1  0.11073472  0.42782082  0.58933310  1
  N  N56  1  0.88322958  0.54150735  0.34392451  1
  N  N57  1  0.78074035  0.42464183  0.08592174  1
  N  N58  1  0.54413695  0.56597209  0.84772543  1
  N  N59  1  0.44422156  0.43049458  0.59111692  1
  N  N60  1  0.22057879  0.87309249  0.33732176  1
  N  N61  1  0.10810935  0.76229224  0.08902146  1
  N  N62  1  0.89509034  0.86108172  0.82240131  1
  N  N63  1  0.78645776  0.77739573  0.59281777  1
  N  N64  1  0.55513555  0.87025476  0.31247328  1
  N  N65  1  0.45700344  0.77289852  0.07615832  1
  N  N66  1  0.24982714  0.85899682  0.84850471  1
  N  N67  1  0.08791751  0.77632708  0.59839993  1
  N  N68  1  0.87153555  0.90448024  0.33823441  1
  N  N69  1  0.75392055  0.77473283  0.09313097  1
  N  N70  1  0.54440714  0.85698879  0.84144356  1
  N  N71  1  0.44623897  0.76147365  0.58235320  1
