# generated using pymatgen
data_Al31B5N36
_symmetry_space_group_name_H-M   'P 1'
_cell_length_a   9.19467798
_cell_length_b   9.15146578
_cell_length_c   10.14737364
_cell_angle_alpha   89.39819988
_cell_angle_beta   89.36449776
_cell_angle_gamma   60.21312877
_symmetry_Int_Tables_number   1
_chemical_formula_structural   Al31B5N36
_chemical_formula_sum   'Al31 B5 N36'
_cell_volume   740.97962431
_cell_formula_units_Z   1
loop_
 _symmetry_equiv_pos_site_id
 _symmetry_equiv_pos_as_xyz
  1  'x, y, z'
loop_
 _atom_site_type_symbol
 _atom_site_label
 _atom_site_symmetry_multiplicity
 _atom_site_fract_x
 _atom_site_fract_y
 _atom_site_fract_z
 _atom_site_occupancy
  Al  Al0  1  0.10584618  0.08871489  0.32987816  1
  Al  Al1  1  0.23029743  0.20321782  0.13501005  1
  Al  Al2  1  0.78149708  0.09082670  0.82272753  1
  Al  Al3  1  0.44763361  0.09014705  0.39392584  1
  Al  Al4  1  0.55776646  0.20320105  0.06571416  1
  Al  Al5  1  0.11056084  0.09479577  0.88078835  1
  Al  Al6  1  0.21484550  0.20943296  0.64201813  1
  Al  Al7  1  0.88024121  0.20979973  0.11249203  1
  Al  Al8  1  0.44339163  0.08102177  0.87702041  1
  Al  Al9  1  0.57781872  0.20089790  0.56398823  1
  Al  Al10  1  0.10989783  0.42296205  0.38762249  1
  Al  Al11  1  0.22482962  0.54334675  0.06609715  1
  Al  Al12  1  0.77540063  0.43191286  0.88804322  1
  Al  Al13  1  0.89222744  0.53786473  0.63982325  1
  Al  Al14  1  0.45315425  0.42088854  0.31675259  1
  Al  Al15  1  0.54524247  0.55621948  0.06502050  1
  Al  Al16  1  0.10416071  0.42872822  0.88905800  1
  Al  Al17  1  0.22095998  0.54495352  0.56803273  1
  Al  Al18  1  0.78633642  0.40973314  0.38653151  1
  Al  Al19  1  0.87619728  0.54799963  0.14638080  1
  Al  Al20  1  0.44421281  0.43208817  0.81498146  1
  Al  Al21  1  0.55244912  0.53679016  0.57221465  1
  Al  Al22  1  0.10762191  0.76627851  0.31364474  1
  Al  Al23  1  0.23889007  0.86505668  0.06407257  1
  Al  Al24  1  0.76346469  0.76196364  0.88508084  1
  Al  Al25  1  0.45321736  0.76050589  0.32472389  1
  Al  Al26  1  0.11165230  0.76478237  0.82163529  1
  Al  Al27  1  0.21191224  0.87911233  0.56942104  1
  Al  Al28  1  0.78512455  0.77316683  0.39624387  1
  Al  Al29  1  0.88307756  0.87641959  0.08535120  1
  Al  Al30  1  0.55644403  0.87544067  0.61516442  1
  B  B31  1  0.90114591  0.19242027  0.60743399  1
  B  B32  1  0.77609871  0.08951246  0.29977451  1
  B  B33  1  0.89867416  0.87556453  0.60669623  1
  B  B34  1  0.55340880  0.87242764  0.10069261  1
  B  B35  1  0.44213318  0.75947029  0.80556701  1
  N  N36  1  0.22902823  0.20287678  0.32212994  1
  N  N37  1  0.11463350  0.09221778  0.09503267  1
  N  N38  1  0.88401640  0.20294603  0.88047769  1
  N  N39  1  0.80908792  0.07720935  0.62685642  1
  N  N40  1  0.58721623  0.19128255  0.37147053  1
  N  N41  1  0.45584718  0.06128095  0.07545692  1
  N  N42  1  0.22027945  0.20886044  0.82956405  1
  N  N43  1  0.08253198  0.10865544  0.60377935  1
  N  N44  1  0.87716393  0.19648182  0.31552672  1
  N  N45  1  0.76287351  0.09600749  0.14047343  1
  N  N46  1  0.55648541  0.20675643  0.87662270  1
  N  N47  1  0.43632228  0.10763972  0.58448169  1
  N  N48  1  0.22666193  0.54201638  0.37776359  1
  N  N49  1  0.10229514  0.43038204  0.07950827  1
  N  N50  1  0.88658155  0.54096961  0.82423966  1
  N  N51  1  0.79502397  0.38833535  0.58454666  1
  N  N52  1  0.55386567  0.53888939  0.38297149  1
  N  N53  1  0.44451450  0.42882975  0.12782026  1
  N  N54  1  0.22450432  0.54200265  0.87606481  1
  N  N55  1  0.10645167  0.42596728  0.57629615  1
  N  N56  1  0.88633176  0.54223581  0.33403044  1
  N  N57  1  0.77266481  0.43846111  0.07907628  1
  N  N58  1  0.53729419  0.56948068  0.87055881  1
  N  N59  1  0.44452534  0.42333699  0.62922213  1
  N  N60  1  0.22724089  0.86710773  0.38057341  1
  N  N61  1  0.11810963  0.76197051  0.12551725  1
  N  N62  1  0.89111185  0.87174677  0.88946168  1
  N  N63  1  0.80142016  0.78108252  0.59195385  1
  N  N64  1  0.55906000  0.86154993  0.39645492  1
  N  N65  1  0.45843015  0.77818838  0.13265831  1
  N  N66  1  0.25092625  0.85799674  0.87189547  1
  N  N67  1  0.08606690  0.77522041  0.62949565  1
  N  N68  1  0.87837486  0.89844331  0.33738170  1
  N  N69  1  0.74052546  0.77463007  0.08168209  1
  N  N70  1  0.54631266  0.86040515  0.81710253  1
  N  N71  1  0.43364154  0.75537408  0.64470961  1
