# generated using pymatgen
data_Al31B5N36
_symmetry_space_group_name_H-M   'P 1'
_cell_length_a   9.15104614
_cell_length_b   9.13930495
_cell_length_c   10.22022785
_cell_angle_alpha   89.54214237
_cell_angle_beta   89.54641251
_cell_angle_gamma   60.36490849
_symmetry_Int_Tables_number   1
_chemical_formula_structural   Al31B5N36
_chemical_formula_sum   'Al31 B5 N36'
_cell_volume   742.91982676
_cell_formula_units_Z   1
loop_
 _symmetry_equiv_pos_site_id
 _symmetry_equiv_pos_as_xyz
  1  'x, y, z'
loop_
 _atom_site_type_symbol
 _atom_site_label
 _atom_site_symmetry_multiplicity
 _atom_site_fract_x
 _atom_site_fract_y
 _atom_site_fract_z
 _atom_site_occupancy
  Al  Al0  1  0.09716117  0.10310386  0.39448213  1
  Al  Al1  1  0.22551600  0.19853731  0.13884056  1
  Al  Al2  1  0.77811702  0.08864133  0.84917619  1
  Al  Al3  1  0.44754951  0.09097133  0.38108385  1
  Al  Al4  1  0.55766890  0.20589858  0.06385266  1
  Al  Al5  1  0.10906405  0.09751053  0.87963524  1
  Al  Al6  1  0.21784870  0.20441588  0.63865006  1
  Al  Al7  1  0.88780053  0.20558141  0.13318111  1
  Al  Al8  1  0.43804132  0.07850106  0.89343617  1
  Al  Al9  1  0.57616472  0.19267338  0.57076656  1
  Al  Al10  1  0.11183446  0.43061253  0.38908787  1
  Al  Al11  1  0.22255586  0.53630343  0.14054152  1
  Al  Al12  1  0.78009892  0.42603627  0.87909370  1
  Al  Al13  1  0.88898936  0.53876107  0.63897439  1
  Al  Al14  1  0.46363099  0.42194342  0.31990416  1
  Al  Al15  1  0.54979751  0.55334583  0.06100905  1
  Al  Al16  1  0.11062414  0.42950521  0.88991305  1
  Al  Al17  1  0.21291385  0.53729486  0.63440530  1
  Al  Al18  1  0.78621653  0.41713841  0.39477484  1
  Al  Al19  1  0.88027591  0.54466060  0.14197881  1
  Al  Al20  1  0.44942188  0.42590014  0.81359670  1
  Al  Al21  1  0.55242594  0.53628288  0.57481308  1
  Al  Al22  1  0.10589240  0.78083738  0.31525625  1
  Al  Al23  1  0.23848418  0.86580942  0.05932137  1
  Al  Al24  1  0.76203498  0.75534913  0.89663371  1
  Al  Al25  1  0.44576551  0.76343109  0.31567931  1
  Al  Al26  1  0.10688151  0.76712028  0.82068963  1
  Al  Al27  1  0.21254063  0.87101190  0.57652213  1
  Al  Al28  1  0.77946823  0.77688353  0.38453150  1
  Al  Al29  1  0.88778968  0.87562675  0.07442345  1
  Al  Al30  1  0.55831230  0.87512954  0.64354922  1
  B  B31  1  0.89817522  0.20031385  0.64954097  1
  B  B32  1  0.78216763  0.09351090  0.34657365  1
  B  B33  1  0.88673758  0.88101858  0.60955196  1
  B  B34  1  0.56066796  0.87511625  0.14676075  1
  B  B35  1  0.43975952  0.75607307  0.80871728  1
  N  N36  1  0.21890893  0.20654093  0.32606470  1
  N  N37  1  0.10848636  0.09990884  0.06839107  1
  N  N38  1  0.89216740  0.20782444  0.80497381  1
  N  N39  1  0.79800209  0.06732760  0.63308618  1
  N  N40  1  0.59267222  0.19328020  0.37715360  1
  N  N41  1  0.45516225  0.06622385  0.08591468  1
  N  N42  1  0.22240575  0.20674817  0.82405904  1
  N  N43  1  0.08013297  0.11045681  0.58654352  1
  N  N44  1  0.87582608  0.19588786  0.32378933  1
  N  N45  1  0.78248445  0.10221937  0.06773467  1
  N  N46  1  0.54506233  0.20773077  0.87425979  1
  N  N47  1  0.43869906  0.08804505  0.56899857  1
  N  N48  1  0.22406743  0.54057654  0.33308130  1
  N  N49  1  0.11045289  0.42897765  0.07739958  1
  N  N50  1  0.88843745  0.54052947  0.82389223  1
  N  N51  1  0.79349099  0.39611119  0.58616636  1
  N  N52  1  0.55403403  0.54837552  0.38760651  1
  N  N53  1  0.45644554  0.42515583  0.13054384  1
  N  N54  1  0.21909144  0.53734492  0.82432747  1
  N  N55  1  0.10811432  0.42524573  0.57332277  1
  N  N56  1  0.88688595  0.54326419  0.33061204  1
  N  N57  1  0.78382448  0.42631185  0.06910611  1
  N  N58  1  0.53874604  0.56520168  0.86940642  1
  N  N59  1  0.44989197  0.41601023  0.62523024  1
  N  N60  1  0.23016406  0.87016122  0.38937532  1
  N  N61  1  0.11547917  0.76854787  0.12605735  1
  N  N62  1  0.89303574  0.85914893  0.88390754  1
  N  N63  1  0.78790306  0.77853190  0.57963373  1
  N  N64  1  0.56528357  0.87995360  0.30851402  1
  N  N65  1  0.45454409  0.77143301  0.13040924  1
  N  N66  1  0.24885964  0.85625712  0.86761222  1
  N  N67  1  0.07558192  0.77885323  0.62718468  1
  N  N68  1  0.87564396  0.91080483  0.34374337  1
  N  N69  1  0.74750493  0.77220446  0.08714255  1
  N  N70  1  0.54382576  0.85925535  0.82734684  1
  N  N71  1  0.43501424  0.75382578  0.64762109  1
