# generated using pymatgen
data_Al31B5N36
_symmetry_space_group_name_H-M   'P 1'
_cell_length_a   9.17105123
_cell_length_b   9.16745737
_cell_length_c   10.06469141
_cell_angle_alpha   89.43651110
_cell_angle_beta   89.29063579
_cell_angle_gamma   60.00009356
_symmetry_Int_Tables_number   1
_chemical_formula_structural   Al31B5N36
_chemical_formula_sum   'Al31 B5 N36'
_cell_volume   732.76107618
_cell_formula_units_Z   1
loop_
 _symmetry_equiv_pos_site_id
 _symmetry_equiv_pos_as_xyz
  1  'x, y, z'
loop_
 _atom_site_type_symbol
 _atom_site_label
 _atom_site_symmetry_multiplicity
 _atom_site_fract_x
 _atom_site_fract_y
 _atom_site_fract_z
 _atom_site_occupancy
  Al  Al0  1  0.10203192  0.09302776  0.39555046  1
  Al  Al1  1  0.22582993  0.19942611  0.14053601  1
  Al  Al2  1  0.78094167  0.09073342  0.85059260  1
  Al  Al3  1  0.44863706  0.09048699  0.38459733  1
  Al  Al4  1  0.55789358  0.20476680  0.06219922  1
  Al  Al5  1  0.11420267  0.09083251  0.88571681  1
  Al  Al6  1  0.21889661  0.20610178  0.63874390  1
  Al  Al7  1  0.88425597  0.20478903  0.13050788  1
  Al  Al8  1  0.43876200  0.07918162  0.89179021  1
  Al  Al9  1  0.57999524  0.19619390  0.57348307  1
  Al  Al10  1  0.11071300  0.42870610  0.39005191  1
  Al  Al11  1  0.21514311  0.54280885  0.14038592  1
  Al  Al12  1  0.78027372  0.42742553  0.87827912  1
  Al  Al13  1  0.88660285  0.53923464  0.63812308  1
  Al  Al14  1  0.46067821  0.41996990  0.31683251  1
  Al  Al15  1  0.54481931  0.55802214  0.06545982  1
  Al  Al16  1  0.11068517  0.42690042  0.89009797  1
  Al  Al17  1  0.20830484  0.54617367  0.63745486  1
  Al  Al18  1  0.78888398  0.41156619  0.39249514  1
  Al  Al19  1  0.87845602  0.54435016  0.13963822  1
  Al  Al20  1  0.44706847  0.42884911  0.81278415  1
  Al  Al21  1  0.55221247  0.53843490  0.56683943  1
  Al  Al22  1  0.10138201  0.77216596  0.39528098  1
  Al  Al23  1  0.22024237  0.87734658  0.13981713  1
  Al  Al24  1  0.76911403  0.76083155  0.88840608  1
  Al  Al25  1  0.45185789  0.76048323  0.33146072  1
  Al  Al26  1  0.11464200  0.75809825  0.88678170  1
  Al  Al27  1  0.21658826  0.87519943  0.63724108  1
  Al  Al28  1  0.77715998  0.77343707  0.39113679  1
  Al  Al29  1  0.87950188  0.88017931  0.13338281  1
  Al  Al30  1  0.55729654  0.87302740  0.63668980  1
  B  B31  1  0.89628907  0.19485862  0.64781183  1
  B  B32  1  0.78072296  0.09385577  0.34885038  1
  B  B33  1  0.89496240  0.87852932  0.64910001  1
  B  B34  1  0.55794250  0.87548680  0.14635307  1
  B  B35  1  0.44234556  0.75992158  0.83582477  1
  N  N36  1  0.21988689  0.20432110  0.32995246  1
  N  N37  1  0.10961909  0.09643661  0.07414476  1
  N  N38  1  0.89614255  0.20723508  0.80905453  1
  N  N39  1  0.80452361  0.08020361  0.62570428  1
  N  N40  1  0.59231930  0.19051837  0.37287008  1
  N  N41  1  0.45596993  0.06683822  0.08598968  1
  N  N42  1  0.22235991  0.20477303  0.82739136  1
  N  N43  1  0.08690568  0.10550893  0.58662330  1
  N  N44  1  0.87600450  0.18986794  0.32426500  1
  N  N45  1  0.78902005  0.08965383  0.05804954  1
  N  N46  1  0.54563554  0.20837363  0.87138573  1
  N  N47  1  0.44324843  0.09426696  0.57452253  1
  N  N48  1  0.21797291  0.54524480  0.33249864  1
  N  N49  1  0.10948565  0.42736332  0.07976352  1
  N  N50  1  0.88867888  0.54065021  0.82607780  1
  N  N51  1  0.79393073  0.39602506  0.58582382  1
  N  N52  1  0.55940893  0.53601330  0.37658441  1
  N  N53  1  0.45153133  0.42589353  0.12636765  1
  N  N54  1  0.21578896  0.54073391  0.82726728  1
  N  N55  1  0.10871868  0.42765487  0.57641102  1
  N  N56  1  0.88579228  0.54170955  0.33054024  1
  N  N57  1  0.77955204  0.42618764  0.07009356  1
  N  N58  1  0.53450296  0.57150854  0.86878740  1
  N  N59  1  0.44723695  0.42300512  0.62381799  1
  N  N60  1  0.21611181  0.87612296  0.33105281  1
  N  N61  1  0.10981926  0.76290740  0.07602115  1
  N  N62  1  0.89332266  0.85997189  0.81223358  1
  N  N63  1  0.78729970  0.77696634  0.58296621  1
  N  N64  1  0.56667124  0.87954645  0.30984412  1
  N  N65  1  0.45757711  0.77350971  0.13045761  1
  N  N66  1  0.24751568  0.85851704  0.83026069  1
  N  N67  1  0.08442910  0.77702741  0.58672497  1
  N  N68  1  0.87558848  0.90362742  0.32650957  1
  N  N69  1  0.75309257  0.77501033  0.08245154  1
  N  N70  1  0.54082658  0.85540710  0.82793717  1
  N  N71  1  0.44175407  0.76631352  0.58863417  1
