# generated using pymatgen
data_Al31B5N36
_symmetry_space_group_name_H-M   'P 1'
_cell_length_a   9.20422960
_cell_length_b   9.17752888
_cell_length_c   10.05262543
_cell_angle_alpha   89.93654058
_cell_angle_beta   89.90204116
_cell_angle_gamma   60.12601143
_symmetry_Int_Tables_number   1
_chemical_formula_structural   Al31B5N36
_chemical_formula_sum   'Al31 B5 N36'
_cell_volume   736.33041351
_cell_formula_units_Z   1
loop_
 _symmetry_equiv_pos_site_id
 _symmetry_equiv_pos_as_xyz
  1  'x, y, z'
loop_
 _atom_site_type_symbol
 _atom_site_label
 _atom_site_symmetry_multiplicity
 _atom_site_fract_x
 _atom_site_fract_y
 _atom_site_fract_z
 _atom_site_occupancy
  Al  Al0  1  0.10513583  0.08624940  0.32358155  1
  Al  Al1  1  0.23129683  0.20240614  0.14168788  1
  Al  Al2  1  0.78259958  0.08919946  0.81860716  1
  Al  Al3  1  0.44945730  0.08786520  0.39423383  1
  Al  Al4  1  0.56152838  0.20070609  0.07078332  1
  Al  Al5  1  0.10328960  0.09038558  0.81078797  1
  Al  Al6  1  0.21532084  0.21382251  0.63154443  1
  Al  Al7  1  0.88880981  0.20415761  0.07227577  1
  Al  Al8  1  0.44378912  0.08588878  0.85510282  1
  Al  Al9  1  0.57767119  0.20015030  0.56671388  1
  Al  Al10  1  0.10940100  0.42537612  0.38629235  1
  Al  Al11  1  0.22513075  0.54350597  0.06724729  1
  Al  Al12  1  0.77243721  0.43654163  0.88087348  1
  Al  Al13  1  0.89100846  0.53865113  0.64161086  1
  Al  Al14  1  0.45385272  0.41930289  0.31617032  1
  Al  Al15  1  0.54443030  0.55798707  0.06636905  1
  Al  Al16  1  0.10537257  0.42443421  0.89009669  1
  Al  Al17  1  0.22103777  0.54577241  0.56903746  1
  Al  Al18  1  0.78488476  0.41730642  0.39234969  1
  Al  Al19  1  0.87701478  0.54666996  0.14375723  1
  Al  Al20  1  0.44325098  0.43329553  0.81665859  1
  Al  Al21  1  0.55263788  0.53745469  0.57280212  1
  Al  Al22  1  0.11182779  0.76402189  0.31277127  1
  Al  Al23  1  0.23173406  0.87925455  0.06059182  1
  Al  Al24  1  0.76287145  0.76579523  0.89078270  1
  Al  Al25  1  0.45095496  0.76080756  0.32388066  1
  Al  Al26  1  0.10847905  0.76333864  0.82584163  1
  Al  Al27  1  0.21247597  0.87530372  0.56877031  1
  Al  Al28  1  0.78535644  0.76973127  0.39515842  1
  Al  Al29  1  0.88147683  0.88138722  0.10370407  1
  Al  Al30  1  0.55830705  0.86999964  0.61130199  1
  B  B31  1  0.90013077  0.18115923  0.55791907  1
  B  B32  1  0.77747774  0.08941676  0.31379592  1
  B  B33  1  0.89673104  0.87228933  0.60836166  1
  B  B34  1  0.55196340  0.87653555  0.10405668  1
  B  B35  1  0.44084215  0.76101342  0.80459712  1
  N  N36  1  0.22911085  0.20292596  0.33257059  1
  N  N37  1  0.10671727  0.09339179  0.13225264  1
  N  N38  1  0.88946552  0.20051748  0.88125434  1
  N  N39  1  0.80770203  0.07009654  0.62330558  1
  N  N40  1  0.58677742  0.18922515  0.37389571  1
  N  N41  1  0.45817517  0.06386194  0.08703960  1
  N  N42  1  0.21762089  0.20911568  0.82274375  1
  N  N43  1  0.08276056  0.10406496  0.61596568  1
  N  N44  1  0.88463696  0.17905050  0.39248038  1
  N  N45  1  0.77116251  0.11117066  0.15164744  1
  N  N46  1  0.55921386  0.20660908  0.87725200  1
  N  N47  1  0.44134728  0.10440760  0.59207179  1
  N  N48  1  0.22778771  0.54143953  0.37683570  1
  N  N49  1  0.10513510  0.42749957  0.08200592  1
  N  N50  1  0.88668887  0.54442001  0.82799009  1
  N  N51  1  0.79158206  0.40188296  0.58663510  1
  N  N52  1  0.55361136  0.53832969  0.37976350  1
  N  N53  1  0.44552666  0.42857412  0.12680055  1
  N  N54  1  0.22364828  0.54006256  0.87605594  1
  N  N55  1  0.10449225  0.43023195  0.57533519  1
  N  N56  1  0.88640225  0.54151615  0.33165556  1
  N  N57  1  0.77347915  0.43590825  0.07797395  1
  N  N58  1  0.53459983  0.57216403  0.87049609  1
  N  N59  1  0.44555461  0.42314436  0.62926973  1
  N  N60  1  0.22736622  0.86631842  0.38237768  1
  N  N61  1  0.12180926  0.76333378  0.12360623  1
  N  N62  1  0.88871906  0.87641404  0.89464509  1
  N  N63  1  0.80254413  0.77741630  0.59131772  1
  N  N64  1  0.55843509  0.85945972  0.40085044  1
  N  N65  1  0.45583688  0.78235148  0.13114633  1
  N  N66  1  0.24522364  0.86453309  0.86783572  1
  N  N67  1  0.08477501  0.77443636  0.63023768  1
  N  N68  1  0.87779518  0.89212641  0.32786515  1
  N  N69  1  0.74029684  0.77719516  0.08645006  1
  N  N70  1  0.54738918  0.85868125  0.81735080  1
  N  N71  1  0.43174977  0.75556713  0.64423551  1
