# generated using pymatgen
data_Al31B5N36
_symmetry_space_group_name_H-M   'P 1'
_cell_length_a   9.16884859
_cell_length_b   9.13923284
_cell_length_c   10.17412428
_cell_angle_alpha   89.51772891
_cell_angle_beta   89.35674542
_cell_angle_gamma   60.24697770
_symmetry_Int_Tables_number   1
_chemical_formula_structural   Al31B5N36
_chemical_formula_sum   'Al31 B5 N36'
_cell_volume   740.11289641
_cell_formula_units_Z   1
loop_
 _symmetry_equiv_pos_site_id
 _symmetry_equiv_pos_as_xyz
  1  'x, y, z'
loop_
 _atom_site_type_symbol
 _atom_site_label
 _atom_site_symmetry_multiplicity
 _atom_site_fract_x
 _atom_site_fract_y
 _atom_site_fract_z
 _atom_site_occupancy
  Al  Al0  1  0.09768906  0.09889846  0.38916472  1
  Al  Al1  1  0.22400918  0.19782106  0.13821768  1
  Al  Al2  1  0.77901880  0.08785471  0.81668446  1
  Al  Al3  1  0.44690299  0.08992020  0.39274272  1
  Al  Al4  1  0.55765323  0.20339103  0.06763523  1
  Al  Al5  1  0.10976068  0.09674273  0.88111109  1
  Al  Al6  1  0.21630647  0.20951801  0.63996201  1
  Al  Al7  1  0.88692116  0.20852164  0.13765805  1
  Al  Al8  1  0.44256396  0.08175300  0.87814889  1
  Al  Al9  1  0.57902817  0.19948635  0.56267730  1
  Al  Al10  1  0.10909586  0.42429836  0.38577633  1
  Al  Al11  1  0.22508833  0.54228570  0.06747055  1
  Al  Al12  1  0.77743002  0.42928868  0.88023116  1
  Al  Al13  1  0.89143973  0.53949221  0.64010567  1
  Al  Al14  1  0.45272067  0.42193049  0.31648674  1
  Al  Al15  1  0.54742524  0.55368794  0.06294865  1
  Al  Al16  1  0.10558693  0.42697555  0.88959206  1
  Al  Al17  1  0.22091025  0.54437866  0.56731298  1
  Al  Al18  1  0.78526849  0.41301559  0.39148478  1
  Al  Al19  1  0.87673429  0.54504486  0.14327452  1
  Al  Al20  1  0.44415685  0.43213461  0.81500403  1
  Al  Al21  1  0.55306924  0.53715176  0.57274838  1
  Al  Al22  1  0.10801097  0.76919961  0.31384449  1
  Al  Al23  1  0.23679712  0.86670820  0.06181662  1
  Al  Al24  1  0.76383011  0.76296021  0.88589540  1
  Al  Al25  1  0.45050126  0.76212606  0.32472389  1
  Al  Al26  1  0.11215650  0.76365556  0.82236843  1
  Al  Al27  1  0.21589314  0.87179113  0.57400423  1
  Al  Al28  1  0.78499623  0.77227650  0.39548487  1
  Al  Al29  1  0.88364360  0.87682450  0.08684204  1
  Al  Al30  1  0.55722181  0.87541309  0.61534651  1
  B  B31  1  0.90095838  0.20054013  0.64155179  1
  B  B32  1  0.77479114  0.08816089  0.30242076  1
  B  B33  1  0.89611415  0.87581138  0.60697202  1
  B  B34  1  0.55259975  0.87218535  0.10097678  1
  B  B35  1  0.44244183  0.75956047  0.80536340  1
  N  N36  1  0.22464562  0.20035418  0.32467155  1
  N  N37  1  0.10467890  0.09875076  0.07023490  1
  N  N38  1  0.89246353  0.20937684  0.81053993  1
  N  N39  1  0.80530400  0.06990312  0.62670510  1
  N  N40  1  0.58703952  0.19159283  0.37039213  1
  N  N41  1  0.45366933  0.06148730  0.07700933  1
  N  N42  1  0.22109225  0.20862249  0.82551876  1
  N  N43  1  0.08360165  0.11052583  0.58411928  1
  N  N44  1  0.88134979  0.19613848  0.32222531  1
  N  N45  1  0.76475425  0.09759240  0.14087604  1
  N  N46  1  0.55830340  0.20735584  0.87915703  1
  N  N47  1  0.43696605  0.10695915  0.58250405  1
  N  N48  1  0.22607299  0.54304501  0.37721801  1
  N  N49  1  0.10418104  0.42692137  0.08027593  1
  N  N50  1  0.88801221  0.54284567  0.82495800  1
  N  N51  1  0.79370541  0.39542498  0.58499989  1
  N  N52  1  0.55311229  0.53974406  0.38295869  1
  N  N53  1  0.44527316  0.42902105  0.12831805  1
  N  N54  1  0.22496709  0.54147977  0.87782215  1
  N  N55  1  0.10585186  0.42614930  0.57464230  1
  N  N56  1  0.88538417  0.54239027  0.33063150  1
  N  N57  1  0.77901239  0.42614344  0.07075105  1
  N  N58  1  0.53855220  0.56895053  0.87039371  1
  N  N59  1  0.44514064  0.42255763  0.62949460  1
  N  N60  1  0.22753286  0.86609886  0.38494191  1
  N  N61  1  0.11865794  0.76214171  0.12605913  1
  N  N62  1  0.89171762  0.87497212  0.89211421  1
  N  N63  1  0.80138352  0.77845799  0.59047461  1
  N  N64  1  0.55887546  0.86171903  0.39444888  1
  N  N65  1  0.45758777  0.77744834  0.13192596  1
  N  N66  1  0.25165669  0.85762719  0.86903922  1
  N  N67  1  0.08525771  0.77402900  0.63173015  1
  N  N68  1  0.87761913  0.89855145  0.33674807  1
  N  N69  1  0.74041457  0.77342466  0.08122125  1
  N  N70  1  0.54702461  0.86149877  0.81725768  1
  N  N71  1  0.43565671  0.75439591  0.64605296  1
