# generated using pymatgen
data_Al31B5N36
_symmetry_space_group_name_H-M   'P 1'
_cell_length_a   9.16620239
_cell_length_b   9.16120615
_cell_length_c   9.82150657
_cell_angle_alpha   89.91372015
_cell_angle_beta   90.07430933
_cell_angle_gamma   60.04657202
_symmetry_Int_Tables_number   1
_chemical_formula_structural   Al31B5N36
_chemical_formula_sum   'Al31 B5 N36'
_cell_volume   714.58312072
_cell_formula_units_Z   1
loop_
 _symmetry_equiv_pos_site_id
 _symmetry_equiv_pos_as_xyz
  1  'x, y, z'
loop_
 _atom_site_type_symbol
 _atom_site_label
 _atom_site_symmetry_multiplicity
 _atom_site_fract_x
 _atom_site_fract_y
 _atom_site_fract_z
 _atom_site_occupancy
  Al  Al0  1  0.10649776  0.09238670  0.32111504  1
  Al  Al1  1  0.22559447  0.19938600  0.06566424  1
  Al  Al2  1  0.78226971  0.09143386  0.80903622  1
  Al  Al3  1  0.45226526  0.08773336  0.31423905  1
  Al  Al4  1  0.56406825  0.19709999  0.07221780  1
  Al  Al5  1  0.10855369  0.09401860  0.81056439  1
  Al  Al6  1  0.21700518  0.20743376  0.56420371  1
  Al  Al7  1  0.88783733  0.20281391  0.07296186  1
  Al  Al8  1  0.44491214  0.08785030  0.82043271  1
  Al  Al9  1  0.56657077  0.19937354  0.56202973  1
  Al  Al10  1  0.11061788  0.42874044  0.31318330  1
  Al  Al11  1  0.22208609  0.54112936  0.06424869  1
  Al  Al12  1  0.77635903  0.42574533  0.81066843  1
  Al  Al13  1  0.88851785  0.54047164  0.56565230  1
  Al  Al14  1  0.45003500  0.42509447  0.31496352  1
  Al  Al15  1  0.55689068  0.54783909  0.06055601  1
  Al  Al16  1  0.10974319  0.42792233  0.81565322  1
  Al  Al17  1  0.21602773  0.54304884  0.56442408  1
  Al  Al18  1  0.77689054  0.42195003  0.32287330  1
  Al  Al19  1  0.88107965  0.54415881  0.06550755  1
  Al  Al20  1  0.44405737  0.43084961  0.81572063  1
  Al  Al21  1  0.55687537  0.53690978  0.57035646  1
  Al  Al22  1  0.10670533  0.76814622  0.32082468  1
  Al  Al23  1  0.23083875  0.87220780  0.06011673  1
  Al  Al24  1  0.77307757  0.76554502  0.81608258  1
  Al  Al25  1  0.44745955  0.76356953  0.31482272  1
  Al  Al26  1  0.10801841  0.76430953  0.81109779  1
  Al  Al27  1  0.21622267  0.87542680  0.57028948  1
  Al  Al28  1  0.77251646  0.77068112  0.32157557  1
  Al  Al29  1  0.88296546  0.87694335  0.07326513  1
  Al  Al30  1  0.55766739  0.87420989  0.57419201  1
  B  B31  1  0.89003092  0.19183109  0.55744464  1
  B  B32  1  0.77908236  0.09354214  0.32523673  1
  B  B33  1  0.88968189  0.88378801  0.55887939  1
  B  B34  1  0.55417230  0.86938045  0.07181496  1
  B  B35  1  0.44656878  0.76134876  0.81455406  1
  N  N36  1  0.22451385  0.20485099  0.37162051  1
  N  N37  1  0.11154924  0.09206906  0.12820502  1
  N  N38  1  0.88715161  0.20365639  0.88058300  1
  N  N39  1  0.80154603  0.08230220  0.61433267  1
  N  N40  1  0.57984087  0.19269397  0.36807577  1
  N  N41  1  0.45896990  0.06667396  0.11751155  1
  N  N42  1  0.22010605  0.20435823  0.87389442  1
  N  N43  1  0.08380200  0.10739766  0.61473303  1
  N  N44  1  0.87789217  0.19183829  0.38930510  1
  N  N45  1  0.78213465  0.09220238  0.15645596  1
  N  N46  1  0.56066722  0.20252950  0.87704137  1
  N  N47  1  0.44234845  0.09850464  0.62685911  1
  N  N48  1  0.22314074  0.53893739  0.37296488  1
  N  N49  1  0.11026020  0.42821783  0.12150869  1
  N  N50  1  0.88538856  0.54007805  0.87182499  1
  N  N51  1  0.78920349  0.40000500  0.61581620  1
  N  N52  1  0.55334859  0.54262446  0.37807447  1
  N  N53  1  0.44744294  0.42845762  0.12164064  1
  N  N54  1  0.22039119  0.54153327  0.87221902  1
  N  N55  1  0.10942930  0.42834929  0.62480162  1
  N  N56  1  0.88778976  0.54124269  0.37357328  1
  N  N57  1  0.77690797  0.42656855  0.12893300  1
  N  N58  1  0.54483815  0.56255841  0.86591489  1
  N  N59  1  0.44294540  0.42579664  0.62331149  1
  N  N60  1  0.22751865  0.86974630  0.37898249  1
  N  N61  1  0.11189775  0.76395237  0.12677369  1
  N  N62  1  0.88734979  0.87501513  0.88183254  1
  N  N63  1  0.78968461  0.77828967  0.61934343  1
  N  N64  1  0.55417281  0.87212767  0.38472617  1
  N  N65  1  0.45815919  0.77473732  0.12151364  1
  N  N66  1  0.24462340  0.86085436  0.86364175  1
  N  N67  1  0.08370535  0.77582807  0.61525655  1
  N  N68  1  0.87753189  0.89656369  0.38814425  1
  N  N69  1  0.75088071  0.77554362  0.12231362  1
  N  N70  1  0.54445594  0.85840795  0.87744251  1
  N  N71  1  0.44538497  0.76173500  0.64690340  1
