# generated using pymatgen
data_Al31B5N36
_symmetry_space_group_name_H-M   'P 1'
_cell_length_a   9.18538941
_cell_length_b   9.18177033
_cell_length_c   9.85528271
_cell_angle_alpha   89.82627990
_cell_angle_beta   89.84299369
_cell_angle_gamma   59.94258734
_symmetry_Int_Tables_number   1
_chemical_formula_structural   Al31B5N36
_chemical_formula_sum   'Al31 B5 N36'
_cell_volume   719.39886064
_cell_formula_units_Z   1
loop_
 _symmetry_equiv_pos_site_id
 _symmetry_equiv_pos_as_xyz
  1  'x, y, z'
loop_
 _atom_site_type_symbol
 _atom_site_label
 _atom_site_symmetry_multiplicity
 _atom_site_fract_x
 _atom_site_fract_y
 _atom_site_fract_z
 _atom_site_occupancy
  Al  Al0  1  0.10626158  0.09340883  0.31945853  1
  Al  Al1  1  0.22670516  0.19847642  0.06671081  1
  Al  Al2  1  0.78214529  0.09102907  0.80895674  1
  Al  Al3  1  0.45315235  0.08796688  0.32113828  1
  Al  Al4  1  0.56517354  0.19639128  0.07264874  1
  Al  Al5  1  0.10921055  0.09351474  0.80977081  1
  Al  Al6  1  0.21655253  0.20822884  0.56178622  1
  Al  Al7  1  0.88836431  0.20264009  0.07183058  1
  Al  Al8  1  0.44289859  0.09036583  0.81464722  1
  Al  Al9  1  0.56716473  0.19951002  0.56064072  1
  Al  Al10  1  0.11024939  0.42998728  0.31236312  1
  Al  Al11  1  0.22237306  0.54119931  0.06274755  1
  Al  Al12  1  0.77514850  0.42520847  0.81082679  1
  Al  Al13  1  0.89192192  0.53297742  0.56937713  1
  Al  Al14  1  0.45007469  0.42514697  0.31329314  1
  Al  Al15  1  0.55759766  0.54936368  0.05932263  1
  Al  Al16  1  0.11091743  0.42672422  0.81636788  1
  Al  Al17  1  0.21638590  0.54290384  0.56432346  1
  Al  Al18  1  0.77704137  0.42264925  0.32154354  1
  Al  Al19  1  0.87996631  0.54491161  0.06634215  1
  Al  Al20  1  0.44443736  0.43022855  0.81492428  1
  Al  Al21  1  0.55586280  0.53393670  0.56714194  1
  Al  Al22  1  0.10807960  0.76808060  0.31737394  1
  Al  Al23  1  0.23247162  0.87302080  0.05863078  1
  Al  Al24  1  0.77210082  0.76394761  0.81924921  1
  Al  Al25  1  0.44848250  0.76381905  0.31904232  1
  Al  Al26  1  0.10823310  0.76444169  0.81048243  1
  Al  Al27  1  0.21301344  0.87581928  0.56579751  1
  Al  Al28  1  0.77582872  0.77226939  0.37015581  1
  Al  Al29  1  0.88150071  0.87682139  0.07403006  1
  Al  Al30  1  0.55146096  0.87393525  0.59441552  1
  B  B31  1  0.89006363  0.19277161  0.55732770  1
  B  B32  1  0.78026731  0.09551091  0.32443603  1
  B  B33  1  0.89399264  0.88590941  0.55934975  1
  B  B34  1  0.56060509  0.87049942  0.10685446  1
  B  B35  1  0.44360112  0.76082471  0.80240033  1
  N  N36  1  0.22298973  0.20637009  0.37006947  1
  N  N37  1  0.11166804  0.09234113  0.12720485  1
  N  N38  1  0.88711220  0.20289095  0.88001708  1
  N  N39  1  0.80205692  0.08274671  0.61443439  1
  N  N40  1  0.58141563  0.19320926  0.36749587  1
  N  N41  1  0.46096236  0.06513704  0.12356090  1
  N  N42  1  0.22096218  0.20324530  0.87540556  1
  N  N43  1  0.08398956  0.10772605  0.61361233  1
  N  N44  1  0.87797572  0.19367782  0.38863228  1
  N  N45  1  0.78293584  0.09256893  0.15600355  1
  N  N46  1  0.55997426  0.20105812  0.87749160  1
  N  N47  1  0.43872620  0.10573798  0.62222725  1
  N  N48  1  0.22270866  0.53970650  0.37256968  1
  N  N49  1  0.11023370  0.42881383  0.12118922  1
  N  N50  1  0.88592832  0.53791888  0.87155005  1
  N  N51  1  0.78808633  0.39900273  0.61632311  1
  N  N52  1  0.55379504  0.54126382  0.37599068  1
  N  N53  1  0.44764847  0.42896994  0.12042392  1
  N  N54  1  0.22037216  0.54130824  0.87136772  1
  N  N55  1  0.11121756  0.42710275  0.62615170  1
  N  N56  1  0.88936043  0.53774504  0.37682802  1
  N  N57  1  0.77707649  0.42637739  0.12841177  1
  N  N58  1  0.54405815  0.56255784  0.86475544  1
  N  N59  1  0.44328936  0.42394787  0.62293302  1
  N  N60  1  0.22602587  0.87088527  0.37564022  1
  N  N61  1  0.11242157  0.76422972  0.12446325  1
  N  N62  1  0.88671502  0.87419811  0.88068595  1
  N  N63  1  0.79382419  0.77550744  0.60632616  1
  N  N64  1  0.54919238  0.87449164  0.39435396  1
  N  N65  1  0.46073012  0.77722358  0.12374318  1
  N  N66  1  0.24412515  0.86095549  0.86250564  1
  N  N67  1  0.08339198  0.77650283  0.61509600  1
  N  N68  1  0.88207459  0.90123591  0.38885813  1
  N  N69  1  0.74768524  0.77733375  0.11439460  1
  N  N70  1  0.54155831  0.85747076  0.82790488  1
  N  N71  1  0.43514218  0.75466794  0.63821315  1
