# generated using pymatgen
data_Al31B5N36
_symmetry_space_group_name_H-M   'P 1'
_cell_length_a   9.19472165
_cell_length_b   9.21003285
_cell_length_c   9.96546198
_cell_angle_alpha   89.96130292
_cell_angle_beta   89.83510018
_cell_angle_gamma   59.95496809
_symmetry_Int_Tables_number   1
_chemical_formula_structural   Al31B5N36
_chemical_formula_sum   'Al31 B5 N36'
_cell_volume   730.51412211
_cell_formula_units_Z   1
loop_
 _symmetry_equiv_pos_site_id
 _symmetry_equiv_pos_as_xyz
  1  'x, y, z'
loop_
 _atom_site_type_symbol
 _atom_site_label
 _atom_site_symmetry_multiplicity
 _atom_site_fract_x
 _atom_site_fract_y
 _atom_site_fract_z
 _atom_site_occupancy
  Al  Al0  1  0.10708066  0.08958776  0.32617403  1
  Al  Al1  1  0.22789662  0.19408231  0.07890493  1
  Al  Al2  1  0.78149923  0.08948185  0.82466399  1
  Al  Al3  1  0.45573591  0.08326853  0.33014595  1
  Al  Al4  1  0.56115192  0.20024366  0.07691748  1
  Al  Al5  1  0.10759746  0.09411260  0.81770958  1
  Al  Al6  1  0.21888499  0.19924069  0.57012697  1
  Al  Al7  1  0.88674625  0.20944764  0.07681133  1
  Al  Al8  1  0.44026356  0.09369139  0.81986229  1
  Al  Al9  1  0.57046389  0.19577501  0.56674249  1
  Al  Al10  1  0.10724611  0.43172102  0.38844708  1
  Al  Al11  1  0.22760069  0.54311869  0.07255056  1
  Al  Al12  1  0.76956148  0.42693320  0.81679325  1
  Al  Al13  1  0.89424429  0.54523559  0.64282387  1
  Al  Al14  1  0.45134484  0.42340876  0.32092409  1
  Al  Al15  1  0.55989969  0.54896509  0.06987044  1
  Al  Al16  1  0.10148252  0.43116974  0.89209420  1
  Al  Al17  1  0.22360925  0.54357603  0.57651263  1
  Al  Al18  1  0.77761466  0.41699614  0.33877080  1
  Al  Al19  1  0.88225750  0.54976982  0.15163026  1
  Al  Al20  1  0.44498739  0.43047241  0.82226897  1
  Al  Al21  1  0.55801137  0.53489066  0.57548898  1
  Al  Al22  1  0.10987463  0.76667183  0.31851064  1
  Al  Al23  1  0.23410667  0.87382317  0.06562546  1
  Al  Al24  1  0.75820406  0.76607835  0.89612105  1
  Al  Al25  1  0.44977886  0.76218270  0.33094078  1
  Al  Al26  1  0.10780496  0.76420504  0.83014240  1
  Al  Al27  1  0.21281173  0.87298361  0.57495595  1
  Al  Al28  1  0.78249892  0.77494320  0.40149217  1
  Al  Al29  1  0.88297841  0.88144597  0.10399276  1
  Al  Al30  1  0.55464487  0.87259434  0.60977313  1
  B  B31  1  0.89884472  0.17787771  0.56188052  1
  B  B32  1  0.77655164  0.08997520  0.31669024  1
  B  B33  1  0.89573033  0.87471371  0.61134681  1
  B  B34  1  0.55500061  0.87194040  0.11475075  1
  B  B35  1  0.44151758  0.76282986  0.81092159  1
  N  N36  1  0.22571866  0.19890646  0.37587814  1
  N  N37  1  0.10949437  0.09182078  0.13565984  1
  N  N38  1  0.88518224  0.20736550  0.88650462  1
  N  N39  1  0.80630362  0.07166096  0.62569423  1
  N  N40  1  0.58214421  0.19048513  0.37417911  1
  N  N41  1  0.46208034  0.06360589  0.13262948  1
  N  N42  1  0.22144934  0.19888755  0.88395363  1
  N  N43  1  0.08391211  0.10333361  0.62289151  1
  N  N44  1  0.88251345  0.18705059  0.39964336  1
  N  N45  1  0.77374012  0.10892991  0.15423651  1
  N  N46  1  0.55684979  0.20273008  0.88470419  1
  N  N47  1  0.43915592  0.10554783  0.63027964  1
  N  N48  1  0.22698504  0.54429754  0.38179946  1
  N  N49  1  0.10537958  0.43197256  0.09148062  1
  N  N50  1  0.88382559  0.54630504  0.83407350  1
  N  N51  1  0.78607443  0.40735881  0.62352677  1
  N  N52  1  0.55372031  0.53976041  0.38650545  1
  N  N53  1  0.44856181  0.42889544  0.13017826  1
  N  N54  1  0.22397159  0.54078316  0.87915874  1
  N  N55  1  0.10937977  0.42810276  0.58605440  1
  N  N56  1  0.88446284  0.55043029  0.34274690  1
  N  N57  1  0.77485289  0.42613113  0.14158652  1
  N  N58  1  0.54264844  0.56501786  0.87637280  1
  N  N59  1  0.44940424  0.42044234  0.63231429  1
  N  N60  1  0.22524367  0.86864431  0.38651807  1
  N  N61  1  0.12157727  0.76281110  0.12838203  1
  N  N62  1  0.88706103  0.87618501  0.89907247  1
  N  N63  1  0.79980598  0.78209990  0.59689358  1
  N  N64  1  0.55203345  0.87111766  0.40502517  1
  N  N65  1  0.45960019  0.77805919  0.13511583  1
  N  N66  1  0.24423624  0.86298068  0.87189290  1
  N  N67  1  0.08393768  0.77444702  0.63410549  1
  N  N68  1  0.87598898  0.89645253  0.33577203  1
  N  N69  1  0.74161355  0.77641948  0.09314522  1
  N  N70  1  0.54173466  0.85955259  0.83062784  1
  N  N71  1  0.43342590  0.75494914  0.64829672  1
