# generated using pymatgen
data_Al31B5N36
_symmetry_space_group_name_H-M   'P 1'
_cell_length_a   9.17136813
_cell_length_b   9.16733427
_cell_length_c   10.11992687
_cell_angle_alpha   89.52692644
_cell_angle_beta   89.16080476
_cell_angle_gamma   60.14056420
_symmetry_Int_Tables_number   1
_chemical_formula_structural   Al31B5N36
_chemical_formula_sum   'Al31 B5 N36'
_cell_volume   737.82224881
_cell_formula_units_Z   1
loop_
 _symmetry_equiv_pos_site_id
 _symmetry_equiv_pos_as_xyz
  1  'x, y, z'
loop_
 _atom_site_type_symbol
 _atom_site_label
 _atom_site_symmetry_multiplicity
 _atom_site_fract_x
 _atom_site_fract_y
 _atom_site_fract_z
 _atom_site_occupancy
  Al  Al0  1  0.09839948  0.10186929  0.39607473  1
  Al  Al1  1  0.22505626  0.19954636  0.13993731  1
  Al  Al2  1  0.78004648  0.09281267  0.86179234  1
  Al  Al3  1  0.44806626  0.08955184  0.38215689  1
  Al  Al4  1  0.55629365  0.20549651  0.06561202  1
  Al  Al5  1  0.11021313  0.09798131  0.87762961  1
  Al  Al6  1  0.21940889  0.20741875  0.63828774  1
  Al  Al7  1  0.88685621  0.20373051  0.13111218  1
  Al  Al8  1  0.43981533  0.07810245  0.89263261  1
  Al  Al9  1  0.58081839  0.19173383  0.57226443  1
  Al  Al10  1  0.10942954  0.43056646  0.38916958  1
  Al  Al11  1  0.21663807  0.54408675  0.14100372  1
  Al  Al12  1  0.77949977  0.42837121  0.87733619  1
  Al  Al13  1  0.88571455  0.53811098  0.63736415  1
  Al  Al14  1  0.45979439  0.42432254  0.32154875  1
  Al  Al15  1  0.54864290  0.55241644  0.06108760  1
  Al  Al16  1  0.11139064  0.42747514  0.89026068  1
  Al  Al17  1  0.20774063  0.54535355  0.63831885  1
  Al  Al18  1  0.78500052  0.41599822  0.39456652  1
  Al  Al19  1  0.88059133  0.54324773  0.13829135  1
  Al  Al20  1  0.44865483  0.42657884  0.81277446  1
  Al  Al21  1  0.55273385  0.53627113  0.57644296  1
  Al  Al22  1  0.09729125  0.77263775  0.39601813  1
  Al  Al23  1  0.23973168  0.86923546  0.06154420  1
  Al  Al24  1  0.76830171  0.76193776  0.88781909  1
  Al  Al25  1  0.44446486  0.76305779  0.31589760  1
  Al  Al26  1  0.11228816  0.75736664  0.88186924  1
  Al  Al27  1  0.21789340  0.87567826  0.58683335  1
  Al  Al28  1  0.77397105  0.77071944  0.38962259  1
  Al  Al29  1  0.88211116  0.87933883  0.13453775  1
  Al  Al30  1  0.55920202  0.87152290  0.64261924  1
  B  B31  1  0.89404283  0.19754145  0.64792020  1
  B  B32  1  0.78043986  0.09468921  0.35056162  1
  B  B33  1  0.90225841  0.88970347  0.65539302  1
  B  B34  1  0.56022620  0.87654692  0.14541673  1
  B  B35  1  0.44072785  0.75648862  0.80938726  1
  N  N36  1  0.21953633  0.20627835  0.32796326  1
  N  N37  1  0.10821603  0.10054314  0.07081773  1
  N  N38  1  0.89180064  0.20857747  0.80817325  1
  N  N39  1  0.80685476  0.07975354  0.62042504  1
  N  N40  1  0.59158323  0.19196919  0.37333972  1
  N  N41  1  0.45554988  0.06587587  0.08674298  1
  N  N42  1  0.22451282  0.20670438  0.82515296  1
  N  N43  1  0.08307187  0.11256188  0.58940722  1
  N  N44  1  0.87515177  0.19181268  0.32439018  1
  N  N45  1  0.78843823  0.08978258  0.06075237  1
  N  N46  1  0.54535443  0.20909568  0.87562671  1
  N  N47  1  0.44261985  0.08783418  0.57084954  1
  N  N48  1  0.21640957  0.54863238  0.33231176  1
  N  N49  1  0.11222202  0.42728966  0.07911470  1
  N  N50  1  0.89008852  0.54078488  0.82569845  1
  N  N51  1  0.79296791  0.39437424  0.58672050  1
  N  N52  1  0.55284463  0.54772349  0.38689399  1
  N  N53  1  0.45385595  0.42572087  0.13170445  1
  N  N54  1  0.21644497  0.54035598  0.82545938  1
  N  N55  1  0.10858087  0.42771114  0.57458525  1
  N  N56  1  0.88614996  0.53995533  0.32765917  1
  N  N57  1  0.78211128  0.42463566  0.06976448  1
  N  N58  1  0.53795055  0.56484104  0.86926730  1
  N  N59  1  0.44724371  0.41738249  0.62370426  1
  N  N60  1  0.23186132  0.87124152  0.39135819  1
  N  N61  1  0.10837721  0.76139481  0.07385523  1
  N  N62  1  0.89095471  0.86556665  0.81086938  1
  N  N63  1  0.77675128  0.76425745  0.57533668  1
  N  N64  1  0.56506100  0.87902560  0.30620490  1
  N  N65  1  0.45571712  0.77055574  0.12919092  1
  N  N66  1  0.25083026  0.85895920  0.86658873  1
  N  N67  1  0.07844883  0.77679079  0.58985214  1
  N  N68  1  0.87537271  0.90434492  0.32668015  1
  N  N69  1  0.75403732  0.77500717  0.08260243  1
  N  N70  1  0.54584538  0.85889619  0.82888744  1
  N  N71  1  0.43701245  0.75256397  0.64981488  1
