# generated using pymatgen
data_Al31B5N36
_symmetry_space_group_name_H-M   'P 1'
_cell_length_a   9.16977844
_cell_length_b   9.16821678
_cell_length_c   9.80039894
_cell_angle_alpha   90.11385870
_cell_angle_beta   90.03443578
_cell_angle_gamma   60.05092875
_symmetry_Int_Tables_number   1
_chemical_formula_structural   Al31B5N36
_chemical_formula_sum   'Al31 B5 N36'
_cell_volume   713.90405434
_cell_formula_units_Z   1
loop_
 _symmetry_equiv_pos_site_id
 _symmetry_equiv_pos_as_xyz
  1  'x, y, z'
loop_
 _atom_site_type_symbol
 _atom_site_label
 _atom_site_symmetry_multiplicity
 _atom_site_fract_x
 _atom_site_fract_y
 _atom_site_fract_z
 _atom_site_occupancy
  Al  Al0  1  0.10253705  0.09366406  0.40517430  1
  Al  Al1  1  0.22459444  0.20001742  0.15100654  1
  Al  Al2  1  0.77952677  0.09351167  0.88670550  1
  Al  Al3  1  0.45037379  0.08897119  0.39422263  1
  Al  Al4  1  0.56459135  0.19713882  0.15467150  1
  Al  Al5  1  0.11302818  0.09217497  0.89561407  1
  Al  Al6  1  0.21919293  0.20601058  0.65091413  1
  Al  Al7  1  0.88599461  0.20178965  0.15303392  1
  Al  Al8  1  0.44683429  0.08670218  0.90457394  1
  Al  Al9  1  0.56512689  0.19973117  0.64224037  1
  Al  Al10  1  0.10969537  0.42820791  0.40091187  1
  Al  Al11  1  0.22090669  0.54086318  0.15207232  1
  Al  Al12  1  0.77694277  0.42849882  0.89445713  1
  Al  Al13  1  0.88952757  0.54026893  0.64979453  1
  Al  Al14  1  0.44989692  0.42533230  0.40054374  1
  Al  Al15  1  0.55716870  0.54406007  0.14311033  1
  Al  Al16  1  0.11115742  0.42839284  0.90234982  1
  Al  Al17  1  0.21737938  0.54302869  0.65082050  1
  Al  Al18  1  0.77662743  0.41858037  0.40549925  1
  Al  Al19  1  0.88146366  0.54369047  0.15156977  1
  Al  Al20  1  0.44413334  0.43066841  0.90055419  1
  Al  Al21  1  0.55622623  0.54017857  0.65593061  1
  Al  Al22  1  0.10201730  0.77087709  0.40485999  1
  Al  Al23  1  0.22694112  0.87282283  0.14375142  1
  Al  Al24  1  0.77114671  0.76486299  0.89862264  1
  Al  Al25  1  0.44627335  0.76170258  0.39264830  1
  Al  Al26  1  0.11280395  0.76260910  0.89535526  1
  Al  Al27  1  0.22024616  0.87388675  0.65515447  1
  Al  Al28  1  0.77391754  0.77207875  0.39902704  1
  Al  Al29  1  0.88099787  0.88009345  0.15289783  1
  Al  Al30  1  0.55703962  0.87184140  0.65357799  1
  B  B31  1  0.89418690  0.19857495  0.65144359  1
  B  B32  1  0.78621022  0.09008462  0.40774843  1
  B  B33  1  0.89304598  0.87505360  0.65010801  1
  B  B34  1  0.55690230  0.87293108  0.14764890  1
  B  B35  1  0.44949626  0.76550165  0.90593863  1
  N  N36  1  0.22002090  0.20353396  0.34357943  1
  N  N37  1  0.10662543  0.09658147  0.08830308  1
  N  N38  1  0.88988664  0.20370893  0.81652581  1
  N  N39  1  0.80022269  0.08311637  0.58514471  1
  N  N40  1  0.58323706  0.19149852  0.35248578  1
  N  N41  1  0.45800707  0.07091987  0.10022967  1
  N  N42  1  0.22449287  0.20541622  0.84351425  1
  N  N43  1  0.08808791  0.10456416  0.60030427  1
  N  N44  1  0.87587131  0.19088939  0.34742305  1
  N  N45  1  0.77920945  0.09382312  0.07861542  1
  N  N46  1  0.55402391  0.20452385  0.83687485  1
  N  N47  1  0.44409025  0.09130190  0.58759116  1
  N  N48  1  0.22049829  0.54269379  0.34502768  1
  N  N49  1  0.10962333  0.42796787  0.09493519  1
  N  N50  1  0.88893231  0.54128269  0.84198519  1
  N  N51  1  0.78798340  0.40300187  0.60037247  1
  N  N52  1  0.55740795  0.53858223  0.33659133  1
  N  N53  1  0.44544209  0.42426471  0.09412716  1
  N  N54  1  0.22211456  0.53906254  0.84196996  1
  N  N55  1  0.11097973  0.42764684  0.59157824  1
  N  N56  1  0.88386694  0.54092020  0.34603464  1
  N  N57  1  0.78131627  0.42244509  0.08785644  1
  N  N58  1  0.54328101  0.56530173  0.85158234  1
  N  N59  1  0.44384481  0.43034359  0.59317980  1
  N  N60  1  0.22162433  0.87248894  0.33892904  1
  N  N61  1  0.10583623  0.76366642  0.08923153  1
  N  N62  1  0.88849780  0.87280976  0.81714549  1
  N  N63  1  0.78661316  0.77716371  0.59543902  1
  N  N64  1  0.55594897  0.87003155  0.31581328  1
  N  N65  1  0.45672561  0.77365907  0.07839833  1
  N  N66  1  0.24976213  0.85941981  0.85003035  1
  N  N67  1  0.08748173  0.77530119  0.60010517  1
  N  N68  1  0.87544060  0.90016098  0.34663883  1
  N  N69  1  0.75471040  0.77556458  0.09586622  1
  N  N70  1  0.54326280  0.86002918  0.84532913  1
  N  N71  1  0.44615868  0.76157344  0.58494209  1
