# generated using pymatgen
data_Al31B5N36
_symmetry_space_group_name_H-M   'P 1'
_cell_length_a   9.14920031
_cell_length_b   9.13052853
_cell_length_c   10.22439228
_cell_angle_alpha   89.59541600
_cell_angle_beta   89.59723822
_cell_angle_gamma   60.41995608
_symmetry_Int_Tables_number   1
_chemical_formula_structural   Al31B5N36
_chemical_formula_sum   'Al31 B5 N36'
_cell_volume   742.77122932
_cell_formula_units_Z   1
loop_
 _symmetry_equiv_pos_site_id
 _symmetry_equiv_pos_as_xyz
  1  'x, y, z'
loop_
 _atom_site_type_symbol
 _atom_site_label
 _atom_site_symmetry_multiplicity
 _atom_site_fract_x
 _atom_site_fract_y
 _atom_site_fract_z
 _atom_site_occupancy
  Al  Al0  1  0.09660448  0.10288016  0.39498877  1
  Al  Al1  1  0.22495008  0.19837361  0.13906901  1
  Al  Al2  1  0.77915953  0.09054380  0.86417208  1
  Al  Al3  1  0.44702002  0.09099963  0.38146094  1
  Al  Al4  1  0.55540325  0.20673055  0.06556284  1
  Al  Al5  1  0.10944133  0.09726192  0.87892849  1
  Al  Al6  1  0.21740834  0.20454931  0.63853609  1
  Al  Al7  1  0.88794654  0.20576919  0.13318722  1
  Al  Al8  1  0.43801680  0.07857949  0.89342495  1
  Al  Al9  1  0.57729643  0.19317237  0.57026503  1
  Al  Al10  1  0.11130359  0.43062923  0.38916189  1
  Al  Al11  1  0.22253291  0.53609039  0.14044167  1
  Al  Al12  1  0.78035329  0.42571369  0.87766633  1
  Al  Al13  1  0.88856397  0.53893274  0.63846015  1
  Al  Al14  1  0.46297295  0.42230670  0.32010853  1
  Al  Al15  1  0.55007265  0.55322981  0.06041130  1
  Al  Al16  1  0.11056312  0.42972765  0.88976553  1
  Al  Al17  1  0.21267595  0.53757051  0.63456641  1
  Al  Al18  1  0.78567022  0.41715970  0.39526201  1
  Al  Al19  1  0.88004864  0.54427439  0.14196771  1
  Al  Al20  1  0.44958454  0.42568089  0.81325289  1
  Al  Al21  1  0.55261658  0.53647597  0.57476603  1
  Al  Al22  1  0.10604624  0.78053043  0.31477205  1
  Al  Al23  1  0.23888119  0.86553221  0.05879706  1
  Al  Al24  1  0.76237627  0.75551575  0.89678132  1
  Al  Al25  1  0.44539252  0.76326357  0.31549466  1
  Al  Al26  1  0.10664460  0.76757678  0.82065967  1
  Al  Al27  1  0.21387365  0.87045323  0.57631464  1
  Al  Al28  1  0.77912869  0.77712862  0.38421121  1
  Al  Al29  1  0.88794559  0.87435955  0.07778039  1
  Al  Al30  1  0.55914385  0.87574134  0.64358886  1
  B  B31  1  0.89666956  0.19333061  0.64891346  1
  B  B32  1  0.78160192  0.09340530  0.34604771  1
  B  B33  1  0.88804557  0.88386945  0.60892864  1
  B  B34  1  0.56022717  0.87475160  0.14707447  1
  B  B35  1  0.44027009  0.75613981  0.80841365  1
  N  N36  1  0.21836576  0.20633712  0.32625775  1
  N  N37  1  0.10810427  0.09963710  0.06801166  1
  N  N38  1  0.89166170  0.20553311  0.80551557  1
  N  N39  1  0.80236884  0.07025110  0.62614956  1
  N  N40  1  0.59214412  0.19316533  0.37603624  1
  N  N41  1  0.45462878  0.06611880  0.08630002  1
  N  N42  1  0.22248399  0.20691817  0.82396551  1
  N  N43  1  0.08073956  0.10936494  0.58680167  1
  N  N44  1  0.87530726  0.19569964  0.32332451  1
  N  N45  1  0.78187460  0.10255577  0.06609277  1
  N  N46  1  0.54485096  0.20811322  0.87542626  1
  N  N47  1  0.43910652  0.08885220  0.56935415  1
  N  N48  1  0.22361539  0.54041450  0.33283131  1
  N  N49  1  0.11022753  0.42879080  0.07732826  1
  N  N50  1  0.88853898  0.54072260  0.82349919  1
  N  N51  1  0.79272080  0.39650961  0.58600907  1
  N  N52  1  0.55355225  0.54852159  0.38745651  1
  N  N53  1  0.45630242  0.42564311  0.13090181  1
  N  N54  1  0.21923671  0.53747700  0.82437343  1
  N  N55  1  0.10779260  0.42551545  0.57320891  1
  N  N56  1  0.88645690  0.54314767  0.33050343  1
  N  N57  1  0.78393664  0.42580431  0.06825395  1
  N  N58  1  0.53906549  0.56508775  0.86902432  1
  N  N59  1  0.44964124  0.41629578  0.62505751  1
  N  N60  1  0.22996536  0.86992234  0.38910851  1
  N  N61  1  0.11637835  0.76809798  0.12584866  1
  N  N62  1  0.89361544  0.85898938  0.88535336  1
  N  N63  1  0.78829462  0.78091756  0.57911127  1
  N  N64  1  0.56471351  0.87998921  0.30866905  1
  N  N65  1  0.45461639  0.77120899  0.13026598  1
  N  N66  1  0.24953361  0.85613094  0.86743948  1
  N  N67  1  0.07648785  0.77916352  0.62749800  1
  N  N68  1  0.87474345  0.91054539  0.33874356  1
  N  N69  1  0.74702247  0.77199449  0.08744402  1
  N  N70  1  0.54430014  0.85936536  0.82735859  1
  N  N71  1  0.43588047  0.75407528  0.64743609  1
