# generated using pymatgen
data_Al31B5N36
_symmetry_space_group_name_H-M   'P 1'
_cell_length_a   9.15101498
_cell_length_b   9.18214921
_cell_length_c   10.24795737
_cell_angle_alpha   89.40833524
_cell_angle_beta   89.35520402
_cell_angle_gamma   60.16169270
_symmetry_Int_Tables_number   1
_chemical_formula_structural   Al31B5N36
_chemical_formula_sum   'Al31 B5 N36'
_cell_volume   746.88356899
_cell_formula_units_Z   1
loop_
 _symmetry_equiv_pos_site_id
 _symmetry_equiv_pos_as_xyz
  1  'x, y, z'
loop_
 _atom_site_type_symbol
 _atom_site_label
 _atom_site_symmetry_multiplicity
 _atom_site_fract_x
 _atom_site_fract_y
 _atom_site_fract_z
 _atom_site_occupancy
  Al  Al0  1  0.09818066  0.10450937  0.39392412  1
  Al  Al1  1  0.22497987  0.19876509  0.13727330  1
  Al  Al2  1  0.77609289  0.08393306  0.81570085  1
  Al  Al3  1  0.44774698  0.09034073  0.37742711  1
  Al  Al4  1  0.56048834  0.20451328  0.06567769  1
  Al  Al5  1  0.10978498  0.09743694  0.87949797  1
  Al  Al6  1  0.22277457  0.20474115  0.63848362  1
  Al  Al7  1  0.88723119  0.20646402  0.13694849  1
  Al  Al8  1  0.44129701  0.07867886  0.89368386  1
  Al  Al9  1  0.57278084  0.18910162  0.56624255  1
  Al  Al10  1  0.11318886  0.43033825  0.38836355  1
  Al  Al11  1  0.22192632  0.53731429  0.14135607  1
  Al  Al12  1  0.77907857  0.42940709  0.88071177  1
  Al  Al13  1  0.89241377  0.54098379  0.63954534  1
  Al  Al14  1  0.46484690  0.42126756  0.31910153  1
  Al  Al15  1  0.54837908  0.55397291  0.06148749  1
  Al  Al16  1  0.11239235  0.42927859  0.89029046  1
  Al  Al17  1  0.21606489  0.53621018  0.63484967  1
  Al  Al18  1  0.78807959  0.41800755  0.39336041  1
  Al  Al19  1  0.88080489  0.54400601  0.14052031  1
  Al  Al20  1  0.45182633  0.42499463  0.81554796  1
  Al  Al21  1  0.55182413  0.53703632  0.57595302  1
  Al  Al22  1  0.10505187  0.78136131  0.31730268  1
  Al  Al23  1  0.23678837  0.86637933  0.05978281  1
  Al  Al24  1  0.76282027  0.75828885  0.89701924  1
  Al  Al25  1  0.44542165  0.76350719  0.31670431  1
  Al  Al26  1  0.10599365  0.76724774  0.82136503  1
  Al  Al27  1  0.20686758  0.87312551  0.57856274  1
  Al  Al28  1  0.78026971  0.77435440  0.38185281  1
  Al  Al29  1  0.88619276  0.87843903  0.07577166  1
  Al  Al30  1  0.55829791  0.87395063  0.64180306  1
  B  B31  1  0.91254961  0.23208813  0.65228517  1
  B  B32  1  0.78158666  0.09264311  0.33842029  1
  B  B33  1  0.87987650  0.86792143  0.60488571  1
  B  B34  1  0.56053955  0.87472048  0.14598596  1
  B  B35  1  0.43875879  0.75687408  0.80848053  1
  N  N36  1  0.21878106  0.20722336  0.32394804  1
  N  N37  1  0.10654979  0.10093207  0.06697229  1
  N  N38  1  0.89168410  0.21327976  0.79948881  1
  N  N39  1  0.77718160  0.04358949  0.63718721  1
  N  N40  1  0.59128845  0.19363656  0.37609733  1
  N  N41  1  0.45455243  0.06583465  0.08436902  1
  N  N42  1  0.22430435  0.20661213  0.82378217  1
  N  N43  1  0.07912643  0.11691837  0.58690706  1
  N  N44  1  0.87783860  0.19756062  0.32694874  1
  N  N45  1  0.77673314  0.09848381  0.10501974  1
  N  N46  1  0.55301353  0.20648153  0.87785996  1
  N  N47  1  0.43623706  0.08462264  0.56432054  1
  N  N48  1  0.22470255  0.54095891  0.33355413  1
  N  N49  1  0.11148235  0.42901498  0.07671988  1
  N  N50  1  0.88953067  0.54238141  0.82449538  1
  N  N51  1  0.79780522  0.40165636  0.58678702  1
  N  N52  1  0.55494507  0.54760474  0.38946587  1
  N  N53  1  0.45572005  0.42611211  0.12997132  1
  N  N54  1  0.22041075  0.53722724  0.82471694  1
  N  N55  1  0.11168456  0.42438918  0.57325053  1
  N  N56  1  0.88863247  0.54183469  0.32800800  1
  N  N57  1  0.78365992  0.42550639  0.06877856  1
  N  N58  1  0.53837155  0.56682397  0.86967031  1
  N  N59  1  0.45488251  0.41164593  0.62704433  1
  N  N60  1  0.22898775  0.87160106  0.39212213  1
  N  N61  1  0.11484262  0.76911624  0.12764401  1
  N  N62  1  0.89134477  0.86826014  0.88814156  1
  N  N63  1  0.78702446  0.76485597  0.57423107  1
  N  N64  1  0.56546371  0.87906802  0.30634650  1
  N  N65  1  0.45327176  0.77142587  0.13113060  1
  N  N66  1  0.24776758  0.85700098  0.86753352  1
  N  N67  1  0.07202077  0.77670107  0.62803980  1
  N  N68  1  0.87691821  0.90892231  0.35199882  1
  N  N69  1  0.74801850  0.77102394  0.08608606  1
  N  N70  1  0.54473722  0.86024909  0.82570346  1
  N  N71  1  0.43201369  0.75436888  0.64865009  1
