# generated using pymatgen
data_Al31B5N36
_symmetry_space_group_name_H-M   'P 1'
_cell_length_a   9.18537307
_cell_length_b   9.15853796
_cell_length_c   10.14154991
_cell_angle_alpha   89.59963611
_cell_angle_beta   89.38439158
_cell_angle_gamma   60.23355112
_symmetry_Int_Tables_number   1
_chemical_formula_structural   Al31B5N36
_chemical_formula_sum   'Al31 B5 N36'
_cell_volume   740.54137822
_cell_formula_units_Z   1
loop_
 _symmetry_equiv_pos_site_id
 _symmetry_equiv_pos_as_xyz
  1  'x, y, z'
loop_
 _atom_site_type_symbol
 _atom_site_label
 _atom_site_symmetry_multiplicity
 _atom_site_fract_x
 _atom_site_fract_y
 _atom_site_fract_z
 _atom_site_occupancy
  Al  Al0  1  0.09709893  0.10384105  0.39507165  1
  Al  Al1  1  0.22483885  0.20054172  0.14016433  1
  Al  Al2  1  0.78141593  0.08731735  0.86462048  1
  Al  Al3  1  0.44663084  0.09163071  0.38258035  1
  Al  Al4  1  0.55470283  0.20731011  0.06538941  1
  Al  Al5  1  0.10992441  0.09586266  0.87899599  1
  Al  Al6  1  0.21748647  0.20653835  0.63926932  1
  Al  Al7  1  0.88695917  0.20727880  0.13343116  1
  Al  Al8  1  0.43905183  0.07767481  0.89344678  1
  Al  Al9  1  0.57745332  0.19398194  0.57200731  1
  Al  Al10  1  0.11029919  0.43105388  0.39123725  1
  Al  Al11  1  0.22141054  0.53810797  0.14067526  1
  Al  Al12  1  0.77982727  0.42541984  0.87651426  1
  Al  Al13  1  0.88759949  0.54064675  0.63848617  1
  Al  Al14  1  0.46303474  0.42198820  0.32008807  1
  Al  Al15  1  0.54995198  0.55276649  0.06065724  1
  Al  Al16  1  0.10935911  0.42824626  0.88985217  1
  Al  Al17  1  0.20591671  0.54792940  0.63810133  1
  Al  Al18  1  0.78472001  0.41667752  0.39650616  1
  Al  Al19  1  0.87999926  0.54320508  0.14217166  1
  Al  Al20  1  0.44900867  0.42504406  0.81314798  1
  Al  Al21  1  0.55163736  0.53692848  0.57696801  1
  Al  Al22  1  0.10338529  0.77446913  0.35579070  1
  Al  Al23  1  0.24362624  0.87094674  0.06566872  1
  Al  Al24  1  0.76366874  0.75666016  0.89821494  1
  Al  Al25  1  0.44675604  0.76225188  0.31727918  1
  Al  Al26  1  0.11784600  0.75361405  0.88922361  1
  Al  Al27  1  0.21384004  0.87240830  0.58063912  1
  Al  Al28  1  0.77760981  0.77621621  0.38256847  1
  Al  Al29  1  0.88131018  0.87891371  0.09730940  1
  Al  Al30  1  0.55942090  0.87628821  0.64366401  1
  B  B31  1  0.89730184  0.19214022  0.64939055  1
  B  B32  1  0.78048173  0.09389573  0.34158202  1
  B  B33  1  0.89067350  0.88265257  0.60426102  1
  B  B34  1  0.56084551  0.87376731  0.14898305  1
  B  B35  1  0.44062175  0.75683878  0.80938225  1
  N  N36  1  0.21840853  0.20775296  0.32833621  1
  N  N37  1  0.10757277  0.10195457  0.07130699  1
  N  N38  1  0.89183958  0.20426791  0.80664914  1
  N  N39  1  0.80474466  0.07009417  0.62265384  1
  N  N40  1  0.59271639  0.19153298  0.37416202  1
  N  N41  1  0.45477317  0.06625723  0.08775188  1
  N  N42  1  0.22287360  0.20595472  0.82567547  1
  N  N43  1  0.08150628  0.11060518  0.58809341  1
  N  N44  1  0.87496277  0.19424777  0.32493475  1
  N  N45  1  0.78083422  0.10430714  0.06734435  1
  N  N46  1  0.54574927  0.20680767  0.87421112  1
  N  N47  1  0.43959679  0.09049659  0.57109683  1
  N  N48  1  0.22161456  0.54141032  0.33072206  1
  N  N49  1  0.11000703  0.42902201  0.07873430  1
  N  N50  1  0.88793845  0.54049343  0.82474313  1
  N  N51  1  0.79180668  0.39757540  0.58756466  1
  N  N52  1  0.55300372  0.54740217  0.38773815  1
  N  N53  1  0.45545001  0.42609227  0.13064554  1
  N  N54  1  0.21745108  0.53935725  0.82680600  1
  N  N55  1  0.10812731  0.42760449  0.57618245  1
  N  N56  1  0.88622569  0.54166983  0.33189854  1
  N  N57  1  0.78314021  0.42630596  0.06901337  1
  N  N58  1  0.53873467  0.56404468  0.86845328  1
  N  N59  1  0.44594249  0.41885732  0.62446862  1
  N  N60  1  0.23166166  0.87296348  0.38696532  1
  N  N61  1  0.12067567  0.76058996  0.09289666  1
  N  N62  1  0.89079386  0.85928137  0.88219603  1
  N  N63  1  0.78642678  0.78248876  0.57678564  1
  N  N64  1  0.56351813  0.88021773  0.31097798  1
  N  N65  1  0.45831832  0.76977277  0.13170064  1
  N  N66  1  0.25342882  0.85705349  0.87037024  1
  N  N67  1  0.07560893  0.77612411  0.58851953  1
  N  N68  1  0.87392789  0.90767539  0.31972599  1
  N  N69  1  0.74670607  0.77141112  0.09041337  1
  N  N70  1  0.54576779  0.85799625  0.82855533  1
  N  N71  1  0.43601351  0.75556985  0.64751274  1
