# generated using pymatgen
data_Al31B5N36
_symmetry_space_group_name_H-M   'P 1'
_cell_length_a   9.18634893
_cell_length_b   9.15093424
_cell_length_c   10.12322955
_cell_angle_alpha   89.73865489
_cell_angle_beta   89.82096972
_cell_angle_gamma   60.18352944
_symmetry_Int_Tables_number   1
_chemical_formula_structural   Al31B5N36
_chemical_formula_sum   'Al31 B5 N36'
_cell_volume   738.33517710
_cell_formula_units_Z   1
loop_
 _symmetry_equiv_pos_site_id
 _symmetry_equiv_pos_as_xyz
  1  'x, y, z'
loop_
 _atom_site_type_symbol
 _atom_site_label
 _atom_site_symmetry_multiplicity
 _atom_site_fract_x
 _atom_site_fract_y
 _atom_site_fract_z
 _atom_site_occupancy
  Al  Al0  1  0.10458050  0.08639680  0.31992377  1
  Al  Al1  1  0.22926560  0.20390021  0.13970397  1
  Al  Al2  1  0.78047713  0.08947009  0.82011075  1
  Al  Al3  1  0.44849578  0.08811296  0.39394586  1
  Al  Al4  1  0.56175333  0.20340941  0.07079342  1
  Al  Al5  1  0.10411800  0.09047123  0.81274118  1
  Al  Al6  1  0.22024638  0.21385604  0.63715341  1
  Al  Al7  1  0.88881792  0.20323231  0.07148654  1
  Al  Al8  1  0.44176263  0.08146581  0.87994007  1
  Al  Al9  1  0.57776270  0.20075366  0.56421868  1
  Al  Al10  1  0.11034438  0.42323309  0.38708865  1
  Al  Al11  1  0.22427392  0.54401894  0.06610236  1
  Al  Al12  1  0.77247959  0.43603899  0.88183229  1
  Al  Al13  1  0.89157808  0.53801377  0.64054508  1
  Al  Al14  1  0.45343581  0.41967038  0.31630967  1
  Al  Al15  1  0.54389868  0.55714138  0.06508235  1
  Al  Al16  1  0.10478261  0.42511778  0.88980569  1
  Al  Al17  1  0.22089666  0.54665227  0.56795042  1
  Al  Al18  1  0.78494412  0.41481543  0.39116922  1
  Al  Al19  1  0.87649016  0.54582153  0.14497823  1
  Al  Al20  1  0.44318209  0.43166839  0.81565583  1
  Al  Al21  1  0.55266103  0.53797995  0.57218264  1
  Al  Al22  1  0.11207649  0.76393365  0.31247012  1
  Al  Al23  1  0.23134473  0.87768869  0.05948195  1
  Al  Al24  1  0.76421734  0.76438700  0.88953724  1
  Al  Al25  1  0.45099623  0.76092378  0.32349045  1
  Al  Al26  1  0.10900811  0.76343005  0.82454080  1
  Al  Al27  1  0.21271537  0.87822426  0.56833024  1
  Al  Al28  1  0.78534213  0.77012742  0.39486459  1
  Al  Al29  1  0.88116157  0.88003521  0.10476128  1
  Al  Al30  1  0.55771478  0.87458947  0.61560136  1
  B  B31  1  0.89936731  0.18673430  0.56603269  1
  B  B32  1  0.77855880  0.09060537  0.31191966  1
  B  B33  1  0.89689302  0.87439474  0.60943817  1
  B  B34  1  0.55227616  0.87281506  0.10231026  1
  B  B35  1  0.44159231  0.76069894  0.80476765  1
  N  N36  1  0.22984667  0.20307208  0.32736525  1
  N  N37  1  0.10746677  0.09215024  0.12939946  1
  N  N38  1  0.88944061  0.19990346  0.88170145  1
  N  N39  1  0.80728426  0.07287626  0.62492635  1
  N  N40  1  0.58736799  0.18936562  0.37199508  1
  N  N41  1  0.45584430  0.06282474  0.07850440  1
  N  N42  1  0.22085364  0.20780727  0.82613264  1
  N  N43  1  0.08356205  0.10616053  0.61956736  1
  N  N44  1  0.88390372  0.17902335  0.38557712  1
  N  N45  1  0.77052222  0.11027942  0.14968268  1
  N  N46  1  0.55796786  0.20676930  0.87986560  1
  N  N47  1  0.43988614  0.10597205  0.58417092  1
  N  N48  1  0.22761585  0.54138499  0.37748839  1
  N  N49  1  0.10304478  0.42881876  0.08010942  1
  N  N50  1  0.88661679  0.54335044  0.82567612  1
  N  N51  1  0.79323678  0.39764072  0.58558956  1
  N  N52  1  0.55318830  0.53867627  0.38089040  1
  N  N53  1  0.44394481  0.42959531  0.12797205  1
  N  N54  1  0.22384384  0.54035719  0.87617600  1
  N  N55  1  0.10544948  0.42900985  0.57540635  1
  N  N56  1  0.88692187  0.54030487  0.33199277  1
  N  N57  1  0.77321234  0.43559252  0.07705789  1
  N  N58  1  0.53477730  0.57128722  0.87019115  1
  N  N59  1  0.44536323  0.42345627  0.62929630  1
  N  N60  1  0.22706155  0.86746135  0.38255040  1
  N  N61  1  0.12165166  0.76273910  0.12404879  1
  N  N62  1  0.88978584  0.87499699  0.89412360  1
  N  N63  1  0.80192860  0.77943385  0.59088919  1
  N  N64  1  0.55938572  0.85969057  0.39615178  1
  N  N65  1  0.45530715  0.78086795  0.13044222  1
  N  N66  1  0.24631504  0.86367890  0.86807132  1
  N  N67  1  0.08525045  0.77570936  0.63007800  1
  N  N68  1  0.87801956  0.89143526  0.32481853  1
  N  N69  1  0.73964956  0.77601817  0.08508186  1
  N  N70  1  0.54677779  0.86062552  0.81859123  1
  N  N71  1  0.43344791  0.75633792  0.64463474  1
