# generated using pymatgen
data_Al31B5N36
_symmetry_space_group_name_H-M   'P 1'
_cell_length_a   9.17454584
_cell_length_b   9.16748257
_cell_length_c   10.06752516
_cell_angle_alpha   89.45565887
_cell_angle_beta   89.30492410
_cell_angle_gamma   59.98464465
_symmetry_Int_Tables_number   1
_chemical_formula_structural   Al31B5N36
_chemical_formula_sum   'Al31 B5 N36'
_cell_volume   733.13749929
_cell_formula_units_Z   1
loop_
 _symmetry_equiv_pos_site_id
 _symmetry_equiv_pos_as_xyz
  1  'x, y, z'
loop_
 _atom_site_type_symbol
 _atom_site_label
 _atom_site_symmetry_multiplicity
 _atom_site_fract_x
 _atom_site_fract_y
 _atom_site_fract_z
 _atom_site_occupancy
  Al  Al0  1  0.10208152  0.09341433  0.39520098  1
  Al  Al1  1  0.22561785  0.19983674  0.14052357  1
  Al  Al2  1  0.78095228  0.09069689  0.85092173  1
  Al  Al3  1  0.44834165  0.09096006  0.38380562  1
  Al  Al4  1  0.55780667  0.20542443  0.06226023  1
  Al  Al5  1  0.11435185  0.09027757  0.88589360  1
  Al  Al6  1  0.21896492  0.20581070  0.63901254  1
  Al  Al7  1  0.88356892  0.20571987  0.13029493  1
  Al  Al8  1  0.43921539  0.07839142  0.89215905  1
  Al  Al9  1  0.57997508  0.19542347  0.57317458  1
  Al  Al10  1  0.11064896  0.42876769  0.39007212  1
  Al  Al11  1  0.21541994  0.54269937  0.14047624  1
  Al  Al12  1  0.77974415  0.42742627  0.87730692  1
  Al  Al13  1  0.88694555  0.53899380  0.63843211  1
  Al  Al14  1  0.46052098  0.42136029  0.31764582  1
  Al  Al15  1  0.54364383  0.55923994  0.06060086  1
  Al  Al16  1  0.11074740  0.42693189  0.88996404  1
  Al  Al17  1  0.20828255  0.54581398  0.63768003  1
  Al  Al18  1  0.78833935  0.41243584  0.39317735  1
  Al  Al19  1  0.87839059  0.54422429  0.13927465  1
  Al  Al20  1  0.44755104  0.42826118  0.81262662  1
  Al  Al21  1  0.55324277  0.53638854  0.57021628  1
  Al  Al22  1  0.10167820  0.77209035  0.39519277  1
  Al  Al23  1  0.21926553  0.87798067  0.13819157  1
  Al  Al24  1  0.76845110  0.76137803  0.88834673  1
  Al  Al25  1  0.45355752  0.75867300  0.32093366  1
  Al  Al26  1  0.11484210  0.75857145  0.88682109  1
  Al  Al27  1  0.21140701  0.87712411  0.64032161  1
  Al  Al28  1  0.77774041  0.77321768  0.39093312  1
  Al  Al29  1  0.87941100  0.88038659  0.13340131  1
  Al  Al30  1  0.56021052  0.87458461  0.63933573  1
  B  B31  1  0.89619523  0.19491190  0.64791946  1
  B  B32  1  0.78065554  0.09421514  0.34886845  1
  B  B33  1  0.89504326  0.87851910  0.64927099  1
  B  B34  1  0.55860349  0.87620672  0.14505415  1
  B  B35  1  0.44375337  0.75771277  0.81392195  1
  N  N36  1  0.21975106  0.20457015  0.32975948  1
  N  N37  1  0.10904685  0.09730666  0.07469705  1
  N  N38  1  0.89631915  0.20690310  0.80879553  1
  N  N39  1  0.80455951  0.07987595  0.62523603  1
  N  N40  1  0.59219453  0.19116579  0.37267439  1
  N  N41  1  0.45604162  0.06718835  0.08677836  1
  N  N42  1  0.22250635  0.20461011  0.82754982  1
  N  N43  1  0.08714817  0.10546457  0.58581297  1
  N  N44  1  0.87540733  0.19068843  0.32428500  1
  N  N45  1  0.78899310  0.08981298  0.05821223  1
  N  N46  1  0.54561449  0.20819715  0.87175954  1
  N  N47  1  0.44294409  0.09303321  0.57323860  1
  N  N48  1  0.21795606  0.54531196  0.33258618  1
  N  N49  1  0.10955457  0.42757400  0.07975199  1
  N  N50  1  0.88875314  0.54066368  0.82612385  1
  N  N51  1  0.79440112  0.39526595  0.58593151  1
  N  N52  1  0.55686444  0.54053891  0.38073277  1
  N  N53  1  0.45204346  0.42683220  0.12707796  1
  N  N54  1  0.21590532  0.54075142  0.82726140  1
  N  N55  1  0.10876670  0.42731308  0.57635301  1
  N  N56  1  0.88562629  0.54162500  0.33038098  1
  N  N57  1  0.77882234  0.42689344  0.06979050  1
  N  N58  1  0.53540969  0.56973762  0.86664862  1
  N  N59  1  0.44691437  0.42140899  0.62332166  1
  N  N60  1  0.21840699  0.87524256  0.33213912  1
  N  N61  1  0.10943343  0.76284487  0.07651892  1
  N  N62  1  0.89334647  0.85993807  0.81207892  1
  N  N63  1  0.78780286  0.77616487  0.58208286  1
  N  N64  1  0.56670316  0.87915530  0.31060922  1
  N  N65  1  0.45743127  0.77360377  0.12892932  1
  N  N66  1  0.24308891  0.86096231  0.83031284  1
  N  N67  1  0.08407959  0.77655198  0.58609177  1
  N  N68  1  0.87575129  0.90397431  0.32649962  1
  N  N69  1  0.75293668  0.77533518  0.08292681  1
  N  N70  1  0.54305737  0.85762316  0.82757083  1
  N  N71  1  0.44482996  0.75811744  0.61962487  1
