# generated using pymatgen
data_Al31B5N36
_symmetry_space_group_name_H-M   'P 1'
_cell_length_a   9.20386005
_cell_length_b   9.18855817
_cell_length_c   9.89811954
_cell_angle_alpha   90.22694774
_cell_angle_beta   89.90154386
_cell_angle_gamma   59.94805863
_symmetry_Int_Tables_number   1
_chemical_formula_structural   Al31B5N36
_chemical_formula_sum   'Al31 B5 N36'
_cell_volume   724.54568882
_cell_formula_units_Z   1
loop_
 _symmetry_equiv_pos_site_id
 _symmetry_equiv_pos_as_xyz
  1  'x, y, z'
loop_
 _atom_site_type_symbol
 _atom_site_label
 _atom_site_symmetry_multiplicity
 _atom_site_fract_x
 _atom_site_fract_y
 _atom_site_fract_z
 _atom_site_occupancy
  Al  Al0  1  0.10625002  0.09135352  0.31942589  1
  Al  Al1  1  0.22468647  0.20057602  0.06695977  1
  Al  Al2  1  0.78167845  0.08915248  0.81607309  1
  Al  Al3  1  0.45562061  0.08413288  0.32158564  1
  Al  Al4  1  0.56097899  0.20067532  0.06876892  1
  Al  Al5  1  0.10858479  0.09502080  0.80956975  1
  Al  Al6  1  0.21830024  0.20519206  0.56044623  1
  Al  Al7  1  0.88758234  0.20840885  0.06807541  1
  Al  Al8  1  0.44092576  0.09288050  0.81277601  1
  Al  Al9  1  0.57049442  0.19463622  0.55932084  1
  Al  Al10  1  0.11457538  0.42782573  0.31904781  1
  Al  Al11  1  0.22382163  0.54069234  0.06167146  1
  Al  Al12  1  0.77382469  0.42632252  0.80868335  1
  Al  Al13  1  0.89143627  0.53623983  0.58537960  1
  Al  Al14  1  0.45069573  0.42363190  0.31300383  1
  Al  Al15  1  0.55664469  0.54976209  0.06014062  1
  Al  Al16  1  0.11008812  0.42789797  0.81454875  1
  Al  Al17  1  0.21895975  0.54130873  0.56563464  1
  Al  Al18  1  0.77724795  0.41897279  0.32811288  1
  Al  Al19  1  0.87973426  0.54710384  0.10513334  1
  Al  Al20  1  0.44464588  0.43032749  0.81384174  1
  Al  Al21  1  0.55609181  0.53199785  0.56651574  1
  Al  Al22  1  0.11039271  0.76677165  0.31080262  1
  Al  Al23  1  0.23364143  0.87482184  0.05736387  1
  Al  Al24  1  0.75973794  0.76627957  0.88296401  1
  Al  Al25  1  0.44932281  0.76293129  0.32175198  1
  Al  Al26  1  0.10769043  0.76419410  0.82201505  1
  Al  Al27  1  0.21223203  0.87458592  0.56763852  1
  Al  Al28  1  0.78202312  0.77704274  0.39004717  1
  Al  Al29  1  0.88303637  0.88250747  0.09672184  1
  Al  Al30  1  0.55506227  0.87229504  0.60069937  1
  B  B31  1  0.89398681  0.18907356  0.55606111  1
  B  B32  1  0.77789171  0.09281941  0.30958249  1
  B  B33  1  0.89496562  0.87529737  0.60314434  1
  B  B34  1  0.55313462  0.87414512  0.10542459  1
  B  B35  1  0.44315226  0.76125459  0.80189261  1
  N  N36  1  0.22504569  0.20291049  0.37008184  1
  N  N37  1  0.10987056  0.09447762  0.12703150  1
  N  N38  1  0.88643655  0.20549713  0.87793511  1
  N  N39  1  0.80472919  0.07224237  0.61817063  1
  N  N40  1  0.58214540  0.19106391  0.36590422  1
  N  N41  1  0.45948405  0.06621367  0.12298122  1
  N  N42  1  0.21995736  0.20518048  0.87600828  1
  N  N43  1  0.08454103  0.10657186  0.61392708  1
  N  N44  1  0.88020303  0.18916500  0.38940163  1
  N  N45  1  0.77328062  0.11089666  0.14601784  1
  N  N46  1  0.55731682  0.20269377  0.87609061  1
  N  N47  1  0.43908247  0.10480224  0.62183555  1
  N  N48  1  0.22377842  0.54164539  0.37482860  1
  N  N49  1  0.11249561  0.42983316  0.12603109  1
  N  N50  1  0.88429817  0.54042880  0.85073402  1
  N  N51  1  0.78823293  0.39543140  0.61337728  1
  N  N52  1  0.55302465  0.54028411  0.37692940  1
  N  N53  1  0.44606771  0.43043989  0.12088584  1
  N  N54  1  0.22197869  0.53872782  0.87178917  1
  N  N55  1  0.11560535  0.42423643  0.62310880  1
  N  N56  1  0.88813803  0.54100256  0.36947947  1
  N  N57  1  0.77359865  0.42817073  0.13307607  1
  N  N58  1  0.54333601  0.56353553  0.86565135  1
  N  N59  1  0.44591212  0.42076486  0.62274186  1
  N  N60  1  0.22548875  0.86935636  0.37791827  1
  N  N61  1  0.12203784  0.76210329  0.11909350  1
  N  N62  1  0.88731548  0.87618410  0.89092342  1
  N  N63  1  0.79939924  0.78159557  0.58900178  1
  N  N64  1  0.55249991  0.87149872  0.39480130  1
  N  N65  1  0.45893175  0.77880606  0.12544649  1
  N  N66  1  0.24502124  0.86285960  0.86242148  1
  N  N67  1  0.08362789  0.77470957  0.62459789  1
  N  N68  1  0.87730467  0.89706266  0.32697118  1
  N  N69  1  0.73988421  0.78029575  0.08738312  1
  N  N70  1  0.54139444  0.85940095  0.82348377  1
  N  N71  1  0.43594431  0.75288912  0.63860016  1
