# generated using pymatgen
data_Al31B5N36
_symmetry_space_group_name_H-M   'P 1'
_cell_length_a   9.20474829
_cell_length_b   9.19674701
_cell_length_c   9.98439918
_cell_angle_alpha   90.01270062
_cell_angle_beta   89.94685221
_cell_angle_gamma   60.08293749
_symmetry_Int_Tables_number   1
_chemical_formula_structural   Al31B5N36
_chemical_formula_sum   'Al31 B5 N36'
_cell_volume   732.58960232
_cell_formula_units_Z   1
loop_
 _symmetry_equiv_pos_site_id
 _symmetry_equiv_pos_as_xyz
  1  'x, y, z'
loop_
 _atom_site_type_symbol
 _atom_site_label
 _atom_site_symmetry_multiplicity
 _atom_site_fract_x
 _atom_site_fract_y
 _atom_site_fract_z
 _atom_site_occupancy
  Al  Al0  1  0.10699977  0.08719653  0.32691781  1
  Al  Al1  1  0.22656883  0.20030361  0.09724968  1
  Al  Al2  1  0.78137380  0.08896425  0.82247795  1
  Al  Al3  1  0.46043012  0.08159452  0.33226489  1
  Al  Al4  1  0.56172803  0.20121451  0.07604825  1
  Al  Al5  1  0.10780634  0.09510333  0.81501394  1
  Al  Al6  1  0.21975049  0.20003968  0.57110918  1
  Al  Al7  1  0.88891965  0.20469362  0.07496759  1
  Al  Al8  1  0.43932500  0.09394878  0.81944627  1
  Al  Al9  1  0.57175786  0.19463497  0.56657812  1
  Al  Al10  1  0.10742251  0.43148132  0.38414990  1
  Al  Al11  1  0.22558208  0.54602510  0.07250876  1
  Al  Al12  1  0.77267512  0.43533151  0.88255513  1
  Al  Al13  1  0.89340382  0.53576866  0.64603098  1
  Al  Al14  1  0.45363756  0.42244766  0.32073274  1
  Al  Al15  1  0.54555016  0.55799211  0.06945792  1
  Al  Al16  1  0.10363777  0.42880523  0.89455149  1
  Al  Al17  1  0.22119452  0.54386437  0.57449634  1
  Al  Al18  1  0.78530902  0.41691269  0.39666476  1
  Al  Al19  1  0.87496253  0.54924081  0.14864548  1
  Al  Al20  1  0.44372188  0.43045015  0.82152213  1
  Al  Al21  1  0.55402920  0.53428163  0.57943658  1
  Al  Al22  1  0.11112015  0.76616856  0.31703863  1
  Al  Al23  1  0.23228427  0.87898270  0.06291326  1
  Al  Al24  1  0.75851696  0.76807178  0.89481851  1
  Al  Al25  1  0.45051518  0.76175238  0.33067116  1
  Al  Al26  1  0.10745900  0.76434419  0.82974284  1
  Al  Al27  1  0.21269297  0.87255595  0.57431657  1
  Al  Al28  1  0.78455017  0.77166983  0.40022129  1
  Al  Al29  1  0.88236023  0.88221024  0.10525893  1
  Al  Al30  1  0.55685129  0.87067228  0.60930856  1
  B  B31  1  0.89810296  0.18097649  0.56227770  1
  B  B32  1  0.78000618  0.09059479  0.31740907  1
  B  B33  1  0.89573038  0.87216051  0.61122541  1
  B  B34  1  0.55472856  0.87453418  0.11486916  1
  B  B35  1  0.44098865  0.76220894  0.80945412  1
  N  N36  1  0.22715893  0.19909185  0.36862735  1
  N  N37  1  0.10767467  0.09391834  0.13756116  1
  N  N38  1  0.88956498  0.19969093  0.88312782  1
  N  N39  1  0.80570293  0.06981206  0.62539856  1
  N  N40  1  0.58445995  0.19048324  0.37508051  1
  N  N41  1  0.46356008  0.06542347  0.13459822  1
  N  N42  1  0.22097412  0.20021406  0.88049783  1
  N  N43  1  0.08500027  0.10320154  0.62008223  1
  N  N44  1  0.88426630  0.17886703  0.39541614  1
  N  N45  1  0.77317999  0.11125016  0.15489918  1
  N  N46  1  0.55732062  0.20292277  0.88429249  1
  N  N47  1  0.44057209  0.10403594  0.62816468  1
  N  N48  1  0.22762520  0.54371497  0.38012117  1
  N  N49  1  0.10250721  0.43625099  0.09383896  1
  N  N50  1  0.88560432  0.54537051  0.83299190  1
  N  N51  1  0.79314736  0.39867244  0.59199135  1
  N  N52  1  0.55441427  0.53962673  0.38497449  1
  N  N53  1  0.44650899  0.42995649  0.13064426  1
  N  N54  1  0.22330573  0.54090602  0.87984414  1
  N  N55  1  0.10606129  0.42883839  0.58111508  1
  N  N56  1  0.88255858  0.54476909  0.33726360  1
  N  N57  1  0.77468628  0.43590781  0.08213533  1
  N  N58  1  0.53471202  0.57020700  0.87348537  1
  N  N59  1  0.44674758  0.41944502  0.63225251  1
  N  N60  1  0.22692616  0.86691568  0.38662512  1
  N  N61  1  0.12197757  0.76589876  0.12711819  1
  N  N62  1  0.88737390  0.87596203  0.89853841  1
  N  N63  1  0.80168438  0.77650545  0.59568467  1
  N  N64  1  0.55453715  0.86894383  0.40464154  1
  N  N65  1  0.45666741  0.78259830  0.13539858  1
  N  N66  1  0.24368932  0.86423510  0.86968223  1
  N  N67  1  0.08378373  0.77375550  0.63352784  1
  N  N68  1  0.87719969  0.89361592  0.33295764  1
  N  N69  1  0.74016217  0.77912582  0.09252597  1
  N  N70  1  0.54284302  0.85897116  0.82865314  1
  N  N71  1  0.43397033  0.75441358  0.64698058  1
