# generated using pymatgen
data_Al31B5N36
_symmetry_space_group_name_H-M   'P 1'
_cell_length_a   9.16934287
_cell_length_b   9.16508733
_cell_length_c   10.11035050
_cell_angle_alpha   89.57399666
_cell_angle_beta   89.21780664
_cell_angle_gamma   60.14580743
_symmetry_Int_Tables_number   1
_chemical_formula_structural   Al31B5N36
_chemical_formula_sum   'Al31 B5 N36'
_cell_volume   736.82998187
_cell_formula_units_Z   1
loop_
 _symmetry_equiv_pos_site_id
 _symmetry_equiv_pos_as_xyz
  1  'x, y, z'
loop_
 _atom_site_type_symbol
 _atom_site_label
 _atom_site_symmetry_multiplicity
 _atom_site_fract_x
 _atom_site_fract_y
 _atom_site_fract_z
 _atom_site_occupancy
  Al  Al0  1  0.09852668  0.10140225  0.39625791  1
  Al  Al1  1  0.22519774  0.19948259  0.13997944  1
  Al  Al2  1  0.77980139  0.09187099  0.85848111  1
  Al  Al3  1  0.44786869  0.08979155  0.38212128  1
  Al  Al4  1  0.55711259  0.20528188  0.06502454  1
  Al  Al5  1  0.10996356  0.09794676  0.87746851  1
  Al  Al6  1  0.21895960  0.20739928  0.63844439  1
  Al  Al7  1  0.88701054  0.20350130  0.13067495  1
  Al  Al8  1  0.43955813  0.07829908  0.89288928  1
  Al  Al9  1  0.58028178  0.19243279  0.57216700  1
  Al  Al10  1  0.10973054  0.43042704  0.38927959  1
  Al  Al11  1  0.21689649  0.54394150  0.14071144  1
  Al  Al12  1  0.77929122  0.42820413  0.87747962  1
  Al  Al13  1  0.88623511  0.53884473  0.63803512  1
  Al  Al14  1  0.46007577  0.42397968  0.32113141  1
  Al  Al15  1  0.54863572  0.55258581  0.06125769  1
  Al  Al16  1  0.11118260  0.42754909  0.89043138  1
  Al  Al17  1  0.20785161  0.54529618  0.63810052  1
  Al  Al18  1  0.78515444  0.41593521  0.39454750  1
  Al  Al19  1  0.88050706  0.54344557  0.13895687  1
  Al  Al20  1  0.44842383  0.42673387  0.81283502  1
  Al  Al21  1  0.55258720  0.53638234  0.57606620  1
  Al  Al22  1  0.09826495  0.77197618  0.39585665  1
  Al  Al23  1  0.23982919  0.86912673  0.06115540  1
  Al  Al24  1  0.76807952  0.76173487  0.88890382  1
  Al  Al25  1  0.44449531  0.76306541  0.31608667  1
  Al  Al26  1  0.11137614  0.75759425  0.88126537  1
  Al  Al27  1  0.21726126  0.87532272  0.58781864  1
  Al  Al28  1  0.77499053  0.77212764  0.38999083  1
  Al  Al29  1  0.88243606  0.87955221  0.13394802  1
  Al  Al30  1  0.55954811  0.87294628  0.64333295  1
  B  B31  1  0.89407431  0.19646844  0.64843806  1
  B  B32  1  0.78057882  0.09481733  0.35009874  1
  B  B33  1  0.89728686  0.88431698  0.65234829  1
  B  B34  1  0.56054437  0.87644655  0.14577032  1
  B  B35  1  0.44106200  0.75651798  0.80921225  1
  N  N36  1  0.21930414  0.20617784  0.32812955  1
  N  N37  1  0.10847549  0.10040854  0.07064268  1
  N  N38  1  0.89167174  0.20867079  0.80815850  1
  N  N39  1  0.80525513  0.07935385  0.62171142  1
  N  N40  1  0.59171938  0.19179567  0.37304381  1
  N  N41  1  0.45591402  0.06596793  0.08719737  1
  N  N42  1  0.22426016  0.20671838  0.82534455  1
  N  N43  1  0.08257195  0.11235079  0.58963953  1
  N  N44  1  0.87531707  0.19184112  0.32430543  1
  N  N45  1  0.78887304  0.08960093  0.05988232  1
  N  N46  1  0.54505159  0.20904799  0.87509433  1
  N  N47  1  0.44218436  0.08842299  0.57093289  1
  N  N48  1  0.21690347  0.54800717  0.33204279  1
  N  N49  1  0.11192278  0.42736351  0.07945516  1
  N  N50  1  0.88969563  0.54072230  0.82608260  1
  N  N51  1  0.79262923  0.39576605  0.58666233  1
  N  N52  1  0.55308668  0.54747846  0.38639890  1
  N  N53  1  0.45405294  0.42560550  0.13123458  1
  N  N54  1  0.21637194  0.54013533  0.82549014  1
  N  N55  1  0.10842542  0.42763051  0.57475190  1
  N  N56  1  0.88582015  0.54098252  0.32892266  1
  N  N57  1  0.78209943  0.42480873  0.07017475  1
  N  N58  1  0.53783310  0.56503108  0.86924441  1
  N  N59  1  0.44698906  0.41794807  0.62349831  1
  N  N60  1  0.23221748  0.87101063  0.39164283  1
  N  N61  1  0.10876574  0.76124203  0.07369821  1
  N  N62  1  0.89021431  0.86374385  0.81123684  1
  N  N63  1  0.78099959  0.77016838  0.57836290  1
  N  N64  1  0.56545800  0.87869269  0.30732269  1
  N  N65  1  0.45574668  0.77093604  0.12923829  1
  N  N66  1  0.25051705  0.85891203  0.86560995  1
  N  N67  1  0.07861922  0.77576707  0.58919267  1
  N  N68  1  0.87600173  0.90449702  0.32636054  1
  N  N69  1  0.75395063  0.77495293  0.08340849  1
  N  N70  1  0.54565389  0.85890238  0.82937438  1
  N  N71  1  0.43832990  0.75290439  0.64908947  1
