# generated using pymatgen
data_Al31B5N36
_symmetry_space_group_name_H-M   'P 1'
_cell_length_a   9.19840231
_cell_length_b   9.17560010
_cell_length_c   10.06229242
_cell_angle_alpha   90.08186865
_cell_angle_beta   89.96992304
_cell_angle_gamma   60.12566325
_symmetry_Int_Tables_number   1
_chemical_formula_structural   Al31B5N36
_chemical_formula_sum   'Al31 B5 N36'
_cell_volume   736.41410770
_cell_formula_units_Z   1
loop_
 _symmetry_equiv_pos_site_id
 _symmetry_equiv_pos_as_xyz
  1  'x, y, z'
loop_
 _atom_site_type_symbol
 _atom_site_label
 _atom_site_symmetry_multiplicity
 _atom_site_fract_x
 _atom_site_fract_y
 _atom_site_fract_z
 _atom_site_occupancy
  Al  Al0  1  0.10588228  0.08650695  0.32439385  1
  Al  Al1  1  0.22498455  0.20678393  0.14109383  1
  Al  Al2  1  0.78035271  0.08898473  0.81881680  1
  Al  Al3  1  0.46365342  0.08036244  0.33167834  1
  Al  Al4  1  0.56176058  0.20021456  0.07262354  1
  Al  Al5  1  0.10271406  0.09022967  0.81165320  1
  Al  Al6  1  0.21322932  0.21306791  0.62911822  1
  Al  Al7  1  0.88888785  0.20438882  0.07132293  1
  Al  Al8  1  0.44642186  0.08983844  0.81515451  1
  Al  Al9  1  0.57284244  0.19549783  0.56189647  1
  Al  Al10  1  0.11020484  0.42526324  0.38765973  1
  Al  Al11  1  0.22561596  0.54388897  0.06666023  1
  Al  Al12  1  0.77213901  0.43643219  0.88033209  1
  Al  Al13  1  0.89060503  0.53889273  0.64273795  1
  Al  Al14  1  0.45307384  0.42239929  0.31689995  1
  Al  Al15  1  0.54493044  0.55755698  0.06589280  1
  Al  Al16  1  0.10467105  0.42442249  0.88981414  1
  Al  Al17  1  0.22132818  0.54546698  0.57008633  1
  Al  Al18  1  0.78553011  0.41721083  0.39368637  1
  Al  Al19  1  0.87720553  0.54683455  0.14458233  1
  Al  Al20  1  0.44332623  0.43107234  0.81734177  1
  Al  Al21  1  0.55343340  0.53560021  0.57533483  1
  Al  Al22  1  0.11184224  0.76433253  0.31312884  1
  Al  Al23  1  0.23262632  0.87862363  0.05994028  1
  Al  Al24  1  0.75930404  0.76687963  0.89301175  1
  Al  Al25  1  0.45070244  0.76105751  0.32589722  1
  Al  Al26  1  0.10727723  0.76313596  0.82587899  1
  Al  Al27  1  0.21273721  0.87456873  0.56964808  1
  Al  Al28  1  0.78684294  0.76950815  0.39563063  1
  Al  Al29  1  0.88280068  0.88165963  0.10248405  1
  Al  Al30  1  0.55636529  0.87151744  0.60048823  1
  B  B31  1  0.89879056  0.18070974  0.55870998  1
  B  B32  1  0.78046465  0.09051519  0.31379118  1
  B  B33  1  0.89550185  0.87291325  0.60777089  1
  B  B34  1  0.55548254  0.87398237  0.11054733  1
  B  B35  1  0.44168734  0.76247529  0.80695790  1
  N  N36  1  0.22744486  0.20452324  0.33402304  1
  N  N37  1  0.10705952  0.09282992  0.13178643  1
  N  N38  1  0.88760006  0.20035142  0.88080108  1
  N  N39  1  0.80522874  0.07054947  0.62216827  1
  N  N40  1  0.58591399  0.19060319  0.37171093  1
  N  N41  1  0.46592795  0.06354068  0.12907925  1
  N  N42  1  0.21452489  0.20949225  0.82521403  1
  N  N43  1  0.08191105  0.10311975  0.61605332  1
  N  N44  1  0.88435491  0.17903674  0.39213276  1
  N  N45  1  0.77319533  0.11113197  0.15185307  1
  N  N46  1  0.55673818  0.20361800  0.88176842  1
  N  N47  1  0.44624336  0.10222545  0.62171621  1
  N  N48  1  0.22752353  0.54244222  0.37788214  1
  N  N49  1  0.10429382  0.42946467  0.08187774  1
  N  N50  1  0.88533301  0.54562486  0.82857164  1
  N  N51  1  0.79239694  0.40070717  0.58734991  1
  N  N52  1  0.55421207  0.53949363  0.38186425  1
  N  N53  1  0.44562285  0.42932364  0.12774897  1
  N  N54  1  0.22321958  0.53985889  0.87593302  1
  N  N55  1  0.10449197  0.43026279  0.57604785  1
  N  N56  1  0.88642931  0.54178216  0.33247203  1
  N  N57  1  0.77411447  0.43608586  0.07784351  1
  N  N58  1  0.53422909  0.57043661  0.87053693  1
  N  N59  1  0.44633922  0.42041688  0.62915521  1
  N  N60  1  0.22736647  0.86662149  0.38310113  1
  N  N61  1  0.12246713  0.76340249  0.12418083  1
  N  N62  1  0.88735626  0.87614981  0.89509657  1
  N  N63  1  0.80148063  0.77679611  0.59060632  1
  N  N64  1  0.55595235  0.86696982  0.40030612  1
  N  N65  1  0.45700310  0.78168360  0.13246933  1
  N  N66  1  0.24347848  0.86381784  0.86788946  1
  N  N67  1  0.08382910  0.77453379  0.63043640  1
  N  N68  1  0.87778558  0.89326181  0.32906802  1
  N  N69  1  0.74208843  0.77707279  0.08908268  1
  N  N70  1  0.54268082  0.85840896  0.82917858  1
  N  N71  1  0.43403119  0.75622368  0.64433172  1
