# generated using pymatgen
data_Al31B5N36
_symmetry_space_group_name_H-M   'P 1'
_cell_length_a   9.18170261
_cell_length_b   9.15448539
_cell_length_c   10.15164546
_cell_angle_alpha   89.59195902
_cell_angle_beta   89.35841944
_cell_angle_gamma   60.20979787
_symmetry_Int_Tables_number   1
_chemical_formula_structural   Al31B5N36
_chemical_formula_sum   'Al31 B5 N36'
_cell_volume   740.47525879
_cell_formula_units_Z   1
loop_
 _symmetry_equiv_pos_site_id
 _symmetry_equiv_pos_as_xyz
  1  'x, y, z'
loop_
 _atom_site_type_symbol
 _atom_site_label
 _atom_site_symmetry_multiplicity
 _atom_site_fract_x
 _atom_site_fract_y
 _atom_site_fract_z
 _atom_site_occupancy
  Al  Al0  1  0.09761368  0.10319102  0.39484331  1
  Al  Al1  1  0.22481985  0.20081145  0.13985890  1
  Al  Al2  1  0.78152957  0.08718310  0.86635035  1
  Al  Al3  1  0.44660355  0.09138019  0.38246079  1
  Al  Al4  1  0.55442716  0.20752380  0.06564699  1
  Al  Al5  1  0.10986387  0.09596799  0.87857820  1
  Al  Al6  1  0.21753230  0.20709154  0.63953053  1
  Al  Al7  1  0.88710923  0.20686750  0.13330799  1
  Al  Al8  1  0.43913065  0.07787404  0.89355311  1
  Al  Al9  1  0.57756467  0.19394498  0.57151175  1
  Al  Al10  1  0.11026096  0.43056115  0.39080402  1
  Al  Al11  1  0.21996464  0.54088304  0.14239321  1
  Al  Al12  1  0.77953754  0.42551202  0.87658426  1
  Al  Al13  1  0.88754902  0.54036899  0.63873672  1
  Al  Al14  1  0.46273020  0.42209692  0.32027572  1
  Al  Al15  1  0.54953972  0.55265029  0.06071107  1
  Al  Al16  1  0.10940728  0.42899311  0.88986186  1
  Al  Al17  1  0.20614856  0.54755496  0.63754141  1
  Al  Al18  1  0.78476449  0.41634798  0.39625652  1
  Al  Al19  1  0.88019524  0.54297484  0.14171264  1
  Al  Al20  1  0.44844281  0.42563548  0.81284739  1
  Al  Al21  1  0.55195900  0.53676433  0.57664665  1
  Al  Al22  1  0.10134194  0.77237679  0.37649957  1
  Al  Al23  1  0.24322359  0.87070524  0.06506013  1
  Al  Al24  1  0.76439510  0.75747602  0.89793691  1
  Al  Al25  1  0.44586363  0.76226656  0.31683744  1
  Al  Al26  1  0.11695609  0.75348406  0.89115068  1
  Al  Al27  1  0.21586562  0.87390198  0.58221359  1
  Al  Al28  1  0.77697520  0.77573022  0.38166258  1
  Al  Al29  1  0.88292387  0.87824641  0.10357489  1
  Al  Al30  1  0.55978199  0.87650180  0.64409793  1
  B  B31  1  0.89713975  0.19244740  0.64919114  1
  B  B32  1  0.78114220  0.09320325  0.34180045  1
  B  B33  1  0.88893883  0.88331584  0.60372086  1
  B  B34  1  0.56072935  0.87399633  0.14859983  1
  B  B35  1  0.44064595  0.75705381  0.80957458  1
  N  N36  1  0.21852098  0.20750929  0.32799181  1
  N  N37  1  0.10763185  0.10197350  0.07098479  1
  N  N38  1  0.89123898  0.20424904  0.80641076  1
  N  N39  1  0.80538687  0.07004722  0.62037564  1
  N  N40  1  0.59311732  0.19088452  0.37383759  1
  N  N41  1  0.45484114  0.06624126  0.08762990  1
  N  N42  1  0.22283017  0.20646621  0.82571835  1
  N  N43  1  0.08153919  0.11119401  0.58846319  1
  N  N44  1  0.87522392  0.19371976  0.32484500  1
  N  N45  1  0.78144708  0.10276124  0.06737228  1
  N  N46  1  0.54551001  0.20757426  0.87461157  1
  N  N47  1  0.43959785  0.09050442  0.57094236  1
  N  N48  1  0.22078796  0.54276558  0.33187697  1
  N  N49  1  0.11048344  0.42954724  0.07891977  1
  N  N50  1  0.88776485  0.54037896  0.82478148  1
  N  N51  1  0.79198486  0.39737016  0.58730504  1
  N  N52  1  0.55304788  0.54730765  0.38769010  1
  N  N53  1  0.45487138  0.42630436  0.13134872  1
  N  N54  1  0.21639871  0.54056649  0.82467327  1
  N  N55  1  0.10784787  0.42784989  0.57572040  1
  N  N56  1  0.88612664  0.54125536  0.33149195  1
  N  N57  1  0.78299004  0.42604490  0.06896823  1
  N  N58  1  0.53836757  0.56413806  0.86867477  1
  N  N59  1  0.44614371  0.41877276  0.62407134  1
  N  N60  1  0.23238651  0.87270644  0.38847028  1
  N  N61  1  0.12075909  0.75922758  0.08570122  1
  N  N62  1  0.89047555  0.85946930  0.87526916  1
  N  N63  1  0.78647817  0.78272131  0.57618675  1
  N  N64  1  0.56318062  0.88012545  0.31044258  1
  N  N65  1  0.45807724  0.76991617  0.13134061  1
  N  N66  1  0.25311783  0.85752713  0.86880109  1
  N  N67  1  0.07595215  0.77572419  0.58011760  1
  N  N68  1  0.87603016  0.90580158  0.31934699  1
  N  N69  1  0.74754108  0.77168484  0.09024998  1
  N  N70  1  0.54594860  0.85812200  0.82869817  1
  N  N71  1  0.43731746  0.75497615  0.64788129  1
