# generated using pymatgen
data_Al31B5N36
_symmetry_space_group_name_H-M   'P 1'
_cell_length_a   9.17596274
_cell_length_b   9.17244617
_cell_length_c   10.03222386
_cell_angle_alpha   89.49490662
_cell_angle_beta   89.29801602
_cell_angle_gamma   60.02563948
_symmetry_Int_Tables_number   1
_chemical_formula_structural   Al31B5N36
_chemical_formula_sum   'Al31 B5 N36'
_cell_volume   731.37836304
_cell_formula_units_Z   1
loop_
 _symmetry_equiv_pos_site_id
 _symmetry_equiv_pos_as_xyz
  1  'x, y, z'
loop_
 _atom_site_type_symbol
 _atom_site_label
 _atom_site_symmetry_multiplicity
 _atom_site_fract_x
 _atom_site_fract_y
 _atom_site_fract_z
 _atom_site_occupancy
  Al  Al0  1  0.10033251  0.09434475  0.39719118  1
  Al  Al1  1  0.22602193  0.19883607  0.14196728  1
  Al  Al2  1  0.78116381  0.09059015  0.85291089  1
  Al  Al3  1  0.44864979  0.09121736  0.38587942  1
  Al  Al4  1  0.55799502  0.20372444  0.06409652  1
  Al  Al5  1  0.11499807  0.08987735  0.88736888  1
  Al  Al6  1  0.21862193  0.20704765  0.64053574  1
  Al  Al7  1  0.88566548  0.20293120  0.13223686  1
  Al  Al8  1  0.43890841  0.07862109  0.89324193  1
  Al  Al9  1  0.57982134  0.19722758  0.57620110  1
  Al  Al10  1  0.11063949  0.42903851  0.39163206  1
  Al  Al11  1  0.21524319  0.54287338  0.14150352  1
  Al  Al12  1  0.78054193  0.42715838  0.88167107  1
  Al  Al13  1  0.88673861  0.53960328  0.63980060  1
  Al  Al14  1  0.46009832  0.41973700  0.31806231  1
  Al  Al15  1  0.54657831  0.55722029  0.07277168  1
  Al  Al16  1  0.11068277  0.42651073  0.89214423  1
  Al  Al17  1  0.20838482  0.54673561  0.63947520  1
  Al  Al18  1  0.78895749  0.41161754  0.39265511  1
  Al  Al19  1  0.87891144  0.54439270  0.14161555  1
  Al  Al20  1  0.44695204  0.42923553  0.81631438  1
  Al  Al21  1  0.55364867  0.53744065  0.56721982  1
  Al  Al22  1  0.09948905  0.77268127  0.39653302  1
  Al  Al23  1  0.22422035  0.87538407  0.14364584  1
  Al  Al24  1  0.76946712  0.76028731  0.89026437  1
  Al  Al25  1  0.44684518  0.76589881  0.35891312  1
  Al  Al26  1  0.11512988  0.75789706  0.88848757  1
  Al  Al27  1  0.21852045  0.87516874  0.63622631  1
  Al  Al28  1  0.77594473  0.77384781  0.39203663  1
  Al  Al29  1  0.87994261  0.87963183  0.13451371  1
  Al  Al30  1  0.55625950  0.87331876  0.63643432  1
  B  B31  1  0.89657689  0.19471224  0.65015837  1
  B  B32  1  0.78014937  0.09391148  0.35080881  1
  B  B33  1  0.89517924  0.87911767  0.65125369  1
  B  B34  1  0.55525327  0.87350003  0.14929650  1
  B  B35  1  0.44276605  0.75947055  0.84934766  1
  N  N36  1  0.21947581  0.20449128  0.33211049  1
  N  N37  1  0.11065685  0.09461148  0.07607367  1
  N  N38  1  0.89641169  0.20712597  0.81141773  1
  N  N39  1  0.80476675  0.08061449  0.62744309  1
  N  N40  1  0.59191282  0.19069076  0.37480359  1
  N  N41  1  0.45591011  0.06672270  0.08780792  1
  N  N42  1  0.22246743  0.20441006  0.82940277  1
  N  N43  1  0.08677070  0.10612449  0.58884908  1
  N  N44  1  0.87565761  0.18948924  0.32617918  1
  N  N45  1  0.78900412  0.08926036  0.05946712  1
  N  N46  1  0.54583219  0.20764060  0.87222192  1
  N  N47  1  0.44313989  0.09557467  0.57709721  1
  N  N48  1  0.21771842  0.54561017  0.33435397  1
  N  N49  1  0.10967397  0.42692213  0.08192698  1
  N  N50  1  0.88879155  0.54018541  0.82824149  1
  N  N51  1  0.79393204  0.39697493  0.58737749  1
  N  N52  1  0.56056832  0.53402436  0.37570719  1
  N  N53  1  0.45129354  0.42489297  0.12751302  1
  N  N54  1  0.21581280  0.54041785  0.82967588  1
  N  N55  1  0.10886166  0.42827892  0.57851713  1
  N  N56  1  0.88600157  0.54198959  0.33270376  1
  N  N57  1  0.78091584  0.42476129  0.07358679  1
  N  N58  1  0.53537403  0.57056095  0.87245039  1
  N  N59  1  0.44725642  0.42511657  0.62635364  1
  N  N60  1  0.21378319  0.87727563  0.33371043  1
  N  N61  1  0.11086580  0.76315802  0.07797473  1
  N  N62  1  0.89360332  0.85991663  0.81405289  1
  N  N63  1  0.78673867  0.77723632  0.58475133  1
  N  N64  1  0.56414716  0.87884101  0.31247002  1
  N  N65  1  0.45739030  0.77550464  0.12727331  1
  N  N66  1  0.25078542  0.85614244  0.83015968  1
  N  N67  1  0.08477205  0.77744031  0.58870330  1
  N  N68  1  0.87426372  0.90393077  0.32811237  1
  N  N69  1  0.75369386  0.77426897  0.08429653  1
  N  N70  1  0.54022826  0.85338427  0.82847023  1
  N  N71  1  0.44000376  0.77237507  0.56816263  1
