# generated using pymatgen
data_Al31B5N36
_symmetry_space_group_name_H-M   'P 1'
_cell_length_a   9.17734612
_cell_length_b   9.15467092
_cell_length_c   10.15277236
_cell_angle_alpha   89.62135362
_cell_angle_beta   89.46107900
_cell_angle_gamma   60.29579278
_symmetry_Int_Tables_number   1
_chemical_formula_structural   Al31B5N36
_chemical_formula_sum   'Al31 B5 N36'
_cell_volume   740.86927401
_cell_formula_units_Z   1
loop_
 _symmetry_equiv_pos_site_id
 _symmetry_equiv_pos_as_xyz
  1  'x, y, z'
loop_
 _atom_site_type_symbol
 _atom_site_label
 _atom_site_symmetry_multiplicity
 _atom_site_fract_x
 _atom_site_fract_y
 _atom_site_fract_z
 _atom_site_occupancy
  Al  Al0  1  0.09659541  0.10312843  0.39542102  1
  Al  Al1  1  0.22483941  0.19962463  0.14058961  1
  Al  Al2  1  0.78075800  0.08864304  0.86562851  1
  Al  Al3  1  0.44660831  0.09170256  0.38255232  1
  Al  Al4  1  0.55479672  0.20706286  0.06588279  1
  Al  Al5  1  0.10974243  0.09667407  0.87987515  1
  Al  Al6  1  0.21739838  0.20559478  0.63901667  1
  Al  Al7  1  0.88700681  0.20746502  0.13376841  1
  Al  Al8  1  0.43884761  0.07764946  0.89370413  1
  Al  Al9  1  0.57753122  0.19385904  0.57160469  1
  Al  Al10  1  0.11074909  0.43154723  0.39093365  1
  Al  Al11  1  0.22283574  0.53522254  0.13902708  1
  Al  Al12  1  0.78020555  0.42553011  0.87677907  1
  Al  Al13  1  0.88782774  0.54055756  0.63845071  1
  Al  Al14  1  0.46217896  0.42245148  0.32048375  1
  Al  Al15  1  0.55011471  0.55313327  0.06083282  1
  Al  Al16  1  0.10953473  0.42779251  0.89055081  1
  Al  Al17  1  0.20890098  0.54334715  0.63763520  1
  Al  Al18  1  0.78493252  0.41679324  0.39653830  1
  Al  Al19  1  0.87973582  0.54355928  0.14295585  1
  Al  Al20  1  0.45048604  0.42400992  0.81382813  1
  Al  Al21  1  0.55167716  0.53706615  0.57670511  1
  Al  Al22  1  0.10713494  0.77885949  0.31615101  1
  Al  Al23  1  0.24153079  0.86873380  0.06386860  1
  Al  Al24  1  0.76309592  0.75575671  0.89915574  1
  Al  Al25  1  0.44607243  0.76264287  0.31788760  1
  Al  Al26  1  0.11261884  0.76126234  0.84966679  1
  Al  Al27  1  0.21224203  0.87059745  0.57837335  1
  Al  Al28  1  0.77897331  0.77690423  0.38341128  1
  Al  Al29  1  0.88231802  0.87836989  0.09108244  1
  Al  Al30  1  0.55944875  0.87615748  0.64344207  1
  B  B31  1  0.89732234  0.19198064  0.64954728  1
  B  B32  1  0.78030252  0.09371312  0.34262668  1
  B  B33  1  0.89094983  0.88306273  0.60873267  1
  B  B34  1  0.56040465  0.87378201  0.14936537  1
  B  B35  1  0.44155535  0.75602961  0.80908202  1
  N  N36  1  0.21810180  0.20719435  0.32848026  1
  N  N37  1  0.10771664  0.10117762  0.07083361  1
  N  N38  1  0.89223142  0.20421797  0.80688569  1
  N  N39  1  0.80394853  0.07056671  0.62433631  1
  N  N40  1  0.59206343  0.19242332  0.37476617  1
  N  N41  1  0.45465155  0.06625849  0.08783338  1
  N  N42  1  0.22293846  0.20567259  0.82546065  1
  N  N43  1  0.08134389  0.10986719  0.58783304  1
  N  N44  1  0.87480712  0.19482161  0.32470894  1
  N  N45  1  0.78058349  0.10499415  0.06735467  1
  N  N46  1  0.54608416  0.20605980  0.87452458  1
  N  N47  1  0.43961719  0.09024964  0.57115104  1
  N  N48  1  0.22251417  0.54050718  0.33164007  1
  N  N49  1  0.10943279  0.42854658  0.07863623  1
  N  N50  1  0.88831624  0.54087812  0.82470338  1
  N  N51  1  0.79186944  0.39756075  0.58778119  1
  N  N52  1  0.55316785  0.54755316  0.38790924  1
  N  N53  1  0.45589923  0.42603842  0.13015219  1
  N  N54  1  0.22028267  0.53556930  0.82911340  1
  N  N55  1  0.10807668  0.42697394  0.57595762  1
  N  N56  1  0.88619729  0.54214985  0.33221182  1
  N  N57  1  0.78334305  0.42646797  0.06887744  1
  N  N58  1  0.53930954  0.56419911  0.86845387  1
  N  N59  1  0.44712100  0.41811447  0.62520205  1
  N  N60  1  0.22903844  0.87086450  0.38772932  1
  N  N61  1  0.11870056  0.76601021  0.11877098  1
  N  N62  1  0.89200040  0.85919635  0.88902159  1
  N  N63  1  0.78784569  0.78220520  0.57796817  1
  N  N64  1  0.56366519  0.87998711  0.31133267  1
  N  N65  1  0.45685168  0.77035516  0.13184159  1
  N  N66  1  0.25256152  0.85632191  0.87128046  1
  N  N67  1  0.07619837  0.77816372  0.61987634  1
  N  N68  1  0.87260128  0.90958766  0.32479552  1
  N  N69  1  0.74624159  0.77151252  0.09052433  1
  N  N70  1  0.54568228  0.85801651  0.82850034  1
  N  N71  1  0.43530414  0.75576287  0.64754013  1
