# generated using pymatgen
data_Al31B5N36
_symmetry_space_group_name_H-M   'P 1'
_cell_length_a   9.19681538
_cell_length_b   9.17457146
_cell_length_c   10.06621422
_cell_angle_alpha   90.10048816
_cell_angle_beta   89.97835298
_cell_angle_gamma   60.12596703
_symmetry_Int_Tables_number   1
_chemical_formula_structural   Al31B5N36
_chemical_formula_sum   'Al31 B5 N36'
_cell_volume   736.49329913
_cell_formula_units_Z   1
loop_
 _symmetry_equiv_pos_site_id
 _symmetry_equiv_pos_as_xyz
  1  'x, y, z'
loop_
 _atom_site_type_symbol
 _atom_site_label
 _atom_site_symmetry_multiplicity
 _atom_site_fract_x
 _atom_site_fract_y
 _atom_site_fract_z
 _atom_site_occupancy
  Al  Al0  1  0.10604844  0.08656595  0.32608251  1
  Al  Al1  1  0.22489965  0.20688168  0.14261670  1
  Al  Al2  1  0.78010278  0.08895357  0.82056306  1
  Al  Al3  1  0.46396452  0.08040205  0.33249446  1
  Al  Al4  1  0.56183324  0.20034213  0.07438255  1
  Al  Al5  1  0.10252061  0.09018638  0.81351824  1
  Al  Al6  1  0.21321099  0.21309507  0.63133115  1
  Al  Al7  1  0.88883973  0.20441687  0.07304352  1
  Al  Al8  1  0.44633113  0.08957689  0.81736732  1
  Al  Al9  1  0.57263859  0.19546792  0.56365925  1
  Al  Al10  1  0.11040587  0.42508791  0.38948123  1
  Al  Al11  1  0.22558925  0.54393404  0.06842443  1
  Al  Al12  1  0.77199876  0.43641048  0.88207423  1
  Al  Al13  1  0.89053952  0.53892214  0.64454177  1
  Al  Al14  1  0.45309772  0.42254321  0.31877111  1
  Al  Al15  1  0.54487902  0.55756772  0.06760278  1
  Al  Al16  1  0.10442588  0.42453151  0.89169101  1
  Al  Al17  1  0.22124283  0.54551333  0.57186585  1
  Al  Al18  1  0.78558530  0.41721562  0.39565837  1
  Al  Al19  1  0.87721813  0.54678263  0.14650167  1
  Al  Al20  1  0.44315118  0.43101110  0.81910751  1
  Al  Al21  1  0.55342024  0.53565780  0.57730173  1
  Al  Al22  1  0.11194948  0.76439766  0.31496972  1
  Al  Al23  1  0.23261105  0.87860070  0.06166063  1
  Al  Al24  1  0.75917422  0.76678989  0.89507846  1
  Al  Al25  1  0.45078630  0.76111495  0.32758734  1
  Al  Al26  1  0.10707038  0.76312528  0.82762631  1
  Al  Al27  1  0.21280075  0.87460823  0.57150522  1
  Al  Al28  1  0.78705984  0.76946863  0.39727893  1
  Al  Al29  1  0.88287499  0.88167757  0.10422179  1
  Al  Al30  1  0.55618855  0.87179571  0.60127316  1
  B  B31  1  0.89877852  0.18082102  0.56059642  1
  B  B32  1  0.78062981  0.09058549  0.31569136  1
  B  B33  1  0.89536756  0.87300530  0.60947173  1
  B  B34  1  0.55556437  0.87388199  0.11197119  1
  B  B35  1  0.44165253  0.76261611  0.80909057  1
  N  N36  1  0.22770560  0.20453372  0.33543292  1
  N  N37  1  0.10703445  0.09283743  0.13349828  1
  N  N38  1  0.88737217  0.20032440  0.88259094  1
  N  N39  1  0.80507684  0.07058408  0.62393631  1
  N  N40  1  0.58592648  0.19070221  0.37349566  1
  N  N41  1  0.46601754  0.06356277  0.13063748  1
  N  N42  1  0.21430931  0.20951007  0.82724786  1
  N  N43  1  0.08189198  0.10312840  0.61799980  1
  N  N44  1  0.88451067  0.17905688  0.39397551  1
  N  N45  1  0.77326300  0.11113457  0.15373528  1
  N  N46  1  0.55656150  0.20366568  0.88366970  1
  N  N47  1  0.44630528  0.10209788  0.62407101  1
  N  N48  1  0.22751624  0.54253115  0.37977623  1
  N  N49  1  0.10418119  0.42959274  0.08362223  1
  N  N50  1  0.88513904  0.54567073  0.83029228  1
  N  N51  1  0.79241688  0.40059040  0.58922772  1
  N  N52  1  0.55423923  0.53965853  0.38385199  1
  N  N53  1  0.44558779  0.42941603  0.12965836  1
  N  N54  1  0.22304845  0.53988796  0.87775848  1
  N  N55  1  0.10452661  0.43013127  0.57783297  1
  N  N56  1  0.88654906  0.54166925  0.33433142  1
  N  N57  1  0.77409953  0.43613404  0.07951951  1
  N  N58  1  0.53406217  0.57034648  0.87233264  1
  N  N59  1  0.44623824  0.42047017  0.63096514  1
  N  N60  1  0.22749424  0.86672562  0.38497436  1
  N  N61  1  0.12248996  0.76342476  0.12606830  1
  N  N62  1  0.88716295  0.87616280  0.89692409  1
  N  N63  1  0.80131216  0.77680445  0.59229681  1
  N  N64  1  0.55601577  0.86729061  0.40173196  1
  N  N65  1  0.45701504  0.78166946  0.13423503  1
  N  N66  1  0.24322513  0.86378277  0.86969810  1
  N  N67  1  0.08375149  0.77457295  0.63222767  1
  N  N68  1  0.87792785  0.89338654  0.33106361  1
  N  N69  1  0.74231722  0.77696352  0.09111330  1
  N  N70  1  0.54213303  0.85848028  0.83251452  1
  N  N71  1  0.43432237  0.75647207  0.64627014  1
