# generated using pymatgen
data_Al31B5N36
_symmetry_space_group_name_H-M   'P 1'
_cell_length_a   9.18653588
_cell_length_b   9.13830245
_cell_length_c   10.17160722
_cell_angle_alpha   89.55681232
_cell_angle_beta   89.68259250
_cell_angle_gamma   60.17371434
_symmetry_Int_Tables_number   1
_chemical_formula_structural   Al31B5N36
_chemical_formula_sum   'Al31 B5 N36'
_cell_volume   740.76636512
_cell_formula_units_Z   1
loop_
 _symmetry_equiv_pos_site_id
 _symmetry_equiv_pos_as_xyz
  1  'x, y, z'
loop_
 _atom_site_type_symbol
 _atom_site_label
 _atom_site_symmetry_multiplicity
 _atom_site_fract_x
 _atom_site_fract_y
 _atom_site_fract_z
 _atom_site_occupancy
  Al  Al0  1  0.10281222  0.08659384  0.31439301  1
  Al  Al1  1  0.22993305  0.20382124  0.13887710  1
  Al  Al2  1  0.78007391  0.08943029  0.82435550  1
  Al  Al3  1  0.44756584  0.08914494  0.39366041  1
  Al  Al4  1  0.55954721  0.20367176  0.06898248  1
  Al  Al5  1  0.10676621  0.08967881  0.81938993  1
  Al  Al6  1  0.22115668  0.21507227  0.63977822  1
  Al  Al7  1  0.88818609  0.20311679  0.07683443  1
  Al  Al8  1  0.44236012  0.08067220  0.88037227  1
  Al  Al9  1  0.57848177  0.20163595  0.56224953  1
  Al  Al10  1  0.10994248  0.42301695  0.38691475  1
  Al  Al11  1  0.22440039  0.54414058  0.06614145  1
  Al  Al12  1  0.77328163  0.43519338  0.88440921  1
  Al  Al13  1  0.89229462  0.53941031  0.64082154  1
  Al  Al14  1  0.45365717  0.41984333  0.31636583  1
  Al  Al15  1  0.54402891  0.55668295  0.06506096  1
  Al  Al16  1  0.10441065  0.42581390  0.89089220  1
  Al  Al17  1  0.22092585  0.54696033  0.56683842  1
  Al  Al18  1  0.78627295  0.40796015  0.38910403  1
  Al  Al19  1  0.87595156  0.54519994  0.14659942  1
  Al  Al20  1  0.44311587  0.43167130  0.81512299  1
  Al  Al21  1  0.55194160  0.53796016  0.57209695  1
  Al  Al22  1  0.11118023  0.76497859  0.31197131  1
  Al  Al23  1  0.23328649  0.87567606  0.05897922  1
  Al  Al24  1  0.76411805  0.76326968  0.88946468  1
  Al  Al25  1  0.45099370  0.76120258  0.32453964  1
  Al  Al26  1  0.10986629  0.76287413  0.82442801  1
  Al  Al27  1  0.21179006  0.87981068  0.56830215  1
  Al  Al28  1  0.78520802  0.77118171  0.39414321  1
  Al  Al29  1  0.88137024  0.87771870  0.10328583  1
  Al  Al30  1  0.55754878  0.87541316  0.61520019  1
  B  B31  1  0.89785941  0.19309306  0.59680174  1
  B  B32  1  0.77948059  0.09314635  0.30429951  1
  B  B33  1  0.89840727  0.87539690  0.61077772  1
  B  B34  1  0.55247242  0.87204423  0.10208589  1
  B  B35  1  0.44228923  0.75990949  0.80474167  1
  N  N36  1  0.22886472  0.20303961  0.32611413  1
  N  N37  1  0.11136321  0.09050013  0.12408803  1
  N  N38  1  0.89008543  0.19918552  0.88385418  1
  N  N39  1  0.80844066  0.07769483  0.62785264  1
  N  N40  1  0.58654483  0.18983492  0.37103834  1
  N  N41  1  0.45567911  0.06206722  0.07745492  1
  N  N42  1  0.22170734  0.20856353  0.82721114  1
  N  N43  1  0.08314412  0.10714980  0.62597580  1
  N  N44  1  0.87818957  0.18350777  0.35356448  1
  N  N45  1  0.76737875  0.10641745  0.14281435  1
  N  N46  1  0.55679517  0.20707584  0.87928446  1
  N  N47  1  0.43949212  0.10699624  0.58370633  1
  N  N48  1  0.22723242  0.54192516  0.37757524  1
  N  N49  1  0.10227345  0.42966443  0.08016536  1
  N  N50  1  0.88681758  0.54234403  0.82476237  1
  N  N51  1  0.79487171  0.39153947  0.58817448  1
  N  N52  1  0.55345531  0.53873585  0.38327010  1
  N  N53  1  0.44383214  0.42948957  0.12834401  1
  N  N54  1  0.22430641  0.54007267  0.87669666  1
  N  N55  1  0.10518802  0.42904934  0.57503886  1
  N  N56  1  0.88581404  0.53969783  0.33366896  1
  N  N57  1  0.77307199  0.43607573  0.07649983  1
  N  N58  1  0.53556360  0.57038723  0.87005461  1
  N  N59  1  0.44464361  0.42370537  0.62945918  1
  N  N60  1  0.22572410  0.86938423  0.38317115  1
  N  N61  1  0.12197032  0.76266794  0.12386409  1
  N  N62  1  0.89066264  0.87266704  0.89284149  1
  N  N63  1  0.80197697  0.78228865  0.59079373  1
  N  N64  1  0.55913079  0.86005056  0.39727791  1
  N  N65  1  0.45602304  0.77962068  0.13151349  1
  N  N66  1  0.24816619  0.86160738  0.86845318  1
  N  N67  1  0.08581613  0.77623185  0.63048088  1
  N  N68  1  0.87773757  0.89146176  0.32231460  1
  N  N69  1  0.73966604  0.77453530  0.08412903  1
  N  N70  1  0.54707740  0.86031610  0.81794672  1
  N  N71  1  0.43356988  0.75654432  0.64474546  1
