# generated using pymatgen
data_Al31B5N36
_symmetry_space_group_name_H-M   'P 1'
_cell_length_a   9.19205934
_cell_length_b   9.22465844
_cell_length_c   9.99461884
_cell_angle_alpha   89.92883825
_cell_angle_beta   89.86490172
_cell_angle_gamma   60.12338055
_symmetry_Int_Tables_number   1
_chemical_formula_structural   Al31B5N36
_chemical_formula_sum   'Al31 B5 N36'
_cell_volume   734.84775909
_cell_formula_units_Z   1
loop_
 _symmetry_equiv_pos_site_id
 _symmetry_equiv_pos_as_xyz
  1  'x, y, z'
loop_
 _atom_site_type_symbol
 _atom_site_label
 _atom_site_symmetry_multiplicity
 _atom_site_fract_x
 _atom_site_fract_y
 _atom_site_fract_z
 _atom_site_occupancy
  Al  Al0  1  0.10937576  0.08755961  0.32470835  1
  Al  Al1  1  0.22763588  0.19580228  0.07852412  1
  Al  Al2  1  0.78234110  0.08904727  0.82298676  1
  Al  Al3  1  0.45706682  0.08207480  0.32961497  1
  Al  Al4  1  0.56151002  0.20161352  0.07638594  1
  Al  Al5  1  0.10774730  0.09394557  0.81540663  1
  Al  Al6  1  0.21840595  0.19944841  0.56840881  1
  Al  Al7  1  0.88813843  0.20626030  0.07371696  1
  Al  Al8  1  0.44035626  0.09395096  0.81932263  1
  Al  Al9  1  0.56977008  0.19593824  0.56580203  1
  Al  Al10  1  0.10776842  0.43052382  0.38455987  1
  Al  Al11  1  0.22633087  0.54423206  0.07342656  1
  Al  Al12  1  0.77251660  0.43704470  0.87621240  1
  Al  Al13  1  0.89168189  0.54457732  0.64768101  1
  Al  Al14  1  0.45478486  0.42227129  0.32076887  1
  Al  Al15  1  0.54722875  0.55737539  0.06845868  1
  Al  Al16  1  0.10320125  0.43198029  0.89326970  1
  Al  Al17  1  0.22213786  0.54186781  0.57507106  1
  Al  Al18  1  0.78691455  0.41836312  0.40972490  1
  Al  Al19  1  0.87689484  0.54602928  0.14846915  1
  Al  Al20  1  0.44476425  0.43132110  0.82132773  1
  Al  Al21  1  0.54978662  0.54257960  0.58188692  1
  Al  Al22  1  0.11123490  0.76511130  0.31751758  1
  Al  Al23  1  0.23191005  0.87706056  0.06484073  1
  Al  Al24  1  0.75808622  0.76912148  0.89716980  1
  Al  Al25  1  0.45221948  0.75942396  0.33066343  1
  Al  Al26  1  0.10784627  0.76460411  0.83063626  1
  Al  Al27  1  0.21384524  0.87018104  0.57330907  1
  Al  Al28  1  0.78378904  0.77067748  0.39955802  1
  Al  Al29  1  0.88205948  0.88215776  0.10705381  1
  Al  Al30  1  0.55565172  0.87178558  0.60899437  1
  B  B31  1  0.91187105  0.14650970  0.55634796  1
  B  B32  1  0.77771255  0.08905544  0.31705008  1
  B  B33  1  0.89694789  0.86926508  0.61140276  1
  B  B34  1  0.55484196  0.87361929  0.11475236  1
  B  B35  1  0.43912670  0.76455939  0.81055586  1
  N  N36  1  0.22669952  0.19758316  0.37535340  1
  N  N37  1  0.10839379  0.09420794  0.13597879  1
  N  N38  1  0.88937595  0.20080290  0.88173302  1
  N  N39  1  0.80911710  0.06626931  0.62318085  1
  N  N40  1  0.58330020  0.18942385  0.37435302  1
  N  N41  1  0.46188848  0.06515558  0.13223589  1
  N  N42  1  0.22095318  0.19999590  0.88300387  1
  N  N43  1  0.08329278  0.09996572  0.62026335  1
  N  N44  1  0.88676032  0.17547802  0.40114745  1
  N  N45  1  0.77360758  0.11149744  0.15560228  1
  N  N46  1  0.55765825  0.20362039  0.88389622  1
  N  N47  1  0.43902682  0.10511160  0.62969786  1
  N  N48  1  0.22784208  0.54298183  0.38060997  1
  N  N49  1  0.10515491  0.43257590  0.09257283  1
  N  N50  1  0.88629974  0.54936045  0.83480815  1
  N  N51  1  0.77992159  0.43121805  0.59934812  1
  N  N52  1  0.55522668  0.53824074  0.38585586  1
  N  N53  1  0.44775818  0.42954540  0.13064815  1
  N  N54  1  0.22449405  0.54169747  0.88012049  1
  N  N55  1  0.10642454  0.42796879  0.58369392  1
  N  N56  1  0.88325325  0.54335645  0.33719385  1
  N  N57  1  0.77587735  0.43578463  0.07857876  1
  N  N58  1  0.53355243  0.57229490  0.87314104  1
  N  N59  1  0.44810100  0.41996008  0.63224607  1
  N  N60  1  0.22667559  0.86702610  0.38561410  1
  N  N61  1  0.12185018  0.76393266  0.12796510  1
  N  N62  1  0.88707744  0.87732318  0.89909929  1
  N  N63  1  0.80090947  0.77960721  0.59536479  1
  N  N64  1  0.55315324  0.87009671  0.40433113  1
  N  N65  1  0.45708145  0.78147132  0.13564087  1
  N  N66  1  0.24273080  0.86545630  0.87182264  1
  N  N67  1  0.08468227  0.77210307  0.63376862  1
  N  N68  1  0.87641725  0.89334445  0.33243245  1
  N  N69  1  0.74079616  0.77845958  0.09423497  1
  N  N70  1  0.54224130  0.86022259  0.83021543  1
  N  N71  1  0.42850971  0.76090447  0.64869290  1
