# generated using pymatgen
data_Al31B5N36
_symmetry_space_group_name_H-M   'P 1'
_cell_length_a   9.20467781
_cell_length_b   9.26100549
_cell_length_c   9.94277598
_cell_angle_alpha   89.70850043
_cell_angle_beta   89.63499946
_cell_angle_gamma   60.08415060
_symmetry_Int_Tables_number   1
_chemical_formula_structural   Al31B5N36
_chemical_formula_sum   'Al31 B5 N36'
_cell_volume   734.62007276
_cell_formula_units_Z   1
loop_
 _symmetry_equiv_pos_site_id
 _symmetry_equiv_pos_as_xyz
  1  'x, y, z'
loop_
 _atom_site_type_symbol
 _atom_site_label
 _atom_site_symmetry_multiplicity
 _atom_site_fract_x
 _atom_site_fract_y
 _atom_site_fract_z
 _atom_site_occupancy
  Al  Al0  1  0.10870925  0.08855397  0.32347129  1
  Al  Al1  1  0.22734107  0.19447038  0.08013524  1
  Al  Al2  1  0.78224870  0.08750567  0.82395087  1
  Al  Al3  1  0.45694786  0.08149531  0.32948192  1
  Al  Al4  1  0.56123339  0.20174209  0.07642488  1
  Al  Al5  1  0.10707687  0.09282259  0.81731429  1
  Al  Al6  1  0.21786568  0.19929973  0.56824367  1
  Al  Al7  1  0.88439916  0.21283808  0.07120269  1
  Al  Al8  1  0.43952742  0.09335485  0.81991953  1
  Al  Al9  1  0.56990092  0.19550930  0.56537555  1
  Al  Al10  1  0.11055136  0.43005581  0.38207735  1
  Al  Al11  1  0.22785610  0.54284873  0.07535551  1
  Al  Al12  1  0.76903581  0.43519116  0.82711290  1
  Al  Al13  1  0.89585464  0.55544709  0.64778663  1
  Al  Al14  1  0.45869141  0.42258576  0.31977757  1
  Al  Al15  1  0.55609199  0.55353861  0.06320171  1
  Al  Al16  1  0.10124576  0.43140628  0.89706880  1
  Al  Al17  1  0.22372728  0.54026617  0.57442033  1
  Al  Al18  1  0.78843213  0.42012892  0.41852148  1
  Al  Al19  1  0.87653181  0.54439980  0.15242786  1
  Al  Al20  1  0.44299867  0.43012371  0.82258249  1
  Al  Al21  1  0.54252404  0.54950345  0.58418246  1
  Al  Al22  1  0.11167875  0.76518680  0.31706470  1
  Al  Al23  1  0.23275750  0.87549704  0.06619041  1
  Al  Al24  1  0.75738639  0.76690349  0.89983796  1
  Al  Al25  1  0.45429169  0.75765055  0.33002286  1
  Al  Al26  1  0.10783064  0.76316508  0.83230395  1
  Al  Al27  1  0.21307665  0.86969337  0.57253440  1
  Al  Al28  1  0.78351629  0.77216511  0.39920991  1
  Al  Al29  1  0.88250265  0.88189312  0.10617487  1
  Al  Al30  1  0.55496753  0.87211034  0.60965893  1
  B  B31  1  0.91973644  0.13022664  0.55392006  1
  B  B32  1  0.77463380  0.08778390  0.31367590  1
  B  B33  1  0.89772756  0.86889650  0.61165580  1
  B  B34  1  0.55531875  0.87248382  0.11546204  1
  B  B35  1  0.43670719  0.76590798  0.81011451  1
  N  N36  1  0.22659130  0.19742685  0.37449643  1
  N  N37  1  0.10675206  0.09325007  0.13416855  1
  N  N38  1  0.88491521  0.20537824  0.87736004  1
  N  N39  1  0.81106499  0.06321118  0.62256345  1
  N  N40  1  0.58362026  0.18893797  0.37301380  1
  N  N41  1  0.46203864  0.06400655  0.13201631  1
  N  N42  1  0.21951222  0.19992654  0.88324174  1
  N  N43  1  0.08203991  0.09868794  0.62053643  1
  N  N44  1  0.88809139  0.17748396  0.40611620  1
  N  N45  1  0.77412204  0.11036997  0.15357713  1
  N  N46  1  0.55700398  0.20236112  0.88304373  1
  N  N47  1  0.43872832  0.10511698  0.62908063  1
  N  N48  1  0.23037595  0.54269860  0.37953361  1
  N  N49  1  0.10725471  0.43075406  0.09727053  1
  N  N50  1  0.88727615  0.55040886  0.83594143  1
  N  N51  1  0.76945276  0.45190687  0.61626599  1
  N  N52  1  0.55712066  0.53793885  0.39113188  1
  N  N53  1  0.45008598  0.42963471  0.12896341  1
  N  N54  1  0.22325932  0.54054004  0.88112117  1
  N  N55  1  0.10792875  0.42697265  0.58305382  1
  N  N56  1  0.88417610  0.54489632  0.34392221  1
  N  N57  1  0.77632253  0.43381504  0.09522253  1
  N  N58  1  0.53444177  0.57064875  0.86865013  1
  N  N59  1  0.44896341  0.41897439  0.63234470  1
  N  N60  1  0.22687216  0.86732285  0.38419694  1
  N  N61  1  0.12180336  0.76276888  0.12736913  1
  N  N62  1  0.88627682  0.87650050  0.89932621  1
  N  N63  1  0.80008660  0.78346913  0.59526463  1
  N  N64  1  0.55324094  0.86977412  0.40430484  1
  N  N65  1  0.45838211  0.77968365  0.13425570  1
  N  N66  1  0.24188368  0.86465366  0.87269828  1
  N  N67  1  0.08530665  0.77046736  0.63359925  1
  N  N68  1  0.87658733  0.89467400  0.33274849  1
  N  N69  1  0.74158954  0.77791482  0.09710650  1
  N  N70  1  0.54191088  0.85958309  0.83004686  1
  N  N71  1  0.42359555  0.76618453  0.64887546  1
