# generated using pymatgen
data_Al31B5N36
_symmetry_space_group_name_H-M   'P 1'
_cell_length_a   9.17011666
_cell_length_b   9.16600738
_cell_length_c   9.79833690
_cell_angle_alpha   90.05217713
_cell_angle_beta   90.23015788
_cell_angle_gamma   60.05855729
_symmetry_Int_Tables_number   1
_chemical_formula_structural   Al31B5N36
_chemical_formula_sum   'Al31 B5 N36'
_cell_volume   713.65805341
_cell_formula_units_Z   1
loop_
 _symmetry_equiv_pos_site_id
 _symmetry_equiv_pos_as_xyz
  1  'x, y, z'
loop_
 _atom_site_type_symbol
 _atom_site_label
 _atom_site_symmetry_multiplicity
 _atom_site_fract_x
 _atom_site_fract_y
 _atom_site_fract_z
 _atom_site_occupancy
  Al  Al0  1  0.10687079  0.09194433  0.31324852  1
  Al  Al1  1  0.22462262  0.19950302  0.05700515  1
  Al  Al2  1  0.78266484  0.09182386  0.80030128  1
  Al  Al3  1  0.45238275  0.08698022  0.30256161  1
  Al  Al4  1  0.56354371  0.19711513  0.06366533  1
  Al  Al5  1  0.10843573  0.09417356  0.80205980  1
  Al  Al6  1  0.21820348  0.20686468  0.55622675  1
  Al  Al7  1  0.88745604  0.20234489  0.06490692  1
  Al  Al8  1  0.44514300  0.08866311  0.81422946  1
  Al  Al9  1  0.56650756  0.19921049  0.55371089  1
  Al  Al10  1  0.11056893  0.42827937  0.30511106  1
  Al  Al11  1  0.22159884  0.54075956  0.05651475  1
  Al  Al12  1  0.77650417  0.42560739  0.80214731  1
  Al  Al13  1  0.88837545  0.54118600  0.55740079  1
  Al  Al14  1  0.44996341  0.42490855  0.30720207  1
  Al  Al15  1  0.55635022  0.54674110  0.05286307  1
  Al  Al16  1  0.10960023  0.42814581  0.80691317  1
  Al  Al17  1  0.21613452  0.54324463  0.55589696  1
  Al  Al18  1  0.77677379  0.42190573  0.31489684  1
  Al  Al19  1  0.88111155  0.54329142  0.05688253  1
  Al  Al20  1  0.44387071  0.43129228  0.80734189  1
  Al  Al21  1  0.55717515  0.53778896  0.56253418  1
  Al  Al22  1  0.10658841  0.76806070  0.31317929  1
  Al  Al23  1  0.22966787  0.87163699  0.05228555  1
  Al  Al24  1  0.77352736  0.76600435  0.80949130  1
  Al  Al25  1  0.44761776  0.76357842  0.30441635  1
  Al  Al26  1  0.10820949  0.76423927  0.80255474  1
  Al  Al27  1  0.21757865  0.87529610  0.56270092  1
  Al  Al28  1  0.77205854  0.77036425  0.30967845  1
  Al  Al29  1  0.88287473  0.87642426  0.06467436  1
  Al  Al30  1  0.55855448  0.87449508  0.56402283  1
  B  B31  1  0.89025403  0.19175586  0.54852805  1
  B  B32  1  0.77871351  0.09317979  0.31645348  1
  B  B33  1  0.88954854  0.88449332  0.55012417  1
  B  B34  1  0.55227830  0.86787453  0.05228290  1
  B  B35  1  0.44596292  0.76072879  0.80861401  1
  N  N36  1  0.22552545  0.20418138  0.36308793  1
  N  N37  1  0.11120154  0.09169477  0.11986019  1
  N  N38  1  0.88746269  0.20391916  0.87210446  1
  N  N39  1  0.80185245  0.08243270  0.60550657  1
  N  N40  1  0.57946815  0.19221572  0.35927329  1
  N  N41  1  0.45784155  0.06732139  0.10590007  1
  N  N42  1  0.21968065  0.20475571  0.86482934  1
  N  N43  1  0.08425928  0.10739849  0.60606635  1
  N  N44  1  0.87792965  0.19155038  0.38070497  1
  N  N45  1  0.78172696  0.09176151  0.14788155  1
  N  N46  1  0.56140562  0.20344907  0.86825744  1
  N  N47  1  0.44363276  0.09734358  0.62019580  1
  N  N48  1  0.22308565  0.53882607  0.36436513  1
  N  N49  1  0.10987257  0.42777777  0.11300077  1
  N  N50  1  0.88533426  0.54010860  0.86273271  1
  N  N51  1  0.78958580  0.39998674  0.60708451  1
  N  N52  1  0.55312770  0.54328644  0.36971672  1
  N  N53  1  0.44699481  0.42799457  0.11354077  1
  N  N54  1  0.22035263  0.54169288  0.86384489  1
  N  N55  1  0.10984159  0.42838611  0.61577285  1
  N  N56  1  0.88749165  0.54176300  0.36479728  1
  N  N57  1  0.77665883  0.42606807  0.12053364  1
  N  N58  1  0.54488471  0.56276636  0.85786715  1
  N  N59  1  0.44318841  0.42633634  0.61455080  1
  N  N60  1  0.22847679  0.86919973  0.37086030  1
  N  N61  1  0.11135793  0.76358449  0.11878914  1
  N  N62  1  0.88813047  0.87583231  0.87309978  1
  N  N63  1  0.78903858  0.77876596  0.61237559  1
  N  N64  1  0.55448753  0.87212646  0.37442861  1
  N  N65  1  0.45707687  0.77384087  0.11109202  1
  N  N66  1  0.24488102  0.86077328  0.85535671  1
  N  N67  1  0.08413161  0.77608911  0.60649135  1
  N  N68  1  0.87703757  0.89622309  0.37942240  1
  N  N69  1  0.75143890  0.77446700  0.11076166  1
  N  N70  1  0.54496529  0.85947448  0.87791924  1
  N  N71  1  0.44741049  0.76286119  0.64083403  1
