# generated using pymatgen
data_Al31B5N36
_symmetry_space_group_name_H-M   'P 1'
_cell_length_a   9.16209494
_cell_length_b   9.15334562
_cell_length_c   10.12236502
_cell_angle_alpha   89.62700278
_cell_angle_beta   89.29344369
_cell_angle_gamma   60.21195990
_symmetry_Int_Tables_number   1
_chemical_formula_structural   Al31B5N36
_chemical_formula_sum   'Al31 B5 N36'
_cell_volume   736.67823704
_cell_formula_units_Z   1
loop_
 _symmetry_equiv_pos_site_id
 _symmetry_equiv_pos_as_xyz
  1  'x, y, z'
loop_
 _atom_site_type_symbol
 _atom_site_label
 _atom_site_symmetry_multiplicity
 _atom_site_fract_x
 _atom_site_fract_y
 _atom_site_fract_z
 _atom_site_occupancy
  Al  Al0  1  0.09832909  0.10159236  0.39633737  1
  Al  Al1  1  0.22490356  0.19973959  0.14005908  1
  Al  Al2  1  0.78029818  0.09008947  0.86144256  1
  Al  Al3  1  0.44725259  0.09019557  0.38220499  1
  Al  Al4  1  0.55660728  0.20561656  0.06564881  1
  Al  Al5  1  0.10962446  0.09742056  0.87724464  1
  Al  Al6  1  0.21837376  0.20747536  0.63873573  1
  Al  Al7  1  0.88711580  0.20391322  0.13121327  1
  Al  Al8  1  0.43920741  0.07833217  0.89344911  1
  Al  Al9  1  0.57989216  0.19320295  0.57128996  1
  Al  Al10  1  0.10987175  0.43052071  0.38966320  1
  Al  Al11  1  0.21725366  0.54377185  0.14078048  1
  Al  Al12  1  0.77933974  0.42710726  0.87675667  1
  Al  Al13  1  0.88664251  0.53972533  0.63860715  1
  Al  Al14  1  0.46055072  0.42369067  0.32067815  1
  Al  Al15  1  0.54900164  0.55262442  0.06077936  1
  Al  Al16  1  0.11088526  0.42768632  0.89047373  1
  Al  Al17  1  0.20791236  0.54562154  0.63802659  1
  Al  Al18  1  0.78505908  0.41634118  0.39530782  1
  Al  Al19  1  0.88051957  0.54337067  0.13955879  1
  Al  Al20  1  0.44846351  0.42631024  0.81284613  1
  Al  Al21  1  0.55240246  0.53674728  0.57621597  1
  Al  Al22  1  0.09936572  0.77128907  0.39448813  1
  Al  Al23  1  0.24036045  0.86920502  0.06126272  1
  Al  Al24  1  0.76805554  0.76135437  0.89021084  1
  Al  Al25  1  0.44481493  0.76281425  0.31618014  1
  Al  Al26  1  0.11075320  0.75769486  0.88160227  1
  Al  Al27  1  0.21717403  0.87476800  0.58705303  1
  Al  Al28  1  0.77574434  0.77356802  0.38963768  1
  Al  Al29  1  0.88285353  0.87940266  0.13378540  1
  Al  Al30  1  0.55986266  0.87468177  0.64422761  1
  B  B31  1  0.89411842  0.19361430  0.64798572  1
  B  B32  1  0.78087212  0.09493839  0.35070411  1
  B  B33  1  0.89332538  0.88086709  0.64716153  1
  B  B34  1  0.56058734  0.87621118  0.14633690  1
  B  B35  1  0.44126433  0.75659474  0.80927355  1
  N  N36  1  0.21884829  0.20653234  0.32801884  1
  N  N37  1  0.10820489  0.10054622  0.07037615  1
  N  N38  1  0.89106265  0.20688999  0.80755878  1
  N  N39  1  0.80556067  0.07803983  0.61767269  1
  N  N40  1  0.59144985  0.19182501  0.37253887  1
  N  N41  1  0.45565388  0.06594212  0.08766501  1
  N  N42  1  0.22389243  0.20661313  0.82544936  1
  N  N43  1  0.08239843  0.11187061  0.58951985  1
  N  N44  1  0.87523750  0.19257543  0.32438480  1
  N  N45  1  0.78838817  0.09005112  0.06095279  1
  N  N46  1  0.54519890  0.20878604  0.87577342  1
  N  N47  1  0.44142377  0.08919907  0.57082887  1
  N  N48  1  0.21763598  0.54711746  0.33153682  1
  N  N49  1  0.11164003  0.42763907  0.07940442  1
  N  N50  1  0.88931235  0.54053128  0.82611485  1
  N  N51  1  0.79222495  0.39717310  0.58680279  1
  N  N52  1  0.55300108  0.54752452  0.38670898  1
  N  N53  1  0.45425959  0.42599363  0.13114719  1
  N  N54  1  0.21627706  0.54015874  0.82533637  1
  N  N55  1  0.10819438  0.42776045  0.57488444  1
  N  N56  1  0.88557024  0.54186905  0.32977300  1
  N  N57  1  0.78242342  0.42470096  0.06967198  1
  N  N58  1  0.53798735  0.56486877  0.86906542  1
  N  N59  1  0.44691731  0.41817200  0.62378815  1
  N  N60  1  0.23256253  0.87125365  0.39107938  1
  N  N61  1  0.10931898  0.76127092  0.07429348  1
  N  N62  1  0.88944359  0.86327761  0.81221399  1
  N  N63  1  0.78389426  0.77549889  0.57990955  1
  N  N64  1  0.56557217  0.87877071  0.30814237  1
  N  N65  1  0.45627799  0.77075222  0.12958207  1
  N  N66  1  0.25099572  0.85843683  0.86598188  1
  N  N67  1  0.07890944  0.77464957  0.58721274  1
  N  N68  1  0.87669890  0.90463058  0.32550252  1
  N  N69  1  0.75372992  0.77477271  0.08439847  1
  N  N70  1  0.54582928  0.85885850  0.82977069  1
  N  N71  1  0.43892732  0.75366159  0.64885477  1
