# generated using pymatgen
data_Al31B5N36
_symmetry_space_group_name_H-M   'P 1'
_cell_length_a   9.19562562
_cell_length_b   9.21988843
_cell_length_c   9.95954964
_cell_angle_alpha   89.89247233
_cell_angle_beta   89.80625422
_cell_angle_gamma   59.97841651
_symmetry_Int_Tables_number   1
_chemical_formula_structural   Al31B5N36
_chemical_formula_sum   'Al31 B5 N36'
_cell_volume   731.10590434
_cell_formula_units_Z   1
loop_
 _symmetry_equiv_pos_site_id
 _symmetry_equiv_pos_as_xyz
  1  'x, y, z'
loop_
 _atom_site_type_symbol
 _atom_site_label
 _atom_site_symmetry_multiplicity
 _atom_site_fract_x
 _atom_site_fract_y
 _atom_site_fract_z
 _atom_site_occupancy
  Al  Al0  1  0.10784262  0.08906590  0.32558828  1
  Al  Al1  1  0.22794374  0.19392337  0.07876270  1
  Al  Al2  1  0.78167635  0.08989943  0.82480495  1
  Al  Al3  1  0.45571190  0.08310063  0.33025791  1
  Al  Al4  1  0.56107798  0.20019986  0.07680611  1
  Al  Al5  1  0.10688488  0.09436594  0.81780161  1
  Al  Al6  1  0.21835001  0.19942280  0.57010988  1
  Al  Al7  1  0.88633292  0.21001350  0.07664193  1
  Al  Al8  1  0.44022139  0.09368371  0.81969187  1
  Al  Al9  1  0.57026716  0.19617057  0.56653442  1
  Al  Al10  1  0.10732553  0.43174584  0.38855268  1
  Al  Al11  1  0.22774674  0.54288235  0.07271274  1
  Al  Al12  1  0.76874480  0.42926392  0.81597742  1
  Al  Al13  1  0.89383323  0.54701054  0.64347868  1
  Al  Al14  1  0.45154362  0.42331286  0.32086444  1
  Al  Al15  1  0.56012612  0.54886072  0.07026454  1
  Al  Al16  1  0.10179298  0.43114361  0.89227754  1
  Al  Al17  1  0.22404152  0.54296488  0.57674758  1
  Al  Al18  1  0.77802448  0.41694214  0.34107184  1
  Al  Al19  1  0.88232293  0.54932261  0.15169999  1
  Al  Al20  1  0.44527171  0.43067740  0.82247657  1
  Al  Al21  1  0.55706958  0.53702157  0.57587490  1
  Al  Al22  1  0.11004349  0.76630790  0.31842068  1
  Al  Al23  1  0.23411138  0.87369162  0.06563763  1
  Al  Al24  1  0.75822784  0.76634828  0.89641186  1
  Al  Al25  1  0.45002886  0.76190312  0.33083987  1
  Al  Al26  1  0.10786721  0.76408930  0.83042547  1
  Al  Al27  1  0.21326108  0.87206470  0.57483517  1
  Al  Al28  1  0.78247981  0.77469141  0.40143587  1
  Al  Al29  1  0.88299370  0.88135358  0.10423993  1
  Al  Al30  1  0.55455905  0.87245956  0.61004939  1
  B  B31  1  0.90333946  0.16663297  0.55892525  1
  B  B32  1  0.77636986  0.08933669  0.31607850  1
  B  B33  1  0.89626765  0.87359672  0.61140108  1
  B  B34  1  0.55507893  0.87182457  0.11484349  1
  B  B35  1  0.44094857  0.76332593  0.81105172  1
  N  N36  1  0.22548535  0.19896227  0.37585298  1
  N  N37  1  0.10934813  0.09169843  0.13527284  1
  N  N38  1  0.88429418  0.20881869  0.88590725  1
  N  N39  1  0.80758940  0.07063702  0.62468751  1
  N  N40  1  0.58225992  0.19025161  0.37396945  1
  N  N41  1  0.46208862  0.06342043  0.13256024  1
  N  N42  1  0.22119434  0.19895964  0.88346137  1
  N  N43  1  0.08310870  0.10241788  0.62213970  1
  N  N44  1  0.88328137  0.18487379  0.39982993  1
  N  N45  1  0.77376803  0.10877591  0.15393690  1
  N  N46  1  0.55690025  0.20266929  0.88434363  1
  N  N47  1  0.43910157  0.10555036  0.62993904  1
  N  N48  1  0.22718780  0.54412448  0.38184957  1
  N  N49  1  0.10586263  0.43139877  0.09183479  1
  N  N50  1  0.88445517  0.54714434  0.83539978  1
  N  N51  1  0.78214925  0.41789643  0.62414969  1
  N  N52  1  0.55339906  0.53980368  0.38649603  1
  N  N53  1  0.44874603  0.42854180  0.13008769  1
  N  N54  1  0.22420873  0.54076440  0.87922496  1
  N  N55  1  0.10936879  0.42799778  0.58639592  1
  N  N56  1  0.88468779  0.55043387  0.34290465  1
  N  N57  1  0.77491252  0.42572138  0.14271603  1
  N  N58  1  0.54204909  0.56574555  0.87690240  1
  N  N59  1  0.44999500  0.42042326  0.63234852  1
  N  N60  1  0.22530809  0.86844870  0.38628184  1
  N  N61  1  0.12172214  0.76247103  0.12826259  1
  N  N62  1  0.88695395  0.87671625  0.89897798  1
  N  N63  1  0.79979415  0.78275024  0.59697271  1
  N  N64  1  0.55202490  0.87095985  0.40507278  1
  N  N65  1  0.45959791  0.77808624  0.13511094  1
  N  N66  1  0.24367077  0.86348927  0.87203376  1
  N  N67  1  0.08420552  0.77385231  0.63406811  1
  N  N68  1  0.87597926  0.89605918  0.33521190  1
  N  N69  1  0.74163319  0.77635259  0.09345353  1
  N  N70  1  0.54175702  0.85968040  0.83045068  1
  N  N71  1  0.43177983  0.75647637  0.64857566  1
