# generated using pymatgen
data_Al31B5N36
_symmetry_space_group_name_H-M   'P 1'
_cell_length_a   9.17012025
_cell_length_b   9.16601095
_cell_length_c   9.79832708
_cell_angle_alpha   90.05216046
_cell_angle_beta   90.23014240
_cell_angle_gamma   60.05856542
_symmetry_Int_Tables_number   1
_chemical_formula_structural   Al31B5N36
_chemical_formula_sum   'Al31 B5 N36'
_cell_volume   713.65795430
_cell_formula_units_Z   1
loop_
 _symmetry_equiv_pos_site_id
 _symmetry_equiv_pos_as_xyz
  1  'x, y, z'
loop_
 _atom_site_type_symbol
 _atom_site_label
 _atom_site_symmetry_multiplicity
 _atom_site_fract_x
 _atom_site_fract_y
 _atom_site_fract_z
 _atom_site_occupancy
  Al  Al0  1  0.10688816  0.09188707  0.30501904  1
  Al  Al1  1  0.22463978  0.19944588  0.04877551  1
  Al  Al2  1  0.78268212  0.09176666  0.79207148  1
  Al  Al3  1  0.45239998  0.08692304  0.29433185  1
  Al  Al4  1  0.56356090  0.19705803  0.05543569  1
  Al  Al5  1  0.10845290  0.09411646  0.79382995  1
  Al  Al6  1  0.21822075  0.20680751  0.54799738  1
  Al  Al7  1  0.88747334  0.20228779  0.05667719  1
  Al  Al8  1  0.44516020  0.08860603  0.80599997  1
  Al  Al9  1  0.56652481  0.19915331  0.54548126  1
  Al  Al10  1  0.11058621  0.42822219  0.29688169  1
  Al  Al11  1  0.22161605  0.54070245  0.04828522  1
  Al  Al12  1  0.77652151  0.42555012  0.79391743  1
  Al  Al13  1  0.88839275  0.54112883  0.54917123  1
  Al  Al14  1  0.44998063  0.42485142  0.29897256  1
  Al  Al15  1  0.55636749  0.54668402  0.04463323  1
  Al  Al16  1  0.10961747  0.42808869  0.79868366  1
  Al  Al17  1  0.21615178  0.54318743  0.54766765  1
  Al  Al18  1  0.77679099  0.42184857  0.30666740  1
  Al  Al19  1  0.88112873  0.54323426  0.04865291  1
  Al  Al20  1  0.44388798  0.43123506  0.79911236  1
  Al  Al21  1  0.55719240  0.53773168  0.55430472  1
  Al  Al22  1  0.10660575  0.76800349  0.30494977  1
  Al  Al23  1  0.22968516  0.87157985  0.04405568  1
  Al  Al24  1  0.77354472  0.76594714  0.80126138  1
  Al  Al25  1  0.44763504  0.76352125  0.29618683  1
  Al  Al26  1  0.10822671  0.76418211  0.79432495  1
  Al  Al27  1  0.21759590  0.87523890  0.55447146  1
  Al  Al28  1  0.77207569  0.77030710  0.30144867  1
  Al  Al29  1  0.88289200  0.87636703  0.05644457  1
  Al  Al30  1  0.55857177  0.87443808  0.55579330  1
  B  B31  1  0.89027128  0.19169847  0.54029825  1
  B  B32  1  0.77873078  0.09312255  0.30822354  1
  B  B33  1  0.88956571  0.88443612  0.54189441  1
  B  B34  1  0.55229554  0.86781726  0.04405306  1
  B  B35  1  0.44598027  0.76067167  0.80038399  1
  N  N36  1  0.22554276  0.20412417  0.35485860  1
  N  N37  1  0.11121883  0.09163754  0.11163062  1
  N  N38  1  0.88747996  0.20386200  0.86387483  1
  N  N39  1  0.80186972  0.08237545  0.59727702  1
  N  N40  1  0.57948541  0.19215851  0.35104369  1
  N  N41  1  0.45785876  0.06726418  0.09767033  1
  N  N42  1  0.21969782  0.20469856  0.85659968  1
  N  N43  1  0.08427649  0.10734131  0.59783672  1
  N  N44  1  0.87794694  0.19149308  0.37247540  1
  N  N45  1  0.78174416  0.09170435  0.13965179  1
  N  N46  1  0.56142290  0.20339188  0.86002784  1
  N  N47  1  0.44364997  0.09728653  0.61196639  1
  N  N48  1  0.22310291  0.53876890  0.35613587  1
  N  N49  1  0.10988975  0.42772061  0.10477132  1
  N  N50  1  0.88535145  0.54005146  0.85450299  1
  N  N51  1  0.78960310  0.39992945  0.59885484  1
  N  N52  1  0.55314493  0.54322925  0.36148730  1
  N  N53  1  0.44701203  0.42793748  0.10531122  1
  N  N54  1  0.22036985  0.54163577  0.85561529  1
  N  N55  1  0.10985879  0.42832892  0.60754344  1
  N  N56  1  0.88750885  0.54170590  0.35656783  1
  N  N57  1  0.77667600  0.42601095  0.11230409  1
  N  N58  1  0.54490204  0.56270918  0.84963735  1
  N  N59  1  0.44320565  0.42627906  0.60632138  1
  N  N60  1  0.22849404  0.86914254  0.36263085  1
  N  N61  1  0.11137518  0.76352736  0.11055957  1
  N  N62  1  0.88814773  0.87577506  0.86487009  1
  N  N63  1  0.78905596  0.77870889  0.60414588  1
  N  N64  1  0.55450479  0.87206938  0.36619915  1
  N  N65  1  0.45709410  0.77378372  0.10286250  1
  N  N66  1  0.24489825  0.86071618  0.84712685  1
  N  N67  1  0.08414882  0.77603191  0.59826176  1
  N  N68  1  0.87705482  0.89616591  0.37119271  1
  N  N69  1  0.75145600  0.77440984  0.10253193  1
  N  N70  1  0.54498254  0.85941723  0.86968927  1
  N  N71  1  0.44742779  0.76280400  0.63260441  1
