# generated using pymatgen
data_Al31B5N36
_symmetry_space_group_name_H-M   'P 1'
_cell_length_a   9.21202151
_cell_length_b   9.19575665
_cell_length_c   9.99517030
_cell_angle_alpha   90.01768534
_cell_angle_beta   89.94976090
_cell_angle_gamma   60.07572968
_symmetry_Int_Tables_number   1
_chemical_formula_structural   Al31B5N36
_chemical_formula_sum   'Al31 B5 N36'
_cell_volume   733.82722647
_cell_formula_units_Z   1
loop_
 _symmetry_equiv_pos_site_id
 _symmetry_equiv_pos_as_xyz
  1  'x, y, z'
loop_
 _atom_site_type_symbol
 _atom_site_label
 _atom_site_symmetry_multiplicity
 _atom_site_fract_x
 _atom_site_fract_y
 _atom_site_fract_z
 _atom_site_occupancy
  Al  Al0  1  0.10554503  0.08626053  0.32811826  1
  Al  Al1  1  0.22475885  0.20614528  0.13735798  1
  Al  Al2  1  0.78094001  0.08897964  0.82237606  1
  Al  Al3  1  0.46333701  0.08036568  0.33478389  1
  Al  Al4  1  0.56153173  0.20085974  0.07583361  1
  Al  Al5  1  0.10512776  0.09298007  0.81482905  1
  Al  Al6  1  0.21618741  0.20604974  0.60622398  1
  Al  Al7  1  0.88885064  0.20475332  0.07462352  1
  Al  Al8  1  0.44220736  0.09235252  0.81884802  1
  Al  Al9  1  0.57293111  0.19491547  0.56581786  1
  Al  Al10  1  0.10838896  0.42933110  0.38690049  1
  Al  Al11  1  0.22555437  0.54558891  0.07158477  1
  Al  Al12  1  0.77265753  0.43574279  0.88258710  1
  Al  Al13  1  0.89237856  0.53689051  0.64639541  1
  Al  Al14  1  0.45345913  0.42262672  0.32052378  1
  Al  Al15  1  0.54537171  0.55799254  0.06935273  1
  Al  Al16  1  0.10499570  0.42522565  0.89471301  1
  Al  Al17  1  0.22151129  0.54442258  0.57398523  1
  Al  Al18  1  0.78524933  0.41729524  0.39663976  1
  Al  Al19  1  0.87518991  0.54898327  0.14810568  1
  Al  Al20  1  0.44329188  0.43062188  0.82152664  1
  Al  Al21  1  0.55396964  0.53443719  0.57940005  1
  Al  Al22  1  0.11122611  0.76562418  0.31664810  1
  Al  Al23  1  0.23257765  0.87961444  0.06273788  1
  Al  Al24  1  0.75889816  0.76763097  0.89499768  1
  Al  Al25  1  0.45066891  0.76148456  0.33013721  1
  Al  Al26  1  0.10745884  0.76366970  0.82989174  1
  Al  Al27  1  0.21294549  0.87233954  0.57370728  1
  Al  Al28  1  0.78534673  0.77091412  0.39981336  1
  Al  Al29  1  0.88246727  0.88223165  0.10506752  1
  Al  Al30  1  0.55744831  0.86992604  0.60810027  1
  B  B31  1  0.89799350  0.18007982  0.56152531  1
  B  B32  1  0.77996251  0.09076141  0.31691842  1
  B  B33  1  0.89585368  0.87206640  0.61108452  1
  B  B34  1  0.55485498  0.87473372  0.11453653  1
  B  B35  1  0.44109091  0.76219282  0.80945295  1
  N  N36  1  0.22677111  0.20310065  0.34606021  1
  N  N37  1  0.10680773  0.09338405  0.13621007  1
  N  N38  1  0.88837868  0.20004874  0.88322602  1
  N  N39  1  0.80579079  0.06978858  0.62521656  1
  N  N40  1  0.58531298  0.19075897  0.37484348  1
  N  N41  1  0.46506435  0.06453331  0.13368664  1
  N  N42  1  0.21655135  0.20647243  0.84579259  1
  N  N43  1  0.08296353  0.10201746  0.61812869  1
  N  N44  1  0.88357772  0.17923463  0.39524625  1
  N  N45  1  0.77309764  0.11129542  0.15469374  1
  N  N46  1  0.55718495  0.20297691  0.88430340  1
  N  N47  1  0.44521372  0.10201442  0.62484178  1
  N  N48  1  0.22756807  0.54340116  0.38023880  1
  N  N49  1  0.10334889  0.43349316  0.09053327  1
  N  N50  1  0.88575813  0.54557899  0.83308604  1
  N  N51  1  0.79293803  0.39938045  0.59177115  1
  N  N52  1  0.55436522  0.53957142  0.38502763  1
  N  N53  1  0.44619120  0.42981100  0.13061611  1
  N  N54  1  0.22308083  0.54048200  0.87980958  1
  N  N55  1  0.10496462  0.42987882  0.57878572  1
  N  N56  1  0.88383787  0.54393622  0.33677264  1
  N  N57  1  0.77439607  0.43605416  0.08201891  1
  N  N58  1  0.53460307  0.57022554  0.87339457  1
  N  N59  1  0.44659992  0.41952242  0.63222886  1
  N  N60  1  0.22726026  0.86648141  0.38641927  1
  N  N61  1  0.12209769  0.76544013  0.12696817  1
  N  N62  1  0.88730930  0.87606326  0.89833553  1
  N  N63  1  0.80207201  0.77616830  0.59527845  1
  N  N64  1  0.55529754  0.86762363  0.40449895  1
  N  N65  1  0.45678797  0.78255287  0.13540987  1
  N  N66  1  0.24363653  0.86397799  0.86992553  1
  N  N67  1  0.08386833  0.77363821  0.63352212  1
  N  N68  1  0.87731442  0.89365656  0.33293712  1
  N  N69  1  0.74063219  0.77872412  0.09235667  1
  N  N70  1  0.54317474  0.85854978  0.82877594  1
  N  N71  1  0.43377618  0.75478886  0.64698333  1
