# generated using pymatgen
data_Al31B5N36
_symmetry_space_group_name_H-M   'P 1'
_cell_length_a   9.16952739
_cell_length_b   9.16529209
_cell_length_c   9.80094842
_cell_angle_alpha   90.02265173
_cell_angle_beta   90.19709634
_cell_angle_gamma   60.05607562
_symmetry_Int_Tables_number   1
_chemical_formula_structural   Al31B5N36
_chemical_formula_sum   'Al31 B5 N36'
_cell_volume   713.73015407
_cell_formula_units_Z   1
loop_
 _symmetry_equiv_pos_site_id
 _symmetry_equiv_pos_as_xyz
  1  'x, y, z'
loop_
 _atom_site_type_symbol
 _atom_site_label
 _atom_site_symmetry_multiplicity
 _atom_site_fract_x
 _atom_site_fract_y
 _atom_site_fract_z
 _atom_site_occupancy
  Al  Al0  1  0.10681425  0.09207062  0.32159902  1
  Al  Al1  1  0.22476791  0.19957468  0.06547058  1
  Al  Al2  1  0.78260347  0.09181995  0.80876171  1
  Al  Al3  1  0.45236838  0.08710745  0.31128610  1
  Al  Al4  1  0.56360621  0.19716542  0.07210131  1
  Al  Al5  1  0.10842924  0.09420447  0.81050815  1
  Al  Al6  1  0.21802307  0.20696533  0.56460159  1
  Al  Al7  1  0.88751099  0.20247219  0.07329922  1
  Al  Al8  1  0.44509956  0.08863803  0.82245866  1
  Al  Al9  1  0.56647279  0.19926593  0.56213239  1
  Al  Al10  1  0.11056906  0.42840628  0.31348664  1
  Al  Al11  1  0.22168016  0.54087642  0.06485195  1
  Al  Al12  1  0.77647643  0.42565905  0.81059481  1
  Al  Al13  1  0.88834641  0.54114051  0.56581037  1
  Al  Al14  1  0.44997180  0.42498900  0.31553589  1
  Al  Al15  1  0.55642043  0.54693221  0.06122476  1
  Al  Al16  1  0.10959820  0.42816153  0.81537829  1
  Al  Al17  1  0.21608323  0.54326316  0.56432351  1
  Al  Al18  1  0.77677804  0.42198426  0.32326007  1
  Al  Al19  1  0.88113615  0.54348089  0.06534567  1
  Al  Al20  1  0.44387754  0.43128263  0.81576049  1
  Al  Al21  1  0.55711202  0.53774140  0.57090038  1
  Al  Al22  1  0.10658894  0.76813784  0.32149723  1
  Al  Al23  1  0.22981145  0.87177148  0.06067247  1
  Al  Al24  1  0.77347797  0.76600030  0.81777332  1
  Al  Al25  1  0.44759944  0.76365300  0.31300707  1
  Al  Al26  1  0.10818028  0.76428327  0.81099912  1
  Al  Al27  1  0.21738449  0.87536443  0.57103022  1
  Al  Al28  1  0.77207427  0.77047578  0.31842051  1
  Al  Al29  1  0.88288974  0.87654013  0.07311868  1
  Al  Al30  1  0.55841862  0.87450403  0.57258864  1
  B  B31  1  0.89018084  0.19181096  0.55701655  1
  B  B32  1  0.77873882  0.09328051  0.32492883  1
  B  B33  1  0.88952024  0.88446969  0.55859846  1
  B  B34  1  0.55244192  0.86806330  0.06137676  1
  B  B35  1  0.44593821  0.76079283  0.81689274  1
  N  N36  1  0.22539683  0.20431708  0.37153223  1
  N  N37  1  0.11124662  0.09182002  0.12827433  1
  N  N38  1  0.88739661  0.20391774  0.88054643  1
  N  N39  1  0.80177077  0.08245263  0.61398249  1
  N  N40  1  0.57948587  0.19232285  0.36775378  1
  N  N41  1  0.45795419  0.06734592  0.11464030  1
  N  N42  1  0.21969623  0.20474806  0.87333386  1
  N  N43  1  0.08415821  0.10743252  0.61454018  1
  N  N44  1  0.87790504  0.19165026  0.38916171  1
  N  N45  1  0.78178182  0.09187551  0.15633361  1
  N  N46  1  0.56130176  0.20340217  0.87670870  1
  N  N47  1  0.44345516  0.09746196  0.62848038  1
  N  N48  1  0.22308041  0.53889916  0.37280574  1
  N  N49  1  0.10993533  0.42790569  0.12143341  1
  N  N50  1  0.88531181  0.54013659  0.87123888  1
  N  N51  1  0.78949656  0.40001634  0.61556382  1
  N  N52  1  0.55312674  0.54328170  0.37814339  1
  N  N53  1  0.44706780  0.42810273  0.12191665  1
  N  N54  1  0.22034033  0.54170814  0.87225776  1
  N  N55  1  0.10974876  0.42841617  0.62427257  1
  N  N56  1  0.88750344  0.54177391  0.37327077  1
  N  N57  1  0.77670243  0.42619727  0.12895350  1
  N  N58  1  0.54484566  0.56280452  0.86626536  1
  N  N59  1  0.44311257  0.42632425  0.62301954  1
  N  N60  1  0.22835386  0.86931808  0.37925346  1
  N  N61  1  0.11142397  0.76370086  0.12715243  1
  N  N62  1  0.88804738  0.87577641  0.88155537  1
  N  N63  1  0.78901437  0.77875778  0.62069773  1
  N  N64  1  0.55442388  0.87218014  0.38305860  1
  N  N65  1  0.45717843  0.77398229  0.11970670  1
  N  N66  1  0.24485772  0.86080973  0.86379124  1
  N  N67  1  0.08404732  0.77609001  0.61497077  1
  N  N68  1  0.87707113  0.89630811  0.38790168  1
  N  N69  1  0.75141314  0.77463493  0.11948939  1
  N  N70  1  0.54494927  0.85948106  0.88595906  1
  N  N71  1  0.44719358  0.76281654  0.64911276  1
