# generated using pymatgen
data_Al31B5N36
_symmetry_space_group_name_H-M   'P 1'
_cell_length_a   9.16884517
_cell_length_b   9.14743222
_cell_length_c   10.17181440
_cell_angle_alpha   89.62486780
_cell_angle_beta   89.50152933
_cell_angle_gamma   60.32993954
_symmetry_Int_Tables_number   1
_chemical_formula_structural   Al31B5N36
_chemical_formula_sum   'Al31 B5 N36'
_cell_volume   741.24082809
_cell_formula_units_Z   1
loop_
 _symmetry_equiv_pos_site_id
 _symmetry_equiv_pos_as_xyz
  1  'x, y, z'
loop_
 _atom_site_type_symbol
 _atom_site_label
 _atom_site_symmetry_multiplicity
 _atom_site_fract_x
 _atom_site_fract_y
 _atom_site_fract_z
 _atom_site_occupancy
  Al  Al0  1  0.09637634  0.10284049  0.39563522  1
  Al  Al1  1  0.22475781  0.19904627  0.14048688  1
  Al  Al2  1  0.78049546  0.08935818  0.86767593  1
  Al  Al3  1  0.44656212  0.09156071  0.38249660  1
  Al  Al4  1  0.55460917  0.20702787  0.06642008  1
  Al  Al5  1  0.10990716  0.09666796  0.87997307  1
  Al  Al6  1  0.21746761  0.20520558  0.63925732  1
  Al  Al7  1  0.88734665  0.20710847  0.13393362  1
  Al  Al8  1  0.43869664  0.07778472  0.89397539  1
  Al  Al9  1  0.57766173  0.19365981  0.57119819  1
  Al  Al10  1  0.11085636  0.43122398  0.39049104  1
  Al  Al11  1  0.22251434  0.53589339  0.13914660  1
  Al  Al12  1  0.78037834  0.42562449  0.87717060  1
  Al  Al13  1  0.88813235  0.54009533  0.63880867  1
  Al  Al14  1  0.46198951  0.42258821  0.32055953  1
  Al  Al15  1  0.55001172  0.55333908  0.06089323  1
  Al  Al16  1  0.10999715  0.42858458  0.89082143  1
  Al  Al17  1  0.21123711  0.53979268  0.63721290  1
  Al  Al18  1  0.78501673  0.41685044  0.39644998  1
  Al  Al19  1  0.87970814  0.54378471  0.14310304  1
  Al  Al20  1  0.45036470  0.42436691  0.81436986  1
  Al  Al21  1  0.55205830  0.53692527  0.57644629  1
  Al  Al22  1  0.10676734  0.77962596  0.31428088  1
  Al  Al23  1  0.24011002  0.86694871  0.06173404  1
  Al  Al24  1  0.76317942  0.75579556  0.89918545  1
  Al  Al25  1  0.44534763  0.76279280  0.31760520  1
  Al  Al26  1  0.10881761  0.76529775  0.83133073  1
  Al  Al27  1  0.21302129  0.87064584  0.57823572  1
  Al  Al28  1  0.77903904  0.77713371  0.38363187  1
  Al  Al29  1  0.88474611  0.87683322  0.08746492  1
  Al  Al30  1  0.55968261  0.87616627  0.64382021  1
  B  B31  1  0.89720771  0.19217803  0.64973325  1
  B  B32  1  0.78048543  0.09352887  0.34359278  1
  B  B33  1  0.88956722  0.88394899  0.61039801  1
  B  B34  1  0.56005528  0.87401570  0.14916895  1
  B  B35  1  0.44124659  0.75607515  0.80915506  1
  N  N36  1  0.21798008  0.20668541  0.32825693  1
  N  N37  1  0.10787866  0.10038984  0.07024810  1
  N  N38  1  0.89206537  0.20421439  0.80687686  1
  N  N39  1  0.80401003  0.07052842  0.62415554  1
  N  N40  1  0.59183983  0.19270331  0.37511830  1
  N  N41  1  0.45456149  0.06620991  0.08787547  1
  N  N42  1  0.22284762  0.20606256  0.82539414  1
  N  N43  1  0.08121793  0.10971479  0.58791447  1
  N  N44  1  0.87484283  0.19505130  0.32459396  1
  N  N45  1  0.78069242  0.10447591  0.06774193  1
  N  N46  1  0.54601106  0.20631438  0.87514558  1
  N  N47  1  0.43962962  0.08996331  0.57100710  1
  N  N48  1  0.22272062  0.54048563  0.33263846  1
  N  N49  1  0.10950869  0.42854918  0.07877534  1
  N  N50  1  0.88851904  0.54096901  0.82466828  1
  N  N51  1  0.79215351  0.39734664  0.58766202  1
  N  N52  1  0.55317291  0.54771521  0.38806104  1
  N  N53  1  0.45577477  0.42615356  0.13046024  1
  N  N54  1  0.22032124  0.53598548  0.82833445  1
  N  N55  1  0.10794886  0.42653416  0.57531542  1
  N  N56  1  0.88608441  0.54244511  0.33220918  1
  N  N57  1  0.78345914  0.42633948  0.06892301  1
  N  N58  1  0.53953556  0.56438174  0.86872016  1
  N  N59  1  0.44836420  0.41731401  0.62550625  1
  N  N60  1  0.22866943  0.87008299  0.38921876  1
  N  N61  1  0.11802622  0.76715058  0.12353351  1
  N  N62  1  0.89323149  0.85901166  0.88925207  1
  N  N63  1  0.78892515  0.78218725  0.57873148  1
  N  N64  1  0.56358070  0.87982758  0.31121004  1
  N  N65  1  0.45563891  0.77085174  0.13166922  1
  N  N66  1  0.25140315  0.85599431  0.86982563  1
  N  N67  1  0.07681767  0.77906235  0.62900851  1
  N  N68  1  0.87293029  0.90991716  0.32881745  1
  N  N69  1  0.74638594  0.77174677  0.09030794  1
  N  N70  1  0.54560908  0.85826049  0.82849487  1
  N  N71  1  0.43580514  0.75537145  0.64761071  1
