# generated using pymatgen
data_Al31B5N36
_symmetry_space_group_name_H-M   'P 1'
_cell_length_a   9.20616049
_cell_length_b   9.20283325
_cell_length_c   9.94823582
_cell_angle_alpha   90.24990903
_cell_angle_beta   89.97310039
_cell_angle_gamma   59.87883763
_symmetry_Int_Tables_number   1
_chemical_formula_structural   Al31B5N36
_chemical_formula_sum   'Al31 B5 N36'
_cell_volume   729.01939825
_cell_formula_units_Z   1
loop_
 _symmetry_equiv_pos_site_id
 _symmetry_equiv_pos_as_xyz
  1  'x, y, z'
loop_
 _atom_site_type_symbol
 _atom_site_label
 _atom_site_symmetry_multiplicity
 _atom_site_fract_x
 _atom_site_fract_y
 _atom_site_fract_z
 _atom_site_occupancy
  Al  Al0  1  0.10601311  0.09097361  0.32767946  1
  Al  Al1  1  0.22720659  0.19566934  0.07976197  1
  Al  Al2  1  0.78142908  0.08751247  0.82501403  1
  Al  Al3  1  0.45640118  0.08347261  0.33003460  1
  Al  Al4  1  0.56122176  0.20055435  0.07775340  1
  Al  Al5  1  0.10920718  0.09306676  0.81811502  1
  Al  Al6  1  0.22002408  0.19992597  0.57058505  1
  Al  Al7  1  0.88759910  0.20824747  0.07749549  1
  Al  Al8  1  0.44114436  0.09237937  0.82109321  1
  Al  Al9  1  0.57060995  0.19463029  0.56784553  1
  Al  Al10  1  0.10813076  0.43137397  0.38492905  1
  Al  Al11  1  0.22676520  0.54368038  0.07266936  1
  Al  Al12  1  0.77140842  0.42198583  0.81824894  1
  Al  Al13  1  0.89381792  0.54284529  0.64083715  1
  Al  Al14  1  0.45080976  0.42403770  0.32127777  1
  Al  Al15  1  0.55904081  0.54933084  0.06901309  1
  Al  Al16  1  0.10238575  0.43039783  0.88775001  1
  Al  Al17  1  0.22203621  0.54498633  0.57626142  1
  Al  Al18  1  0.77625548  0.41801399  0.33508608  1
  Al  Al19  1  0.88167808  0.55080672  0.15119082  1
  Al  Al20  1  0.44474592  0.42944003  0.82208721  1
  Al  Al21  1  0.55854011  0.53141856  0.57500823  1
  Al  Al22  1  0.10942932  0.76814901  0.31914422  1
  Al  Al23  1  0.23410189  0.87442257  0.06604830  1
  Al  Al24  1  0.75869923  0.76430757  0.89572647  1
  Al  Al25  1  0.44921646  0.76319458  0.33125609  1
  Al  Al26  1  0.10774376  0.76429884  0.83003222  1
  Al  Al27  1  0.21188839  0.87486735  0.57588060  1
  Al  Al28  1  0.78277399  0.77562582  0.40175414  1
  Al  Al29  1  0.88289749  0.88164082  0.10377382  1
  Al  Al30  1  0.55494817  0.87210315  0.60913533  1
  B  B31  1  0.89400671  0.19321937  0.56538029  1
  B  B32  1  0.77680135  0.09159697  0.31830867  1
  B  B33  1  0.89430210  0.87634069  0.61168128  1
  B  B34  1  0.55461263  0.87248953  0.11436948  1
  B  B35  1  0.44301213  0.76113524  0.81060789  1
  N  N36  1  0.22686131  0.19868869  0.37615703  1
  N  N37  1  0.10975901  0.09274170  0.13662709  1
  N  N38  1  0.88727313  0.20342898  0.88755870  1
  N  N39  1  0.80371875  0.07191374  0.62786714  1
  N  N40  1  0.58188984  0.19136966  0.37485418  1
  N  N41  1  0.46188355  0.06430874  0.13258942  1
  N  N42  1  0.22234752  0.19829621  0.88503427  1
  N  N43  1  0.08468647  0.10601196  0.62405791  1
  N  N44  1  0.88110686  0.19105236  0.39959692  1
  N  N45  1  0.77379472  0.10938076  0.15524154  1
  N  N46  1  0.55705887  0.20229881  0.88560692  1
  N  N47  1  0.43949084  0.10481172  0.63142075  1
  N  N48  1  0.22627081  0.54522158  0.38163502  1
  N  N49  1  0.10522084  0.43316037  0.09348402  1
  N  N50  1  0.88298867  0.54366649  0.83221199  1
  N  N51  1  0.78951177  0.39491739  0.62311123  1
  N  N52  1  0.55377655  0.54029972  0.38627139  1
  N  N53  1  0.44794923  0.43001525  0.13023833  1
  N  N54  1  0.22374290  0.54063688  0.87898909  1
  N  N55  1  0.10965847  0.42849171  0.58749176  1
  N  N56  1  0.88386803  0.55030277  0.34328751  1
  N  N57  1  0.77449718  0.42714499  0.13912899  1
  N  N58  1  0.54393604  0.56283074  0.87514124  1
  N  N59  1  0.44781136  0.42036320  0.63203021  1
  N  N60  1  0.22510740  0.86973403  0.38725039  1
  N  N61  1  0.12120906  0.76405584  0.12865208  1
  N  N62  1  0.88735101  0.87417568  0.89956616  1
  N  N63  1  0.79972915  0.78076484  0.59724723  1
  N  N64  1  0.55249208  0.87152945  0.40473235  1
  N  N65  1  0.45951159  0.77841469  0.13501818  1
  N  N66  1  0.24548494  0.86165936  0.87169072  1
  N  N67  1  0.08309745  0.77609136  0.63421535  1
  N  N68  1  0.87610600  0.89776977  0.33787660  1
  N  N69  1  0.74137617  0.77684931  0.09324920  1
  N  N70  1  0.54195526  0.85834882  0.83185295  1
  N  N71  1  0.43582000  0.75253949  0.64770945  1
