# generated using pymatgen
data_Al31B5N36
_symmetry_space_group_name_H-M   'P 1'
_cell_length_a   9.15296583
_cell_length_b   9.15026878
_cell_length_c   10.22354209
_cell_angle_alpha   89.50194730
_cell_angle_beta   89.50200112
_cell_angle_gamma   60.31300847
_symmetry_Int_Tables_number   1
_chemical_formula_structural   Al31B5N36
_chemical_formula_sum   'Al31 B5 N36'
_cell_volume   743.81844822
_cell_formula_units_Z   1
loop_
 _symmetry_equiv_pos_site_id
 _symmetry_equiv_pos_as_xyz
  1  'x, y, z'
loop_
 _atom_site_type_symbol
 _atom_site_label
 _atom_site_symmetry_multiplicity
 _atom_site_fract_x
 _atom_site_fract_y
 _atom_site_fract_z
 _atom_site_occupancy
  Al  Al0  1  0.09753143  0.10339489  0.39416824  1
  Al  Al1  1  0.22566559  0.19861449  0.13853631  1
  Al  Al2  1  0.77733120  0.08690229  0.83695041  1
  Al  Al3  1  0.44772562  0.09084971  0.38043433  1
  Al  Al4  1  0.55902066  0.20534641  0.06349456  1
  Al  Al5  1  0.10897297  0.09755426  0.87997794  1
  Al  Al6  1  0.21899589  0.20451205  0.63873040  1
  Al  Al7  1  0.88774229  0.20569562  0.13388637  1
  Al  Al8  1  0.43852903  0.07850800  0.89354139  1
  Al  Al9  1  0.57523148  0.19184001  0.57022867  1
  Al  Al10  1  0.11219509  0.43057898  0.38896124  1
  Al  Al11  1  0.22246122  0.53651863  0.14065301  1
  Al  Al12  1  0.77982811  0.42661801  0.88000410  1
  Al  Al13  1  0.88967920  0.53938094  0.63925630  1
  Al  Al14  1  0.46403131  0.42169190  0.31966792  1
  Al  Al15  1  0.54948561  0.55342699  0.06130178  1
  Al  Al16  1  0.11086149  0.42939521  0.89003938  1
  Al  Al17  1  0.21349256  0.53705366  0.63439992  1
  Al  Al18  1  0.78670100  0.41723899  0.39429017  1
  Al  Al19  1  0.88040563  0.54474011  0.14177202  1
  Al  Al20  1  0.44970230  0.42575618  0.81405013  1
  Al  Al21  1  0.55222821  0.53631504  0.57508024  1
  Al  Al22  1  0.10569312  0.78103045  0.31564282  1
  Al  Al23  1  0.23808927  0.86595672  0.05957803  1
  Al  Al24  1  0.76206910  0.75572465  0.89675465  1
  Al  Al25  1  0.44580659  0.76347617  0.31592926  1
  Al  Al26  1  0.10678102  0.76695817  0.82083819  1
  Al  Al27  1  0.21112286  0.87156622  0.57701053  1
  Al  Al28  1  0.77964237  0.77639896  0.38418404  1
  Al  Al29  1  0.88738214  0.87669225  0.07359706  1
  Al  Al30  1  0.55803570  0.87471110  0.64328404  1
  B  B31  1  0.90185531  0.21009003  0.65017682  1
  B  B32  1  0.78234714  0.09341381  0.34615537  1
  B  B33  1  0.88504016  0.87761677  0.60904400  1
  B  B34  1  0.56077025  0.87519097  0.14655528  1
  B  B35  1  0.43948430  0.75616056  0.80880185  1
  N  N36  1  0.21903758  0.20672664  0.32572237  1
  N  N37  1  0.10842525  0.10013464  0.06836735  1
  N  N38  1  0.89218651  0.20952749  0.80381140  1
  N  N39  1  0.79259214  0.06146478  0.63603006  1
  N  N40  1  0.59267920  0.19334502  0.37737647  1
  N  N41  1  0.45520930  0.06619420  0.08558654  1
  N  N42  1  0.22258648  0.20664475  0.82408360  1
  N  N43  1  0.07982111  0.11211815  0.58653885  1
  N  N44  1  0.87629520  0.19612734  0.32467231  1
  N  N45  1  0.78198177  0.10171009  0.07408079  1
  N  N46  1  0.54636936  0.20731999  0.87434775  1
  N  N47  1  0.43816783  0.08722508  0.56819171  1
  N  N48  1  0.22429033  0.54067909  0.33324742  1
  N  N49  1  0.11064733  0.42904557  0.07734278  1
  N  N50  1  0.88850034  0.54069977  0.82412475  1
  N  N51  1  0.79474642  0.39669641  0.58642135  1
  N  N52  1  0.55439857  0.54813571  0.38807553  1
  N  N53  1  0.45630096  0.42520187  0.13033220  1
  N  N54  1  0.21921399  0.53724336  0.82434899  1
  N  N55  1  0.10874624  0.42503526  0.57337225  1
  N  N56  1  0.88726441  0.54304647  0.33029411  1
  N  N57  1  0.78376838  0.42644005  0.06942620  1
  N  N58  1  0.53859560  0.56543902  0.86954246  1
  N  N59  1  0.45078143  0.41520723  0.62555788  1
  N  N60  1  0.22997706  0.87049611  0.38998414  1
  N  N61  1  0.11514870  0.76870840  0.12634303  1
  N  N62  1  0.89255323  0.86055917  0.88409995  1
  N  N63  1  0.78771145  0.77510745  0.57892757  1
  N  N64  1  0.56541697  0.87979935  0.30820682  1
  N  N65  1  0.45431915  0.77144978  0.13061079  1
  N  N66  1  0.24846818  0.85640374  0.86762678  1
  N  N67  1  0.07472923  0.77836322  0.62717569  1
  N  N68  1  0.87603069  0.91064636  0.34642067  1
  N  N69  1  0.74769967  0.77208957  0.08695837  1
  N  N70  1  0.54382661  0.85935722  0.82710953  1
  N  N71  1  0.43430330  0.75381946  0.64782468  1
