# generated using pymatgen
data_Al31B5N36
_symmetry_space_group_name_H-M   'P 1'
_cell_length_a   9.19825451
_cell_length_b   9.18032881
_cell_length_c   9.95193140
_cell_angle_alpha   90.23987215
_cell_angle_beta   89.93545775
_cell_angle_gamma   59.90338696
_symmetry_Int_Tables_number   1
_chemical_formula_structural   Al31B5N36
_chemical_formula_sum   'Al31 B5 N36'
_cell_volume   727.06160970
_cell_formula_units_Z   1
loop_
 _symmetry_equiv_pos_site_id
 _symmetry_equiv_pos_as_xyz
  1  'x, y, z'
loop_
 _atom_site_type_symbol
 _atom_site_label
 _atom_site_symmetry_multiplicity
 _atom_site_fract_x
 _atom_site_fract_y
 _atom_site_fract_z
 _atom_site_occupancy
  Al  Al0  1  0.10632078  0.09163155  0.32893231  1
  Al  Al1  1  0.22409634  0.20111779  0.07654662  1
  Al  Al2  1  0.78150415  0.08778158  0.82572435  1
  Al  Al3  1  0.45630646  0.08356658  0.33108235  1
  Al  Al4  1  0.56092246  0.20072646  0.07864020  1
  Al  Al5  1  0.10903287  0.09421597  0.81896776  1
  Al  Al6  1  0.21704345  0.20661831  0.56975214  1
  Al  Al7  1  0.88762496  0.20835806  0.07821441  1
  Al  Al8  1  0.44158076  0.09185853  0.82222511  1
  Al  Al9  1  0.57014693  0.19494922  0.56894846  1
  Al  Al10  1  0.11861239  0.42633071  0.32742502  1
  Al  Al11  1  0.22371218  0.54044141  0.07142714  1
  Al  Al12  1  0.77151114  0.42310585  0.81983803  1
  Al  Al13  1  0.88749104  0.54450466  0.63586539  1
  Al  Al14  1  0.45113861  0.42383124  0.32229540  1
  Al  Al15  1  0.55725902  0.54940458  0.06983620  1
  Al  Al16  1  0.11449904  0.42524061  0.82526826  1
  Al  Al17  1  0.21884423  0.54165409  0.57442384  1
  Al  Al18  1  0.77667199  0.41770326  0.33763836  1
  Al  Al19  1  0.87613843  0.55355990  0.15055937  1
  Al  Al20  1  0.44453930  0.43017200  0.82314897  1
  Al  Al21  1  0.55678770  0.53193845  0.57600361  1
  Al  Al22  1  0.10968426  0.76747530  0.32025429  1
  Al  Al23  1  0.23350303  0.87469929  0.06726595  1
  Al  Al24  1  0.75983310  0.76315808  0.89633166  1
  Al  Al25  1  0.44933153  0.76309099  0.33153681  1
  Al  Al26  1  0.10781803  0.76410705  0.83118273  1
  Al  Al27  1  0.21199564  0.87502665  0.57692482  1
  Al  Al28  1  0.78403070  0.77429896  0.40237929  1
  Al  Al29  1  0.88326316  0.88187040  0.10424113  1
  Al  Al30  1  0.55388761  0.87318480  0.60858827  1
  B  B31  1  0.89396408  0.19200615  0.56621464  1
  B  B32  1  0.77756300  0.09156074  0.31953961  1
  B  B33  1  0.89481269  0.87620669  0.61217467  1
  B  B34  1  0.55292865  0.87402556  0.11459194  1
  B  B35  1  0.44319502  0.76154331  0.81186172  1
  N  N36  1  0.22534391  0.20284738  0.38033331  1
  N  N37  1  0.11014142  0.09424052  0.13728040  1
  N  N38  1  0.88717168  0.20371481  0.88840548  1
  N  N39  1  0.80399562  0.07222793  0.62849694  1
  N  N40  1  0.58208904  0.19123182  0.37596005  1
  N  N41  1  0.45979531  0.06582237  0.13316541  1
  N  N42  1  0.22022056  0.20410523  0.88620959  1
  N  N43  1  0.08466076  0.10701932  0.62426590  1
  N  N44  1  0.88106704  0.18991142  0.40009090  1
  N  N45  1  0.77368623  0.10956354  0.15621319  1
  N  N46  1  0.55714988  0.20253954  0.88634402  1
  N  N47  1  0.43851035  0.10521760  0.63209883  1
  N  N48  1  0.22437487  0.54212582  0.38472395  1
  N  N49  1  0.11372197  0.42907476  0.13338868  1
  N  N50  1  0.88156148  0.54422863  0.83447797  1
  N  N51  1  0.78839814  0.39494912  0.62317479  1
  N  N52  1  0.55325930  0.54039340  0.38732493  1
  N  N53  1  0.44614909  0.43061439  0.13107088  1
  N  N54  1  0.22222451  0.53895972  0.88220558  1
  N  N55  1  0.11687466  0.42456428  0.63187674  1
  N  N56  1  0.88575696  0.54738343  0.34967925  1
  N  N57  1  0.77302627  0.42750426  0.14055328  1
  N  N58  1  0.54312253  0.56325513  0.87610827  1
  N  N59  1  0.44590018  0.42130088  0.63281129  1
  N  N60  1  0.22538679  0.86952696  0.38797908  1
  N  N61  1  0.12161661  0.76224143  0.12935962  1
  N  N62  1  0.88747503  0.87449697  0.90041690  1
  N  N63  1  0.79932721  0.78129448  0.59723778  1
  N  N64  1  0.55289339  0.87120827  0.40499365  1
  N  N65  1  0.45899725  0.77860027  0.13574658  1
  N  N66  1  0.24510718  0.86244288  0.87267764  1
  N  N67  1  0.08351273  0.77502166  0.63458831  1
  N  N68  1  0.87674148  0.89726207  0.33891241  1
  N  N69  1  0.74044788  0.77845366  0.09436345  1
  N  N70  1  0.54159480  0.85876889  0.83432929  1
  N  N71  1  0.43606696  0.75312269  0.64885583  1
