# generated using pymatgen
data_Al31B5N36
_symmetry_space_group_name_H-M   'P 1'
_cell_length_a   9.14896280
_cell_length_b   9.18230172
_cell_length_c   10.24909698
_cell_angle_alpha   89.41238009
_cell_angle_beta   89.34570768
_cell_angle_gamma   60.15707037
_symmetry_Int_Tables_number   1
_chemical_formula_structural   Al31B5N36
_chemical_formula_sum   'Al31 B5 N36'
_cell_volume   746.77626131
_cell_formula_units_Z   1
loop_
 _symmetry_equiv_pos_site_id
 _symmetry_equiv_pos_as_xyz
  1  'x, y, z'
loop_
 _atom_site_type_symbol
 _atom_site_label
 _atom_site_symmetry_multiplicity
 _atom_site_fract_x
 _atom_site_fract_y
 _atom_site_fract_z
 _atom_site_occupancy
  Al  Al0  1  0.09809221  0.10458729  0.39397639  1
  Al  Al1  1  0.22468029  0.19874535  0.13716481  1
  Al  Al2  1  0.77605761  0.08390376  0.81381297  1
  Al  Al3  1  0.44767935  0.09035929  0.37696299  1
  Al  Al4  1  0.56047147  0.20435886  0.06660748  1
  Al  Al5  1  0.11002665  0.09743536  0.87919937  1
  Al  Al6  1  0.22310744  0.20470453  0.63832966  1
  Al  Al7  1  0.88721971  0.20669275  0.13749683  1
  Al  Al8  1  0.44171616  0.07873994  0.89376690  1
  Al  Al9  1  0.57289943  0.18894011  0.56509776  1
  Al  Al10  1  0.11323774  0.43026733  0.38826285  1
  Al  Al11  1  0.22178999  0.53741184  0.14144985  1
  Al  Al12  1  0.77905583  0.42981537  0.88048881  1
  Al  Al13  1  0.89262710  0.54104304  0.63947781  1
  Al  Al14  1  0.46477302  0.42127929  0.31903044  1
  Al  Al15  1  0.54821811  0.55408437  0.06136623  1
  Al  Al16  1  0.11258564  0.42930369  0.89030678  1
  Al  Al17  1  0.21635421  0.53610625  0.63496144  1
  Al  Al18  1  0.78822907  0.41792699  0.39334688  1
  Al  Al19  1  0.88078143  0.54377611  0.14042205  1
  Al  Al20  1  0.45217145  0.42490763  0.81579445  1
  Al  Al21  1  0.55185453  0.53701281  0.57601281  1
  Al  Al22  1  0.10493555  0.78129730  0.31760266  1
  Al  Al23  1  0.23667096  0.86638378  0.05970516  1
  Al  Al24  1  0.76292039  0.75876973  0.89706822  1
  Al  Al25  1  0.44537526  0.76345737  0.31678163  1
  Al  Al26  1  0.10583845  0.76748343  0.82152816  1
  Al  Al27  1  0.20666968  0.87318135  0.57862121  1
  Al  Al28  1  0.78039945  0.77415525  0.38159879  1
  Al  Al29  1  0.88595714  0.87846764  0.07679791  1
  Al  Al30  1  0.55836341  0.87393365  0.64156611  1
  B  B31  1  0.91290536  0.23277132  0.65224858  1
  B  B32  1  0.78101091  0.09242499  0.33391440  1
  B  B33  1  0.87974178  0.86744724  0.60370178  1
  B  B34  1  0.56041563  0.87454915  0.14596669  1
  B  B35  1  0.43873979  0.75696732  0.80837377  1
  N  N36  1  0.21867935  0.20718985  0.32372684  1
  N  N37  1  0.10598123  0.10098618  0.06657307  1
  N  N38  1  0.89164861  0.21349825  0.79929178  1
  N  N39  1  0.77653347  0.04283266  0.63663529  1
  N  N40  1  0.59077031  0.19376095  0.37543164  1
  N  N41  1  0.45431531  0.06578589  0.08424004  1
  N  N42  1  0.22472019  0.20667018  0.82370256  1
  N  N43  1  0.07921215  0.11707721  0.58701942  1
  N  N44  1  0.87831094  0.19799614  0.32684262  1
  N  N45  1  0.77516443  0.09758135  0.11297608  1
  N  N46  1  0.55446997  0.20632483  0.87897320  1
  N  N47  1  0.43623046  0.08442916  0.56388784  1
  N  N48  1  0.22469301  0.54096142  0.33353669  1
  N  N49  1  0.11148534  0.42896138  0.07663356  1
  N  N50  1  0.88972238  0.54279095  0.82449369  1
  N  N51  1  0.79794457  0.40195275  0.58686462  1
  N  N52  1  0.55494520  0.54754493  0.38957253  1
  N  N53  1  0.45558514  0.42632687  0.12985101  1
  N  N54  1  0.22058769  0.53733451  0.82487557  1
  N  N55  1  0.11195910  0.42434790  0.57321416  1
  N  N56  1  0.88869829  0.54167624  0.32777575  1
  N  N57  1  0.78358062  0.42513924  0.06842331  1
  N  N58  1  0.53840677  0.56707353  0.86961254  1
  N  N59  1  0.45536212  0.41112750  0.62731588  1
  N  N60  1  0.22896610  0.87161228  0.39228125  1
  N  N61  1  0.11482475  0.76918820  0.12773460  1
  N  N62  1  0.89102743  0.87001858  0.88920474  1
  N  N63  1  0.78692722  0.76425202  0.57383911  1
  N  N64  1  0.56547931  0.87893937  0.30607271  1
  N  N65  1  0.45312840  0.77142941  0.13112498  1
  N  N66  1  0.24783927  0.85708027  0.86748141  1
  N  N67  1  0.07185556  0.77659403  0.62826019  1
  N  N68  1  0.87723194  0.90829080  0.35271035  1
  N  N69  1  0.74800328  0.77079031  0.08593750  1
  N  N70  1  0.54495244  0.86047981  0.82551581  1
  N  N71  1  0.43191260  0.75439055  0.64871700  1
