# generated using pymatgen
data_Al31B5N36
_symmetry_space_group_name_H-M   'P 1'
_cell_length_a   9.20583148
_cell_length_b   9.26394560
_cell_length_c   9.93652201
_cell_angle_alpha   89.68829146
_cell_angle_beta   89.59912454
_cell_angle_gamma   60.03845024
_symmetry_Int_Tables_number   1
_chemical_formula_structural   Al31B5N36
_chemical_formula_sum   'Al31 B5 N36'
_cell_volume   734.14265590
_cell_formula_units_Z   1
loop_
 _symmetry_equiv_pos_site_id
 _symmetry_equiv_pos_as_xyz
  1  'x, y, z'
loop_
 _atom_site_type_symbol
 _atom_site_label
 _atom_site_symmetry_multiplicity
 _atom_site_fract_x
 _atom_site_fract_y
 _atom_site_fract_z
 _atom_site_occupancy
  Al  Al0  1  0.10833148  0.08922813  0.32307403  1
  Al  Al1  1  0.22702582  0.19411879  0.07981139  1
  Al  Al2  1  0.78213869  0.08799047  0.82486070  1
  Al  Al3  1  0.45654735  0.08188529  0.32949071  1
  Al  Al4  1  0.56090450  0.20090041  0.07627699  1
  Al  Al5  1  0.10635010  0.09313601  0.81839501  1
  Al  Al6  1  0.21791434  0.19939528  0.56878579  1
  Al  Al7  1  0.88308797  0.21431054  0.07347991  1
  Al  Al8  1  0.43954979  0.09316661  0.81983820  1
  Al  Al9  1  0.57021827  0.19569945  0.56533153  1
  Al  Al10  1  0.11143918  0.43068405  0.38386242  1
  Al  Al11  1  0.22745787  0.54226256  0.07466278  1
  Al  Al12  1  0.76807192  0.43379569  0.81364384  1
  Al  Al13  1  0.89655195  0.55656751  0.64563676  1
  Al  Al14  1  0.45848088  0.42271991  0.31874299  1
  Al  Al15  1  0.55988445  0.55056993  0.06501260  1
  Al  Al16  1  0.10045112  0.43103203  0.89599843  1
  Al  Al17  1  0.22505488  0.54056815  0.57512899  1
  Al  Al18  1  0.78706820  0.42095135  0.40939213  1
  Al  Al19  1  0.87731409  0.54462448  0.15502907  1
  Al  Al20  1  0.44374558  0.42979987  0.82331529  1
  Al  Al21  1  0.54247880  0.54993039  0.58140215  1
  Al  Al22  1  0.11168442  0.76542209  0.31717168  1
  Al  Al23  1  0.23317591  0.87439237  0.06621351  1
  Al  Al24  1  0.75755440  0.76538128  0.89912403  1
  Al  Al25  1  0.45354292  0.75883501  0.32934758  1
  Al  Al26  1  0.10805815  0.76283364  0.83200071  1
  Al  Al27  1  0.21305402  0.87035866  0.57270156  1
  Al  Al28  1  0.78324286  0.77402027  0.40013288  1
  Al  Al29  1  0.88275640  0.88082863  0.10505715  1
  Al  Al30  1  0.55470107  0.87235337  0.60995831  1
  B  B31  1  0.91952609  0.13142675  0.55353788  1
  B  B32  1  0.77436472  0.08726238  0.31283904  1
  B  B33  1  0.89778582  0.87006407  0.61191209  1
  B  B34  1  0.55522719  0.87178320  0.11505145  1
  B  B35  1  0.43744156  0.76550921  0.81035137  1
  N  N36  1  0.22605638  0.19814599  0.37468772  1
  N  N37  1  0.10695760  0.09236181  0.13355686  1
  N  N38  1  0.88250079  0.20922914  0.87858569  1
  N  N39  1  0.81114022  0.06437267  0.62292782  1
  N  N40  1  0.58353661  0.18912949  0.37267928  1
  N  N41  1  0.46186120  0.06335738  0.13195115  1
  N  N42  1  0.21956286  0.19947739  0.88302905  1
  N  N43  1  0.08161925  0.09945296  0.62118896  1
  N  N44  1  0.88814887  0.17822421  0.40580109  1
  N  N45  1  0.77399508  0.10855200  0.15270231  1
  N  N46  1  0.55682235  0.20177258  0.88300253  1
  N  N47  1  0.43896633  0.10527042  0.62901345  1
  N  N48  1  0.23105732  0.54303628  0.38004211  1
  N  N49  1  0.10621698  0.43063756  0.09622624  1
  N  N50  1  0.88595674  0.54851239  0.83495211  1
  N  N51  1  0.76969559  0.45285550  0.61306132  1
  N  N52  1  0.55491899  0.53963432  0.39025157  1
  N  N53  1  0.44950701  0.42880072  0.12801169  1
  N  N54  1  0.22302723  0.54006487  0.88030622  1
  N  N55  1  0.10982518  0.42692414  0.58438966  1
  N  N56  1  0.88580505  0.54793670  0.34644075  1
  N  N57  1  0.77405379  0.43001179  0.11887643  1
  N  N58  1  0.53808935  0.56827184  0.86978467  1
  N  N59  1  0.45047444  0.41899583  0.63273592  1
  N  N60  1  0.22643722  0.86821107  0.38414940  1
  N  N61  1  0.12176318  0.76200156  0.12727628  1
  N  N62  1  0.88627968  0.87592458  0.89878057  1
  N  N63  1  0.79976288  0.78504068  0.59604509  1
  N  N64  1  0.55299282  0.87011602  0.40446468  1
  N  N65  1  0.45864691  0.77901479  0.13363645  1
  N  N66  1  0.24203590  0.86401522  0.87277127  1
  N  N67  1  0.08543971  0.77108367  0.63354948  1
  N  N68  1  0.87675322  0.89526967  0.33343410  1
  N  N69  1  0.74179514  0.77657934  0.09643531  1
  N  N70  1  0.54176173  0.85939023  0.82988091  1
  N  N71  1  0.42395081  0.76551161  0.64908979  1
