# generated using pymatgen
data_Al31B5N36
_symmetry_space_group_name_H-M   'P 1'
_cell_length_a   9.21193371
_cell_length_b   9.19399999
_cell_length_c   10.00180535
_cell_angle_alpha   90.02562166
_cell_angle_beta   89.95320331
_cell_angle_gamma   60.07509158
_symmetry_Int_Tables_number   1
_chemical_formula_structural   Al31B5N36
_chemical_formula_sum   'Al31 B5 N36'
_cell_volume   734.16233223
_cell_formula_units_Z   1
loop_
 _symmetry_equiv_pos_site_id
 _symmetry_equiv_pos_as_xyz
  1  'x, y, z'
loop_
 _atom_site_type_symbol
 _atom_site_label
 _atom_site_symmetry_multiplicity
 _atom_site_fract_x
 _atom_site_fract_y
 _atom_site_fract_z
 _atom_site_occupancy
  Al  Al0  1  0.10560328  0.08637295  0.32826261  1
  Al  Al1  1  0.22461288  0.20665328  0.14089195  1
  Al  Al2  1  0.78082439  0.08897697  0.82229035  1
  Al  Al3  1  0.46329021  0.08043890  0.33518076  1
  Al  Al4  1  0.56150516  0.20078074  0.07595832  1
  Al  Al5  1  0.10431083  0.09216527  0.81485148  1
  Al  Al6  1  0.21522512  0.20805292  0.61593311  1
  Al  Al7  1  0.88882447  0.20476384  0.07470086  1
  Al  Al8  1  0.44346962  0.09169312  0.81873591  1
  Al  Al9  1  0.57299676  0.19493192  0.56565148  1
  Al  Al10  1  0.10885639  0.42830114  0.38779044  1
  Al  Al11  1  0.22555195  0.54533161  0.07140478  1
  Al  Al12  1  0.77254321  0.43589910  0.88265452  1
  Al  Al13  1  0.89208687  0.53725601  0.64626311  1
  Al  Al14  1  0.45337865  0.42264754  0.32050100  1
  Al  Al15  1  0.54532559  0.55798537  0.06937256  1
  Al  Al16  1  0.10500352  0.42499581  0.89440005  1
  Al  Al17  1  0.22149481  0.54451716  0.57383925  1
  Al  Al18  1  0.78530699  0.41731511  0.39669816  1
  Al  Al19  1  0.87547406  0.54870444  0.14802671  1
  Al  Al20  1  0.44328666  0.43071806  0.82141798  1
  Al  Al21  1  0.55392764  0.53451601  0.57933343  1
  Al  Al22  1  0.11125838  0.76547951  0.31663129  1
  Al  Al23  1  0.23260848  0.87952423  0.06292586  1
  Al  Al24  1  0.75900480  0.76749593  0.89514892  1
  Al  Al25  1  0.45069415  0.76144290  0.33002759  1
  Al  Al26  1  0.10743490  0.76353224  0.82980670  1
  Al  Al27  1  0.21292353  0.87265621  0.57353635  1
  Al  Al28  1  0.78554726  0.77072915  0.39968485  1
  Al  Al29  1  0.88247045  0.88220642  0.10513961  1
  Al  Al30  1  0.55731603  0.87008306  0.60754269  1
  B  B31  1  0.89821139  0.17993237  0.56152143  1
  B  B32  1  0.77998984  0.09077172  0.31689746  1
  B  B33  1  0.89584269  0.87210670  0.61106816  1
  B  B34  1  0.55488151  0.87476631  0.11443252  1
  B  B35  1  0.44118631  0.76214611  0.80947389  1
  N  N36  1  0.22679630  0.20370783  0.34280350  1
  N  N37  1  0.10685771  0.09339833  0.13573002  1
  N  N38  1  0.88813317  0.20016433  0.88338017  1
  N  N39  1  0.80573560  0.06982417  0.62521704  1
  N  N40  1  0.58542298  0.19076958  0.37477295  1
  N  N41  1  0.46513925  0.06442966  0.13320649  1
  N  N42  1  0.21565746  0.20782957  0.83849467  1
  N  N43  1  0.08262855  0.10199277  0.61818274  1
  N  N44  1  0.88361255  0.17924358  0.39520911  1
  N  N45  1  0.77310464  0.11129107  0.15470273  1
  N  N46  1  0.55707589  0.20308552  0.88445664  1
  N  N47  1  0.44583026  0.10182626  0.62457034  1
  N  N48  1  0.22750007  0.54324721  0.38028910  1
  N  N49  1  0.10365534  0.43251940  0.08931320  1
  N  N50  1  0.88572180  0.54557882  0.83294561  1
  N  N51  1  0.79283629  0.39961263  0.59171792  1
  N  N52  1  0.55436117  0.53955826  0.38504502  1
  N  N53  1  0.44611770  0.42980598  0.13063587  1
  N  N54  1  0.22312186  0.54033281  0.87972117  1
  N  N55  1  0.10489459  0.42986760  0.57870643  1
  N  N56  1  0.88430689  0.54361294  0.33664119  1
  N  N57  1  0.77433540  0.43610185  0.08190985  1
  N  N58  1  0.53453876  0.57026705  0.87342129  1
  N  N59  1  0.44656862  0.41958645  0.63225299  1
  N  N60  1  0.22728750  0.86648776  0.38633708  1
  N  N61  1  0.12209596  0.76519270  0.12698255  1
  N  N62  1  0.88729993  0.87609330  0.89830190  1
  N  N63  1  0.80204086  0.77618924  0.59515521  1
  N  N64  1  0.55542593  0.86746281  0.40438775  1
  N  N65  1  0.45683289  0.78247758  0.13544274  1
  N  N66  1  0.24364088  0.86399178  0.87016123  1
  N  N67  1  0.08390371  0.77368404  0.63354094  1
  N  N68  1  0.87734858  0.89364577  0.33289703  1
  N  N69  1  0.74081836  0.77853852  0.09233010  1
  N  N70  1  0.54313067  0.85847947  0.82916690  1
  N  N71  1  0.43377466  0.75492896  0.64706374  1
