# generated using pymatgen
data_Al31B5N36
_symmetry_space_group_name_H-M   'P 1'
_cell_length_a   9.20365245
_cell_length_b   9.20278133
_cell_length_c   9.85276796
_cell_angle_alpha   90.00471967
_cell_angle_beta   89.55269171
_cell_angle_gamma   59.96337689
_symmetry_Int_Tables_number   1
_chemical_formula_structural   Al31B5N36
_chemical_formula_sum   'Al31 B5 N36'
_cell_volume   722.42033312
_cell_formula_units_Z   1
loop_
 _symmetry_equiv_pos_site_id
 _symmetry_equiv_pos_as_xyz
  1  'x, y, z'
loop_
 _atom_site_type_symbol
 _atom_site_label
 _atom_site_symmetry_multiplicity
 _atom_site_fract_x
 _atom_site_fract_y
 _atom_site_fract_z
 _atom_site_occupancy
  Al  Al0  1  0.09985850  0.09361592  0.40396898  1
  Al  Al1  1  0.22513250  0.20007961  0.15046207  1
  Al  Al2  1  0.78251809  0.09132810  0.86171258  1
  Al  Al3  1  0.44878683  0.08710161  0.38942987  1
  Al  Al4  1  0.55954340  0.20099147  0.07703325  1
  Al  Al5  1  0.11402180  0.09167602  0.89732113  1
  Al  Al6  1  0.21912027  0.20617307  0.64828543  1
  Al  Al7  1  0.88596316  0.20240830  0.14366578  1
  Al  Al8  1  0.43994967  0.08034758  0.89939728  1
  Al  Al9  1  0.57850929  0.19574848  0.58990791  1
  Al  Al10  1  0.10748819  0.42923725  0.40088124  1
  Al  Al11  1  0.21724947  0.54183652  0.15080769  1
  Al  Al12  1  0.77697918  0.43018164  0.89436928  1
  Al  Al13  1  0.88848743  0.54096310  0.64863804  1
  Al  Al14  1  0.45009079  0.42501837  0.36435907  1
  Al  Al15  1  0.55783408  0.54601406  0.14099136  1
  Al  Al16  1  0.10995272  0.42757492  0.90012832  1
  Al  Al17  1  0.21457873  0.54452795  0.64632890  1
  Al  Al18  1  0.77605655  0.41900215  0.40479791  1
  Al  Al19  1  0.88121771  0.54382149  0.15053609  1
  Al  Al20  1  0.44209538  0.43325985  0.86266215  1
  Al  Al21  1  0.55906965  0.54183283  0.64981397  1
  Al  Al22  1  0.09843390  0.77524704  0.40442405  1
  Al  Al23  1  0.22730823  0.87225187  0.14304468  1
  Al  Al24  1  0.77135613  0.76249383  0.89791924  1
  Al  Al25  1  0.44482515  0.76391021  0.39215186  1
  Al  Al26  1  0.11439755  0.76082428  0.89784141  1
  Al  Al27  1  0.22118928  0.87369914  0.65436201  1
  Al  Al28  1  0.77212234  0.77349197  0.39767056  1
  Al  Al29  1  0.87958579  0.88049444  0.14392341  1
  Al  Al30  1  0.55805112  0.87247825  0.65081924  1
  B  B31  1  0.89815846  0.19209551  0.66043636  1
  B  B32  1  0.77820718  0.09449722  0.36212815  1
  B  B33  1  0.89734752  0.87893315  0.65994106  1
  B  B34  1  0.55629011  0.87282250  0.14508182  1
  B  B35  1  0.44973143  0.76389419  0.90345050  1
  N  N36  1  0.21838400  0.20458193  0.34243126  1
  N  N37  1  0.10963838  0.09574877  0.08850918  1
  N  N38  1  0.89598573  0.20890018  0.82209823  1
  N  N39  1  0.80609505  0.08059734  0.63472941  1
  N  N40  1  0.59019946  0.18798641  0.37980670  1
  N  N41  1  0.45593235  0.06680345  0.09679787  1
  N  N42  1  0.22233119  0.20510567  0.83966763  1
  N  N43  1  0.08835829  0.10349985  0.59875183  1
  N  N44  1  0.87254236  0.19073076  0.33956013  1
  N  N45  1  0.78897834  0.08939054  0.06895055  1
  N  N46  1  0.54815658  0.20445121  0.87541907  1
  N  N47  1  0.44429538  0.09124117  0.58498108  1
  N  N48  1  0.21422305  0.54677232  0.34546904  1
  N  N49  1  0.10957787  0.42716326  0.09251005  1
  N  N50  1  0.88864365  0.54078217  0.83997718  1
  N  N51  1  0.78936531  0.40219725  0.59801083  1
  N  N52  1  0.56013587  0.54257109  0.33577572  1
  N  N53  1  0.44502656  0.42657382  0.11716508  1
  N  N54  1  0.21651032  0.54114987  0.83892935  1
  N  N55  1  0.11006296  0.42766685  0.58985801  1
  N  N56  1  0.88349327  0.54150335  0.34423259  1
  N  N57  1  0.78111956  0.42444282  0.08611748  1
  N  N58  1  0.54460474  0.56628132  0.84834190  1
  N  N59  1  0.44560874  0.42907748  0.60734021  1
  N  N60  1  0.22079627  0.87311116  0.33779018  1
  N  N61  1  0.10757067  0.76268636  0.08955162  1
  N  N62  1  0.89492423  0.86087434  0.82299019  1
  N  N63  1  0.78641705  0.77765379  0.59317837  1
  N  N64  1  0.55554587  0.87032537  0.31306785  1
  N  N65  1  0.45647718  0.77299038  0.07609418  1
  N  N66  1  0.24960864  0.85882279  0.84906374  1
  N  N67  1  0.08712731  0.77772146  0.59897902  1
  N  N68  1  0.87179994  0.90455898  0.33901036  1
  N  N69  1  0.75383460  0.77479146  0.09382762  1
  N  N70  1  0.54441562  0.85657169  0.84195961  1
  N  N71  1  0.44575826  0.76383024  0.58296754  1
