# generated using pymatgen
data_Al31B5N36
_symmetry_space_group_name_H-M   'P 1'
_cell_length_a   9.18438564
_cell_length_b   9.17944800
_cell_length_c   9.89820948
_cell_angle_alpha   89.99563712
_cell_angle_beta   89.84427936
_cell_angle_gamma   59.95019387
_symmetry_Int_Tables_number   1
_chemical_formula_structural   Al31B5N36
_chemical_formula_sum   'Al31 B5 N36'
_cell_volume   722.32672657
_cell_formula_units_Z   1
loop_
 _symmetry_equiv_pos_site_id
 _symmetry_equiv_pos_as_xyz
  1  'x, y, z'
loop_
 _atom_site_type_symbol
 _atom_site_label
 _atom_site_symmetry_multiplicity
 _atom_site_fract_x
 _atom_site_fract_y
 _atom_site_fract_z
 _atom_site_occupancy
  Al  Al0  1  0.10625932  0.09311027  0.31909356  1
  Al  Al1  1  0.22692050  0.19818702  0.06614071  1
  Al  Al2  1  0.78201478  0.09041736  0.80864942  1
  Al  Al3  1  0.45371528  0.08696267  0.32100307  1
  Al  Al4  1  0.56443525  0.19712279  0.07141834  1
  Al  Al5  1  0.10887772  0.09375142  0.80899825  1
  Al  Al6  1  0.21679466  0.20749111  0.56079742  1
  Al  Al7  1  0.88813049  0.20334106  0.07032179  1
  Al  Al8  1  0.44107236  0.09312297  0.81223297  1
  Al  Al9  1  0.56811418  0.19829571  0.55923811  1
  Al  Al10  1  0.11026111  0.43009156  0.31310673  1
  Al  Al11  1  0.22322159  0.54061616  0.06200827  1
  Al  Al12  1  0.77506553  0.42580437  0.80966062  1
  Al  Al13  1  0.89253955  0.53370185  0.56980672  1
  Al  Al14  1  0.44999871  0.42485546  0.31303740  1
  Al  Al15  1  0.55754740  0.54896298  0.05922525  1
  Al  Al16  1  0.10988176  0.42772740  0.81558101  1
  Al  Al17  1  0.21679611  0.54239725  0.56415136  1
  Al  Al18  1  0.77724030  0.42245830  0.32232638  1
  Al  Al19  1  0.88415960  0.53787841  0.06850511  1
  Al  Al20  1  0.44455920  0.43034096  0.81391534  1
  Al  Al21  1  0.55607240  0.53350413  0.56629219  1
  Al  Al22  1  0.10855916  0.76811302  0.31589731  1
  Al  Al23  1  0.23269803  0.87324364  0.05768461  1
  Al  Al24  1  0.76013195  0.76795340  0.86934020  1
  Al  Al25  1  0.44908877  0.76364408  0.31927943  1
  Al  Al26  1  0.10757476  0.76398497  0.81092937  1
  Al  Al27  1  0.21302928  0.87528881  0.56503881  1
  Al  Al28  1  0.77787272  0.77446967  0.38964582  1
  Al  Al29  1  0.88439562  0.87930754  0.07602628  1
  Al  Al30  1  0.55532058  0.87218262  0.59956687  1
  B  B31  1  0.89114385  0.19121187  0.55662105  1
  B  B32  1  0.78097469  0.09448323  0.32210679  1
  B  B33  1  0.89404192  0.88231240  0.56527400  1
  B  B34  1  0.55712702  0.87195542  0.10450664  1
  B  B35  1  0.44204170  0.76093686  0.80102928  1
  N  N36  1  0.22306399  0.20622605  0.36987357  1
  N  N37  1  0.11126599  0.09267953  0.12677820  1
  N  N38  1  0.88655098  0.20367133  0.87908417  1
  N  N39  1  0.80254058  0.08089220  0.61439180  1
  N  N40  1  0.58133937  0.19309734  0.36662359  1
  N  N41  1  0.46089674  0.06495557  0.12311838  1
  N  N42  1  0.22032069  0.20401596  0.87529325  1
  N  N43  1  0.08414310  0.10724866  0.61339170  1
  N  N44  1  0.87836500  0.19372080  0.38867473  1
  N  N45  1  0.78130070  0.09532573  0.15392869  1
  N  N46  1  0.55938834  0.20126301  0.87701634  1
  N  N47  1  0.43881192  0.10563541  0.62132212  1
  N  N48  1  0.22250902  0.54026850  0.37295514  1
  N  N49  1  0.11201152  0.42801603  0.12234071  1
  N  N50  1  0.88715262  0.53499314  0.87397604  1
  N  N51  1  0.78807589  0.39981201  0.61610189  1
  N  N52  1  0.55360896  0.54102347  0.37588772  1
  N  N53  1  0.44754413  0.42911983  0.12046769  1
  N  N54  1  0.22064442  0.54083025  0.87143135  1
  N  N55  1  0.11156917  0.42660445  0.62620571  1
  N  N56  1  0.88888007  0.53838053  0.37530504  1
  N  N57  1  0.77632612  0.42612507  0.12961432  1
  N  N58  1  0.54391508  0.56324317  0.86486564  1
  N  N59  1  0.44398503  0.42312122  0.62265013  1
  N  N60  1  0.22633171  0.87068241  0.37554452  1
  N  N61  1  0.11469271  0.76338934  0.12364311  1
  N  N62  1  0.88807343  0.87581018  0.88259257  1
  N  N63  1  0.79665636  0.77730468  0.59010312  1
  N  N64  1  0.54955954  0.87416081  0.39226575  1
  N  N65  1  0.46032133  0.77735739  0.12355726  1
  N  N66  1  0.24402761  0.86113011  0.86209582  1
  N  N67  1  0.08386683  0.77583240  0.61634652  1
  N  N68  1  0.88263595  0.90333717  0.37836793  1
  N  N69  1  0.74401100  0.77846657  0.08735498  1
  N  N70  1  0.53950787  0.85957902  0.82310862  1
  N  N71  1  0.43516455  0.75401896  0.63780827  1
