# generated using pymatgen
data_Al31B5N36
_symmetry_space_group_name_H-M   'P 1'
_cell_length_a   9.18739979
_cell_length_b   9.19287072
_cell_length_c   10.02056501
_cell_angle_alpha   90.09848675
_cell_angle_beta   89.96626810
_cell_angle_gamma   60.03452320
_symmetry_Int_Tables_number   1
_chemical_formula_structural   Al31B5N36
_chemical_formula_sum   'Al31 B5 N36'
_cell_volume   733.18967134
_cell_formula_units_Z   1
loop_
 _symmetry_equiv_pos_site_id
 _symmetry_equiv_pos_as_xyz
  1  'x, y, z'
loop_
 _atom_site_type_symbol
 _atom_site_label
 _atom_site_symmetry_multiplicity
 _atom_site_fract_x
 _atom_site_fract_y
 _atom_site_fract_z
 _atom_site_occupancy
  Al  Al0  1  0.10831732  0.08810906  0.32492721  1
  Al  Al1  1  0.22778635  0.19588585  0.07754184  1
  Al  Al2  1  0.78157051  0.08932495  0.82274570  1
  Al  Al3  1  0.45678253  0.08311011  0.32906279  1
  Al  Al4  1  0.56165249  0.20140607  0.07668704  1
  Al  Al5  1  0.10856661  0.09454986  0.81499650  1
  Al  Al6  1  0.21997549  0.19879557  0.56866548  1
  Al  Al7  1  0.88938482  0.20411968  0.07503231  1
  Al  Al8  1  0.44069639  0.09406576  0.81963969  1
  Al  Al9  1  0.57038964  0.19470459  0.56631678  1
  Al  Al10  1  0.10765748  0.43060361  0.38563024  1
  Al  Al11  1  0.22584486  0.54471012  0.07283910  1
  Al  Al12  1  0.77318723  0.43551313  0.88303499  1
  Al  Al13  1  0.89260882  0.53680146  0.64599437  1
  Al  Al14  1  0.45364381  0.42246225  0.32120985  1
  Al  Al15  1  0.54618655  0.55739483  0.06972719  1
  Al  Al16  1  0.10267239  0.43236307  0.89232750  1
  Al  Al17  1  0.22109210  0.54375573  0.57531428  1
  Al  Al18  1  0.78594870  0.41630007  0.39832250  1
  Al  Al19  1  0.87731413  0.54699142  0.14890124  1
  Al  Al20  1  0.44466268  0.43106316  0.82139006  1
  Al  Al21  1  0.55375697  0.53510844  0.57993969  1
  Al  Al22  1  0.11087228  0.76589251  0.31796045  1
  Al  Al23  1  0.23209043  0.87692331  0.06426592  1
  Al  Al24  1  0.75823310  0.76861429  0.89622037  1
  Al  Al25  1  0.45064525  0.76145335  0.33097015  1
  Al  Al26  1  0.10745556  0.76537952  0.82977788  1
  Al  Al27  1  0.21244231  0.87305774  0.57388425  1
  Al  Al28  1  0.78350017  0.77216506  0.40004531  1
  Al  Al29  1  0.88206122  0.88186795  0.10666257  1
  Al  Al30  1  0.55569136  0.87216124  0.60848258  1
  B  B31  1  0.89899424  0.17984620  0.56301541  1
  B  B32  1  0.77968443  0.09034668  0.31816573  1
  B  B33  1  0.89517111  0.87262704  0.61147276  1
  B  B34  1  0.55469810  0.87369230  0.11450850  1
  B  B35  1  0.44100706  0.76303709  0.81069496  1
  N  N36  1  0.22683239  0.19756993  0.37575112  1
  N  N37  1  0.10959271  0.09401673  0.13609502  1
  N  N38  1  0.89040544  0.19964646  0.88341249  1
  N  N39  1  0.80516395  0.07026489  0.62562073  1
  N  N40  1  0.58295028  0.19022552  0.37496138  1
  N  N41  1  0.46173956  0.06554354  0.13228379  1
  N  N42  1  0.22174612  0.20003704  0.88368482  1
  N  N43  1  0.08535837  0.10304727  0.62200307  1
  N  N44  1  0.88530100  0.17805937  0.39618342  1
  N  N45  1  0.77343554  0.11121029  0.15580947  1
  N  N46  1  0.55730766  0.20399332  0.88519546  1
  N  N47  1  0.43927556  0.10502438  0.63072981  1
  N  N48  1  0.22734806  0.54343661  0.38135103  1
  N  N49  1  0.10381241  0.43386064  0.09119769  1
  N  N50  1  0.88462803  0.54662480  0.83222154  1
  N  N51  1  0.79300129  0.39965756  0.59251201  1
  N  N52  1  0.55445166  0.53961873  0.38608957  1
  N  N53  1  0.44691317  0.43010670  0.13159440  1
  N  N54  1  0.22411230  0.54206895  0.87997416  1
  N  N55  1  0.10661440  0.42832692  0.58351141  1
  N  N56  1  0.88289273  0.54421999  0.33732277  1
  N  N57  1  0.77560636  0.43536837  0.08148428  1
  N  N58  1  0.53502033  0.57077110  0.87411249  1
  N  N59  1  0.44710037  0.41968195  0.63281253  1
  N  N60  1  0.22632879  0.86760651  0.38652538  1
  N  N61  1  0.12173642  0.76454768  0.12852457  1
  N  N62  1  0.88724226  0.87657251  0.89932717  1
  N  N63  1  0.80070388  0.77733672  0.59522399  1
  N  N64  1  0.55284819  0.87100845  0.40426131  1
  N  N65  1  0.45695250  0.78147033  0.13619238  1
  N  N66  1  0.24385778  0.86470284  0.87113376  1
  N  N67  1  0.08362510  0.77417491  0.63405976  1
  N  N68  1  0.87657887  0.89361473  0.33320754  1
  N  N69  1  0.74085269  0.77803539  0.09327450  1
  N  N70  1  0.54210516  0.85994797  0.83097168  1
  N  N71  1  0.43382756  0.75550325  0.64794152  1
