# generated using pymatgen
data_Al31B5N36
_symmetry_space_group_name_H-M   'P 1'
_cell_length_a   9.17011172
_cell_length_b   9.16600155
_cell_length_c   9.79834808
_cell_angle_alpha   90.05216157
_cell_angle_beta   90.23014480
_cell_angle_gamma   60.05856173
_symmetry_Int_Tables_number   1
_chemical_formula_structural   Al31B5N36
_chemical_formula_sum   'Al31 B5 N36'
_cell_volume   713.65806180
_cell_formula_units_Z   1
loop_
 _symmetry_equiv_pos_site_id
 _symmetry_equiv_pos_as_xyz
  1  'x, y, z'
loop_
 _atom_site_type_symbol
 _atom_site_label
 _atom_site_symmetry_multiplicity
 _atom_site_fract_x
 _atom_site_fract_y
 _atom_site_fract_z
 _atom_site_occupancy
  Al  Al0  1  0.10687435  0.09193032  0.31117500  1
  Al  Al1  1  0.22462765  0.19948845  0.05492910  1
  Al  Al2  1  0.78266895  0.09180954  0.79822837  1
  Al  Al3  1  0.45238690  0.08696665  0.30049098  1
  Al  Al4  1  0.56354786  0.19710003  0.06159194  1
  Al  Al5  1  0.10844084  0.09415845  0.79998879  1
  Al  Al6  1  0.21820698  0.20685018  0.55415064  1
  Al  Al7  1  0.88746031  0.20232976  0.06283193  1
  Al  Al8  1  0.44514740  0.08864822  0.81215328  1
  Al  Al9  1  0.56651208  0.19919660  0.55163991  1
  Al  Al10  1  0.11057296  0.42826512  0.30303441  1
  Al  Al11  1  0.22160286  0.54074490  0.05443813  1
  Al  Al12  1  0.77650785  0.42559350  0.80007645  1
  Al  Al13  1  0.88837926  0.54117120  0.55532458  1
  Al  Al14  1  0.44996790  0.42489374  0.30512713  1
  Al  Al15  1  0.55635375  0.54672706  0.05079306  1
  Al  Al16  1  0.10960469  0.42813134  0.80483467  1
  Al  Al17  1  0.21613867  0.54323082  0.55382062  1
  Al  Al18  1  0.77677816  0.42189101  0.31282033  1
  Al  Al19  1  0.88111629  0.54327715  0.05480536  1
  Al  Al20  1  0.44387505  0.43127833  0.80526718  1
  Al  Al21  1  0.55718006  0.53777436  0.56046215  1
  Al  Al22  1  0.10659212  0.76804664  0.31110638  1
  Al  Al23  1  0.22967232  0.87162244  0.05021639  1
  Al  Al24  1  0.77353095  0.76599006  0.80741684  1
  Al  Al25  1  0.44762183  0.76356380  0.30234545  1
  Al  Al26  1  0.10821450  0.76422482  0.80048390  1
  Al  Al27  1  0.21758247  0.87528195  0.56062952  1
  Al  Al28  1  0.77206336  0.77034987  0.30760403  1
  Al  Al29  1  0.88287860  0.87641026  0.06259937  1
  Al  Al30  1  0.55855899  0.87448022  0.56194762  1
  B  B31  1  0.89025834  0.19174231  0.54645687  1
  B  B32  1  0.77871778  0.09316559  0.31438248  1
  B  B33  1  0.88955304  0.88447842  0.54805245  1
  B  B34  1  0.55228267  0.86786083  0.05021163  1
  B  B35  1  0.44596743  0.76071453  0.80654361  1
  N  N36  1  0.22552882  0.20416748  0.36101359  1
  N  N37  1  0.11120545  0.09168139  0.11778705  1
  N  N38  1  0.88746714  0.20390441  0.87003145  1
  N  N39  1  0.80185686  0.08241835  0.60343501  1
  N  N40  1  0.57947258  0.19220176  0.35720259  1
  N  N41  1  0.45784561  0.06730728  0.10382916  1
  N  N42  1  0.21968551  0.20474193  0.86275414  1
  N  N43  1  0.08426381  0.10738424  0.60399535  1
  N  N44  1  0.87793402  0.19153668  0.37863354  1
  N  N45  1  0.78173119  0.09174711  0.14580950  1
  N  N46  1  0.56140930  0.20343456  0.86618410  1
  N  N47  1  0.44363651  0.09732904  0.61812081  1
  N  N48  1  0.22308990  0.53881155  0.36229013  1
  N  N49  1  0.10987675  0.42776327  0.11092527  1
  N  N50  1  0.88533946  0.54009424  0.86065724  1
  N  N51  1  0.78959012  0.39997252  0.60501355  1
  N  N52  1  0.55313271  0.54327104  0.36764419  1
  N  N53  1  0.44699856  0.42797967  0.11146701  1
  N  N54  1  0.22035692  0.54167760  0.86176982  1
  N  N55  1  0.10984583  0.42837185  0.61369582  1
  N  N56  1  0.88749571  0.54174834  0.36272192  1
  N  N57  1  0.77666395  0.42605331  0.11845840  1
  N  N58  1  0.54488862  0.56275213  0.85579691  1
  N  N59  1  0.44319201  0.42632269  0.61247734  1
  N  N60  1  0.22848030  0.86918590  0.36878870  1
  N  N61  1  0.11136165  0.76356958  0.11671645  1
  N  N62  1  0.88813442  0.87581770  0.87102606  1
  N  N63  1  0.78904276  0.77875122  0.61030208  1
  N  N64  1  0.55449253  0.87211164  0.37235496  1
  N  N65  1  0.45708127  0.77382648  0.10902185  1
  N  N66  1  0.24488567  0.86075873  0.85328732  1
  N  N67  1  0.08413629  0.77607414  0.60442018  1
  N  N68  1  0.87704203  0.89620852  0.37735113  1
  N  N69  1  0.75144360  0.77445232  0.10868800  1
  N  N70  1  0.54496937  0.85946060  0.87584767  1
  N  N71  1  0.44741486  0.76284698  0.63876272  1
