# generated using pymatgen
data_Al31B5N36
_symmetry_space_group_name_H-M   'P 1'
_cell_length_a   9.15878666
_cell_length_b   9.20273659
_cell_length_c   10.17349786
_cell_angle_alpha   89.64380774
_cell_angle_beta   89.45483680
_cell_angle_gamma   60.09450720
_symmetry_Int_Tables_number   1
_chemical_formula_structural   Al31B5N36
_chemical_formula_sum   'Al31 B5 N36'
_cell_volume   743.27303392
_cell_formula_units_Z   1
loop_
 _symmetry_equiv_pos_site_id
 _symmetry_equiv_pos_as_xyz
  1  'x, y, z'
loop_
 _atom_site_type_symbol
 _atom_site_label
 _atom_site_symmetry_multiplicity
 _atom_site_fract_x
 _atom_site_fract_y
 _atom_site_fract_z
 _atom_site_occupancy
  Al  Al0  1  0.09660757  0.10459265  0.39335715  1
  Al  Al1  1  0.22222979  0.19739031  0.13581705  1
  Al  Al2  1  0.77769138  0.08490978  0.80852241  1
  Al  Al3  1  0.44598083  0.09048432  0.37386031  1
  Al  Al4  1  0.55924791  0.20365102  0.07406736  1
  Al  Al5  1  0.11206758  0.09700868  0.87600589  1
  Al  Al6  1  0.22595039  0.20506129  0.63725863  1
  Al  Al7  1  0.88693861  0.20789739  0.13948198  1
  Al  Al8  1  0.44522937  0.07987731  0.89373414  1
  Al  Al9  1  0.57580653  0.18745342  0.55800641  1
  Al  Al10  1  0.11172270  0.42832531  0.38594550  1
  Al  Al11  1  0.22093445  0.53805410  0.13537922  1
  Al  Al12  1  0.77847237  0.43268306  0.87755862  1
  Al  Al13  1  0.89439320  0.54218712  0.63874093  1
  Al  Al14  1  0.46155025  0.42270649  0.32084987  1
  Al  Al15  1  0.54658374  0.55449300  0.05973301  1
  Al  Al16  1  0.11359892  0.42959123  0.88873656  1
  Al  Al17  1  0.22002413  0.53775712  0.62012393  1
  Al  Al18  1  0.78826647  0.41693438  0.39231798  1
  Al  Al19  1  0.87903787  0.54178766  0.13908430  1
  Al  Al20  1  0.45170017  0.42509131  0.81620552  1
  Al  Al21  1  0.55413036  0.53663116  0.57706966  1
  Al  Al22  1  0.10471551  0.77909229  0.32120637  1
  Al  Al23  1  0.23561224  0.86589718  0.05822042  1
  Al  Al24  1  0.76440593  0.76257198  0.89697830  1
  Al  Al25  1  0.44421589  0.76269540  0.31740974  1
  Al  Al26  1  0.10550036  0.76686077  0.82134523  1
  Al  Al27  1  0.20717378  0.87504703  0.57970873  1
  Al  Al28  1  0.78030121  0.77184948  0.37926034  1
  Al  Al29  1  0.88490383  0.87681274  0.08627196  1
  Al  Al30  1  0.55994432  0.87447257  0.63955859  1
  B  B31  1  0.91511137  0.23556651  0.65165942  1
  B  B32  1  0.77491352  0.08906279  0.30659041  1
  B  B33  1  0.88021499  0.86693920  0.59602942  1
  B  B34  1  0.55890731  0.87271241  0.14620932  1
  B  B35  1  0.43930674  0.75767681  0.80664767  1
  N  N36  1  0.21735583  0.20579659  0.32231657  1
  N  N37  1  0.10225078  0.09993574  0.06412545  1
  N  N38  1  0.89240585  0.21517667  0.79827498  1
  N  N39  1  0.77661887  0.04103370  0.63298720  1
  N  N40  1  0.58544775  0.19426200  0.36923161  1
  N  N41  1  0.45319570  0.06551491  0.08471622  1
  N  N42  1  0.22785866  0.20658486  0.82385489  1
  N  N43  1  0.08090584  0.11813466  0.58759617  1
  N  N44  1  0.88017080  0.20024712  0.32543533  1
  N  N45  1  0.76831379  0.09389699  0.14722438  1
  N  N46  1  0.56220190  0.20663698  0.88554348  1
  N  N47  1  0.43772677  0.08425794  0.56215621  1
  N  N48  1  0.22433308  0.54183779  0.34283253  1
  N  N49  1  0.10988871  0.42744948  0.07691218  1
  N  N50  1  0.89033204  0.54579175  0.82482032  1
  N  N51  1  0.79931960  0.40354991  0.58720265  1
  N  N52  1  0.55495837  0.54702064  0.38953172  1
  N  N53  1  0.45358780  0.42811560  0.13022884  1
  N  N54  1  0.22210188  0.53857435  0.82976208  1
  N  N55  1  0.11260355  0.42329081  0.57255549  1
  N  N56  1  0.88762460  0.54032355  0.32624652  1
  N  N57  1  0.78151613  0.42251368  0.06608247  1
  N  N58  1  0.53866971  0.56859693  0.86714043  1
  N  N59  1  0.45831047  0.40889984  0.62642116  1
  N  N60  1  0.22811698  0.87201766  0.39251981  1
  N  N61  1  0.11586518  0.76838860  0.12923293  1
  N  N62  1  0.89076328  0.87874324  0.89591863  1
  N  N63  1  0.78773594  0.76262505  0.57164920  1
  N  N64  1  0.56423767  0.87735770  0.30563535  1
  N  N65  1  0.45184943  0.77135313  0.12992545  1
  N  N66  1  0.24844816  0.85754127  0.86484188  1
  N  N67  1  0.07248432  0.77652869  0.62662556  1
  N  N68  1  0.87693583  0.90372713  0.35113953  1
  N  N69  1  0.74741036  0.76944851  0.08603026  1
  N  N70  1  0.54701629  0.86233825  0.82466935  1
  N  N71  1  0.43337398  0.75517803  0.64735606  1
