# generated using pymatgen
data_Al31B5N36
_symmetry_space_group_name_H-M   'P 1'
_cell_length_a   9.19201109
_cell_length_b   9.18821989
_cell_length_c   9.98757481
_cell_angle_alpha   89.55658855
_cell_angle_beta   89.26876919
_cell_angle_gamma   59.96576101
_symmetry_Int_Tables_number   1
_chemical_formula_structural   Al31B5N36
_chemical_formula_sum   'Al31 B5 N36'
_cell_volume   730.20828592
_cell_formula_units_Z   1
loop_
 _symmetry_equiv_pos_site_id
 _symmetry_equiv_pos_as_xyz
  1  'x, y, z'
loop_
 _atom_site_type_symbol
 _atom_site_label
 _atom_site_symmetry_multiplicity
 _atom_site_fract_x
 _atom_site_fract_y
 _atom_site_fract_z
 _atom_site_occupancy
  Al  Al0  1  0.09949846  0.09467469  0.40677617  1
  Al  Al1  1  0.22681840  0.19878766  0.15141141  1
  Al  Al2  1  0.78133502  0.09133708  0.86248304  1
  Al  Al3  1  0.44840873  0.09065352  0.39552884  1
  Al  Al4  1  0.55814922  0.20451839  0.07379732  1
  Al  Al5  1  0.11471223  0.09034360  0.89653149  1
  Al  Al6  1  0.21816121  0.20682111  0.65066445  1
  Al  Al7  1  0.88759821  0.20119023  0.14229994  1
  Al  Al8  1  0.43938068  0.07855198  0.90259277  1
  Al  Al9  1  0.57993916  0.19492414  0.58702081  1
  Al  Al10  1  0.10881745  0.42911595  0.40207846  1
  Al  Al11  1  0.21611498  0.54313886  0.15213573  1
  Al  Al12  1  0.77361441  0.43178316  0.89353533  1
  Al  Al13  1  0.88591162  0.53972724  0.65098297  1
  Al  Al14  1  0.45531835  0.41789613  0.33594204  1
  Al  Al15  1  0.55572115  0.55127760  0.12347858  1
  Al  Al16  1  0.11080162  0.42670612  0.90132545  1
  Al  Al17  1  0.20716986  0.54684373  0.64774716  1
  Al  Al18  1  0.78839026  0.41213336  0.40169016  1
  Al  Al19  1  0.88221282  0.54488991  0.15092535  1
  Al  Al20  1  0.44716605  0.43021990  0.82406137  1
  Al  Al21  1  0.55531851  0.53754731  0.58405558  1
  Al  Al22  1  0.09799093  0.77427186  0.40624531  1
  Al  Al23  1  0.22618642  0.87483897  0.15146567  1
  Al  Al24  1  0.76911636  0.76076565  0.90001183  1
  Al  Al25  1  0.44408091  0.76977560  0.37609911  1
  Al  Al26  1  0.11666901  0.75739588  0.89792019  1
  Al  Al27  1  0.21789266  0.87519956  0.64693259  1
  Al  Al28  1  0.77565759  0.77385007  0.40156974  1
  Al  Al29  1  0.88039799  0.88013856  0.14374621  1
  Al  Al30  1  0.55658308  0.87287671  0.64689088  1
  B  B31  1  0.89638577  0.19464497  0.66088346  1
  B  B32  1  0.77991573  0.09364000  0.36109861  1
  B  B33  1  0.89583342  0.87927295  0.66216001  1
  B  B34  1  0.55518329  0.87416319  0.15838743  1
  B  B35  1  0.44564931  0.75567735  0.85829401  1
  N  N36  1  0.21909081  0.20459939  0.34234750  1
  N  N37  1  0.11141213  0.09474981  0.08604147  1
  N  N38  1  0.89501943  0.20954839  0.82220514  1
  N  N39  1  0.80480390  0.08072751  0.63813507  1
  N  N40  1  0.59227312  0.18891376  0.38607942  1
  N  N41  1  0.45682945  0.06740574  0.09803872  1
  N  N42  1  0.22264789  0.20441851  0.83972861  1
  N  N43  1  0.08633497  0.10601127  0.59912402  1
  N  N44  1  0.87502256  0.18925145  0.33653936  1
  N  N45  1  0.78902176  0.08998556  0.06915718  1
  N  N46  1  0.54552068  0.20856366  0.88084403  1
  N  N47  1  0.44256622  0.09454861  0.58731865  1
  N  N48  1  0.21491591  0.54675973  0.34643789  1
  N  N49  1  0.11165233  0.42677604  0.09196478  1
  N  N50  1  0.88826241  0.53974471  0.84018441  1
  N  N51  1  0.79338844  0.39759694  0.59534663  1
  N  N52  1  0.56084005  0.53598428  0.37414616  1
  N  N53  1  0.45131318  0.42255869  0.14247151  1
  N  N54  1  0.21622068  0.54006968  0.83839558  1
  N  N55  1  0.10747598  0.42787836  0.58927473  1
  N  N56  1  0.88557965  0.54227101  0.34248437  1
  N  N57  1  0.78217066  0.42480215  0.08696662  1
  N  N58  1  0.53837208  0.56930409  0.86431523  1
  N  N59  1  0.44522265  0.42446716  0.62990072  1
  N  N60  1  0.21365387  0.87738708  0.34295431  1
  N  N61  1  0.11154711  0.76298672  0.08829865  1
  N  N62  1  0.89415058  0.86000007  0.82448059  1
  N  N63  1  0.78656166  0.77662906  0.59471749  1
  N  N64  1  0.56322626  0.87809438  0.32261579  1
  N  N65  1  0.45766357  0.77826212  0.13122416  1
  N  N66  1  0.25099116  0.85631551  0.83990716  1
  N  N67  1  0.08426251  0.77799741  0.59863711  1
  N  N68  1  0.87362731  0.90424767  0.33803172  1
  N  N69  1  0.75471934  0.77464662  0.09458943  1
  N  N70  1  0.54064690  0.85392761  0.83814011  1
  N  N71  1  0.43991493  0.77195621  0.57609038  1
