# generated using pymatgen
data_Al31B5N36
_symmetry_space_group_name_H-M   'P 1'
_cell_length_a   9.20235005
_cell_length_b   9.24559012
_cell_length_c   9.93615369
_cell_angle_alpha   89.77281683
_cell_angle_beta   89.73320831
_cell_angle_gamma   60.00339202
_symmetry_Int_Tables_number   1
_chemical_formula_structural   Al31B5N36
_chemical_formula_sum   'Al31 B5 N36'
_cell_volume   732.13585595
_cell_formula_units_Z   1
loop_
 _symmetry_equiv_pos_site_id
 _symmetry_equiv_pos_as_xyz
  1  'x, y, z'
loop_
 _atom_site_type_symbol
 _atom_site_label
 _atom_site_symmetry_multiplicity
 _atom_site_fract_x
 _atom_site_fract_y
 _atom_site_fract_z
 _atom_site_occupancy
  Al  Al0  1  0.10891526  0.08843680  0.32438136  1
  Al  Al1  1  0.22783818  0.19363922  0.07875083  1
  Al  Al2  1  0.78200202  0.09013981  0.82532671  1
  Al  Al3  1  0.45584537  0.08271648  0.33040102  1
  Al  Al4  1  0.56094989  0.19995602  0.07658120  1
  Al  Al5  1  0.10558350  0.09461039  0.81831982  1
  Al  Al6  1  0.21754924  0.19964899  0.57002908  1
  Al  Al7  1  0.88491479  0.21190380  0.07661511  1
  Al  Al8  1  0.44008070  0.09346437  0.81946787  1
  Al  Al9  1  0.57013532  0.19648296  0.56624963  1
  Al  Al10  1  0.10842868  0.43162678  0.38817275  1
  Al  Al11  1  0.22783371  0.54227664  0.07322701  1
  Al  Al12  1  0.76746635  0.43323092  0.81262308  1
  Al  Al13  1  0.89406393  0.55148210  0.64399473  1
  Al  Al14  1  0.45267924  0.42307195  0.32035853  1
  Al  Al15  1  0.56116164  0.54835400  0.07081495  1
  Al  Al16  1  0.10208917  0.43091933  0.89268032  1
  Al  Al17  1  0.22521619  0.54169765  0.57706804  1
  Al  Al18  1  0.77926640  0.41768900  0.35032529  1
  Al  Al19  1  0.88185377  0.54809928  0.15275192  1
  Al  Al20  1  0.44573519  0.43066614  0.82319760  1
  Al  Al21  1  0.55352831  0.54204596  0.57662646  1
  Al  Al22  1  0.11061471  0.76563446  0.31817081  1
  Al  Al23  1  0.23398704  0.87342102  0.06577899  1
  Al  Al24  1  0.75827759  0.76630611  0.89698897  1
  Al  Al25  1  0.45051061  0.76159588  0.33039711  1
  Al  Al26  1  0.10802792  0.76361435  0.83119898  1
  Al  Al27  1  0.21357717  0.87074076  0.57449278  1
  Al  Al28  1  0.78253679  0.77469734  0.40125705  1
  Al  Al29  1  0.88298978  0.88095632  0.10491828  1
  Al  Al30  1  0.55460007  0.87192100  0.61054269  1
  B  B31  1  0.91179697  0.14679356  0.55408862  1
  B  B32  1  0.77602316  0.08829585  0.31477150  1
  B  B33  1  0.89720264  0.87168448  0.61188554  1
  B  B34  1  0.55517656  0.87146984  0.11484796  1
  B  B35  1  0.43966588  0.76436811  0.81116369  1
  N  N36  1  0.22513197  0.19899947  0.37548369  1
  N  N37  1  0.10871981  0.09156977  0.13426318  1
  N  N38  1  0.88220214  0.21174082  0.88431656  1
  N  N39  1  0.80977078  0.06783122  0.62336306  1
  N  N40  1  0.58261141  0.18982930  0.37343223  1
  N  N41  1  0.46210765  0.06292083  0.13225967  1
  N  N42  1  0.22057340  0.19904952  0.88260604  1
  N  N43  1  0.08136417  0.10105635  0.62099567  1
  N  N44  1  0.88484770  0.18062649  0.40067986  1
  N  N45  1  0.77382991  0.10840070  0.15311156  1
  N  N46  1  0.55691747  0.20223922  0.88360426  1
  N  N47  1  0.43909279  0.10530372  0.62916774  1
  N  N48  1  0.22819074  0.54373090  0.38160465  1
  N  N49  1  0.10636426  0.43039488  0.09293681  1
  N  N50  1  0.88555400  0.54818023  0.83695120  1
  N  N51  1  0.77463559  0.43846489  0.62223923  1
  N  N52  1  0.55203581  0.54063859  0.38671723  1
  N  N53  1  0.44918128  0.42783635  0.12938064  1
  N  N54  1  0.22440582  0.54044432  0.87932047  1
  N  N55  1  0.11011407  0.42753390  0.58684743  1
  N  N56  1  0.88564143  0.55074672  0.34420542  1
  N  N57  1  0.77463521  0.42504190  0.14611773  1
  N  N58  1  0.54141223  0.56659648  0.87693725  1
  N  N59  1  0.45132470  0.42009846  0.63253878  1
  N  N60  1  0.22536930  0.86840364  0.38557249  1
  N  N61  1  0.12204337  0.76171003  0.12783915  1
  N  N62  1  0.88670876  0.87715291  0.89889489  1
  N  N63  1  0.79982772  0.78427795  0.59703549  1
  N  N64  1  0.55220826  0.87062487  0.40495608  1
  N  N65  1  0.45951440  0.77813063  0.13469683  1
  N  N66  1  0.24258588  0.86419950  0.87234454  1
  N  N67  1  0.08481434  0.77259724  0.63393907  1
  N  N68  1  0.87615255  0.89544907  0.33388703  1
  N  N69  1  0.74168819  0.77583938  0.09430264  1
  N  N70  1  0.54174135  0.85975486  0.83016793  1
  N  N71  1  0.42815532  0.75992116  0.64909548  1
