# generated using pymatgen
data_Al31B5N36
_symmetry_space_group_name_H-M   'P 1'
_cell_length_a   9.16554861
_cell_length_b   9.16194106
_cell_length_c   9.82214538
_cell_angle_alpha   90.08854106
_cell_angle_beta   89.88100005
_cell_angle_gamma   60.04758132
_symmetry_Int_Tables_number   1
_chemical_formula_structural   Al31B5N36
_chemical_formula_sum   'Al31 B5 N36'
_cell_volume   714.64129915
_cell_formula_units_Z   1
loop_
 _symmetry_equiv_pos_site_id
 _symmetry_equiv_pos_as_xyz
  1  'x, y, z'
loop_
 _atom_site_type_symbol
 _atom_site_label
 _atom_site_symmetry_multiplicity
 _atom_site_fract_x
 _atom_site_fract_y
 _atom_site_fract_z
 _atom_site_occupancy
  Al  Al0  1  0.10137963  0.09382002  0.40252908  1
  Al  Al1  1  0.22435352  0.20023394  0.14849185  1
  Al  Al2  1  0.77993428  0.09327943  0.88296435  1
  Al  Al3  1  0.45019368  0.08907225  0.39094818  1
  Al  Al4  1  0.56387247  0.19746684  0.14891305  1
  Al  Al5  1  0.11387871  0.09183211  0.89312115  1
  Al  Al6  1  0.21927772  0.20586664  0.64771765  1
  Al  Al7  1  0.88592895  0.20225759  0.14823670  1
  Al  Al8  1  0.44657396  0.08641136  0.90151403  1
  Al  Al9  1  0.56606989  0.19924468  0.64082295  1
  Al  Al10  1  0.10905879  0.42853380  0.39845686  1
  Al  Al11  1  0.22061024  0.54098954  0.14960177  1
  Al  Al12  1  0.77716290  0.42861148  0.89145409  1
  Al  Al13  1  0.88928513  0.54030915  0.64687622  1
  Al  Al14  1  0.44960546  0.42540064  0.39744191  1
  Al  Al15  1  0.55696289  0.54440235  0.14037460  1
  Al  Al16  1  0.11139196  0.42821415  0.89926115  1
  Al  Al17  1  0.21745563  0.54298256  0.64780668  1
  Al  Al18  1  0.77591049  0.41872103  0.40289407  1
  Al  Al19  1  0.88127626  0.54382197  0.14883595  1
  Al  Al20  1  0.44397447  0.43111298  0.89773255  1
  Al  Al21  1  0.55656796  0.53968736  0.65273828  1
  Al  Al22  1  0.10081038  0.77187616  0.40230423  1
  Al  Al23  1  0.22703975  0.87280656  0.14126776  1
  Al  Al24  1  0.77140097  0.76439883  0.89548169  1
  Al  Al25  1  0.44573401  0.76200380  0.38988269  1
  Al  Al26  1  0.11366557  0.76204187  0.89296686  1
  Al  Al27  1  0.22089853  0.87354540  0.65234183  1
  Al  Al28  1  0.77314972  0.77262772  0.39638311  1
  Al  Al29  1  0.88087283  0.87967892  0.14809336  1
  Al  Al30  1  0.55742028  0.87188773  0.65034196  1
  B  B31  1  0.89448379  0.19572738  0.64987013  1
  B  B32  1  0.78344416  0.09151010  0.39569786  1
  B  B33  1  0.89353219  0.87746753  0.64864768  1
  B  B34  1  0.55663324  0.87272647  0.14423724  1
  B  B35  1  0.44968556  0.76521008  0.90238152  1
  N  N36  1  0.21951425  0.20371744  0.34075564  1
  N  N37  1  0.10723973  0.09638889  0.08534151  1
  N  N38  1  0.89116105  0.20354181  0.81491554  1
  N  N39  1  0.80186344  0.08237411  0.58871782  1
  N  N40  1  0.58362779  0.19134844  0.34679782  1
  N  N41  1  0.45753455  0.07080993  0.09674618  1
  N  N42  1  0.22484900  0.20520879  0.83998105  1
  N  N43  1  0.08844617  0.10392796  0.59731745  1
  N  N44  1  0.87485992  0.19115099  0.34248902  1
  N  N45  1  0.77940519  0.09377423  0.07458036  1
  N  N46  1  0.55365673  0.20468596  0.83507641  1
  N  N47  1  0.44477761  0.09160481  0.58406334  1
  N  N48  1  0.21993517  0.54306489  0.34222846  1
  N  N49  1  0.10962961  0.42802432  0.09176127  1
  N  N50  1  0.88940634  0.54095794  0.83869165  1
  N  N51  1  0.78806367  0.40240624  0.59733569  1
  N  N52  1  0.55701901  0.53876782  0.33346858  1
  N  N53  1  0.44499057  0.42509612  0.09085091  1
  N  N54  1  0.22253092  0.53880317  0.83861035  1
  N  N55  1  0.11098355  0.42765012  0.58855935  1
  N  N56  1  0.88342394  0.54114066  0.34305170  1
  N  N57  1  0.78101305  0.42312017  0.08446534  1
  N  N58  1  0.54358937  0.56511725  0.84817234  1
  N  N59  1  0.44441523  0.42943562  0.58973937  1
  N  N60  1  0.22109995  0.87272621  0.33600952  1
  N  N61  1  0.10642241  0.76341559  0.08634170  1
  N  N62  1  0.88977495  0.87162680  0.81562292  1
  N  N63  1  0.78679439  0.77750706  0.59239886  1
  N  N64  1  0.55555082  0.87018627  0.31249466  1
  N  N65  1  0.45670075  0.77363710  0.07534720  1
  N  N66  1  0.25034355  0.85908036  0.84697843  1
  N  N67  1  0.08788333  0.77552689  0.59723355  1
  N  N68  1  0.87440051  0.90094448  0.34172963  1
  N  N69  1  0.75441822  0.77532749  0.09234421  1
  N  N70  1  0.54360856  0.85979092  0.84194188  1
  N  N71  1  0.44662296  0.76136348  0.58181265  1
