# generated using pymatgen
data_Al31B5N36
_symmetry_space_group_name_H-M   'P 1'
_cell_length_a   9.17154698
_cell_length_b   9.16851047
_cell_length_c   10.05740929
_cell_angle_alpha   89.43790532
_cell_angle_beta   89.28431812
_cell_angle_gamma   60.00513231
_symmetry_Int_Tables_number   1
_chemical_formula_structural   Al31B5N36
_chemical_formula_sum   'Al31 B5 N36'
_cell_volume   732.39105455
_cell_formula_units_Z   1
loop_
 _symmetry_equiv_pos_site_id
 _symmetry_equiv_pos_as_xyz
  1  'x, y, z'
loop_
 _atom_site_type_symbol
 _atom_site_label
 _atom_site_symmetry_multiplicity
 _atom_site_fract_x
 _atom_site_fract_y
 _atom_site_fract_z
 _atom_site_occupancy
  Al  Al0  1  0.10174067  0.09315981  0.39554556  1
  Al  Al1  1  0.22593607  0.19919158  0.14042889  1
  Al  Al2  1  0.78095067  0.09074478  0.85056416  1
  Al  Al3  1  0.44874025  0.09054158  0.38469108  1
  Al  Al4  1  0.55791266  0.20442315  0.06213972  1
  Al  Al5  1  0.11429158  0.09076947  0.88556634  1
  Al  Al6  1  0.21879548  0.20636396  0.63869086  1
  Al  Al7  1  0.88464635  0.20427213  0.13050064  1
  Al  Al8  1  0.43869734  0.07922079  0.89154995  1
  Al  Al9  1  0.57997426  0.19660514  0.57369198  1
  Al  Al10  1  0.11073759  0.42870035  0.38997575  1
  Al  Al11  1  0.21509302  0.54282389  0.14022250  1
  Al  Al12  1  0.78031551  0.42744066  0.87875128  1
  Al  Al13  1  0.88656174  0.53932634  0.63803665  1
  Al  Al14  1  0.46063528  0.41953628  0.31651926  1
  Al  Al15  1  0.54532040  0.55769315  0.06744828  1
  Al  Al16  1  0.11063431  0.42685491  0.89015459  1
  Al  Al17  1  0.20829736  0.54632641  0.63743538  1
  Al  Al18  1  0.78910454  0.41130187  0.39205744  1
  Al  Al19  1  0.87852497  0.54437565  0.13972556  1
  Al  Al20  1  0.44696127  0.42910071  0.81314843  1
  Al  Al21  1  0.55222202  0.53871364  0.56573386  1
  Al  Al22  1  0.10099270  0.77221689  0.39516529  1
  Al  Al23  1  0.22108890  0.87685643  0.14049411  1
  Al  Al24  1  0.76922297  0.76066418  0.88836460  1
  Al  Al25  1  0.45069761  0.76181788  0.33784501  1
  Al  Al26  1  0.11468277  0.75799888  0.88667375  1
  Al  Al27  1  0.21777194  0.87493385  0.63596622  1
  Al  Al28  1  0.77696878  0.77351927  0.39101629  1
  Al  Al29  1  0.87958326  0.88003319  0.13322596  1
  Al  Al30  1  0.55661511  0.87287811  0.63569505  1
  B  B31  1  0.89630924  0.19486034  0.64790591  1
  B  B32  1  0.78071067  0.09373170  0.34885967  1
  B  B33  1  0.89497865  0.87866338  0.64916466  1
  B  B34  1  0.55743774  0.87498149  0.14692682  1
  B  B35  1  0.44218952  0.76010628  0.84085686  1
  N  N36  1  0.21990749  0.20423575  0.33003807  1
  N  N37  1  0.10994112  0.09590661  0.07400129  1
  N  N38  1  0.89610544  0.20734265  0.80916757  1
  N  N39  1  0.80454888  0.08036018  0.62579390  1
  N  N40  1  0.59234361  0.19037354  0.37296991  1
  N  N41  1  0.45595745  0.06665696  0.08576227  1
  N  N42  1  0.22230484  0.20479344  0.82736363  1
  N  N43  1  0.08682087  0.10567402  0.58679117  1
  N  N44  1  0.87611170  0.18959069  0.32426522  1
  N  N45  1  0.78900826  0.08956050  0.05793675  1
  N  N46  1  0.54564347  0.20830795  0.87109106  1
  N  N47  1  0.44326750  0.09478758  0.57492000  1
  N  N48  1  0.21796526  0.54524112  0.33248800  1
  N  N49  1  0.10949302  0.42723057  0.07982618  1
  N  N50  1  0.88865518  0.54057559  0.82611109  1
  N  N51  1  0.79376803  0.39641997  0.58573354  1
  N  N52  1  0.56019181  0.53464462  0.37526889  1
  N  N53  1  0.45137243  0.42547590  0.12610074  1
  N  N54  1  0.21574392  0.54067491  0.82732781  1
  N  N55  1  0.10871995  0.42783284  0.57644394  1
  N  N56  1  0.88588129  0.54174460  0.33063546  1
  N  N57  1  0.77993046  0.42579910  0.07046465  1
  N  N58  1  0.53446744  0.57164135  0.86961128  1
  N  N59  1  0.44727800  0.42383429  0.62399776  1
  N  N60  1  0.21508952  0.87653447  0.33100467  1
  N  N61  1  0.11006690  0.76294434  0.07589755  1
  N  N62  1  0.89333466  0.85997757  0.81223079  1
  N  N63  1  0.78710502  0.77713818  0.58309200  1
  N  N64  1  0.56644646  0.87962910  0.30987388  1
  N  N65  1  0.45765347  0.77363335  0.13079224  1
  N  N66  1  0.24878313  0.85771209  0.82970716  1
  N  N67  1  0.08457254  0.77716978  0.58682657  1
  N  N68  1  0.87539943  0.90356538  0.32645615  1
  N  N69  1  0.75319777  0.77481138  0.08233616  1
  N  N70  1  0.54030263  0.85468089  0.82761418  1
  N  N71  1  0.44085711  0.76906781  0.57869707  1
