# generated using pymatgen
data_Al31B5N36
_symmetry_space_group_name_H-M   'P 1'
_cell_length_a   9.19394626
_cell_length_b   9.20027842
_cell_length_c   9.97635850
_cell_angle_alpha   90.05697739
_cell_angle_beta   89.87099164
_cell_angle_gamma   59.92360636
_symmetry_Int_Tables_number   1
_chemical_formula_structural   Al31B5N36
_chemical_formula_sum   'Al31 B5 N36'
_cell_volume   730.24462694
_cell_formula_units_Z   1
loop_
 _symmetry_equiv_pos_site_id
 _symmetry_equiv_pos_as_xyz
  1  'x, y, z'
loop_
 _atom_site_type_symbol
 _atom_site_label
 _atom_site_symmetry_multiplicity
 _atom_site_fract_x
 _atom_site_fract_y
 _atom_site_fract_z
 _atom_site_occupancy
  Al  Al0  1  0.10627459  0.09032288  0.32677723  1
  Al  Al1  1  0.22784361  0.19429259  0.07909967  1
  Al  Al2  1  0.78134873  0.08875915  0.82455021  1
  Al  Al3  1  0.45582264  0.08346134  0.32992471  1
  Al  Al4  1  0.56119785  0.20033554  0.07698603  1
  Al  Al5  1  0.10854629  0.09365231  0.81769498  1
  Al  Al6  1  0.21965557  0.19909390  0.56999990  1
  Al  Al7  1  0.88721857  0.20877881  0.07696022  1
  Al  Al8  1  0.44037341  0.09354052  0.82003013  1
  Al  Al9  1  0.57072422  0.19519060  0.56693917  1
  Al  Al10  1  0.10707882  0.43180752  0.38833221  1
  Al  Al11  1  0.22741039  0.54345965  0.07226313  1
  Al  Al12  1  0.77055868  0.42424892  0.81746355  1
  Al  Al13  1  0.89474199  0.54372242  0.64227602  1
  Al  Al14  1  0.45106109  0.42362062  0.32087662  1
  Al  Al15  1  0.55964249  0.54906158  0.06921217  1
  Al  Al16  1  0.10112924  0.43110429  0.89206838  1
  Al  Al17  1  0.22312895  0.54434819  0.57608751  1
  Al  Al18  1  0.77705668  0.41735790  0.33619051  1
  Al  Al19  1  0.88215379  0.55035126  0.15146525  1
  Al  Al20  1  0.44464956  0.43012480  0.82191567  1
  Al  Al21  1  0.55885213  0.53267538  0.57493174  1
  Al  Al22  1  0.10958998  0.76722987  0.31853688  1
  Al  Al23  1  0.23410166  0.87397993  0.06556279  1
  Al  Al24  1  0.75823178  0.76549472  0.89572703  1
  Al  Al25  1  0.44944684  0.76258762  0.33100633  1
  Al  Al26  1  0.10780655  0.76420447  0.82974147  1
  Al  Al27  1  0.21231987  0.87401055  0.57506729  1
  Al  Al28  1  0.78254308  0.77525606  0.40157572  1
  Al  Al29  1  0.88294156  0.88154567  0.10344975  1
  Al  Al30  1  0.55485051  0.87244510  0.60942003  1
  B  B31  1  0.89530314  0.18840293  0.56446937  1
  B  B32  1  0.77651058  0.09067955  0.31729520  1
  B  B33  1  0.89501876  0.87580415  0.61142324  1
  B  B34  1  0.55489854  0.87207989  0.11459571  1
  B  B35  1  0.44226238  0.76207190  0.81062397  1
  N  N36  1  0.22604572  0.19889759  0.37586266  1
  N  N37  1  0.10965204  0.09200679  0.13615022  1
  N  N38  1  0.88629859  0.20545617  0.88712679  1
  N  N39  1  0.80481730  0.07217422  0.62690952  1
  N  N40  1  0.58200149  0.19083205  0.37439954  1
  N  N41  1  0.46207720  0.06384503  0.13271077  1
  N  N42  1  0.22182034  0.19866329  0.88460380  1
  N  N43  1  0.08462684  0.10459144  0.62369476  1
  N  N44  1  0.88176273  0.18962624  0.39965090  1
  N  N45  1  0.77369149  0.10909300  0.15458876  1
  N  N46  1  0.55680670  0.20270198  0.88511155  1
  N  N47  1  0.43929090  0.10538296  0.63070074  1
  N  N48  1  0.22667811  0.54464451  0.38165514  1
  N  N49  1  0.10481404  0.43267798  0.09097619  1
  N  N50  1  0.88337649  0.54509934  0.83267428  1
  N  N51  1  0.78915177  0.39842740  0.62319914  1
  N  N52  1  0.55398990  0.53979504  0.38641355  1
  N  N53  1  0.44832038  0.42934221  0.13022994  1
  N  N54  1  0.22369681  0.54071576  0.87905207  1
  N  N55  1  0.10937765  0.42829575  0.58542416  1
  N  N56  1  0.88422192  0.55054278  0.34233260  1
  N  N57  1  0.77478933  0.42660593  0.14019910  1
  N  N58  1  0.54338743  0.56396928  0.87566808  1
  N  N59  1  0.44875052  0.42036595  0.63219022  1
  N  N60  1  0.22504472  0.86906148  0.38680641  1
  N  N61  1  0.12135107  0.76329062  0.12851065  1
  N  N62  1  0.88723370  0.87536425  0.89915406  1
  N  N63  1  0.79988839  0.78126954  0.59671725  1
  N  N64  1  0.55203032  0.87137127  0.40490656  1
  N  N65  1  0.45958989  0.77804177  0.13507475  1
  N  N66  1  0.24494431  0.86226005  0.87172426  1
  N  N67  1  0.08361592  0.77517663  0.63415960  1
  N  N68  1  0.87591448  0.89708994  0.33654535  1
  N  N69  1  0.74155156  0.77652454  0.09267454  1
  N  N70  1  0.54177865  0.85923193  0.83072794  1
  N  N71  1  0.43501636  0.75334386  0.64792313  1
