# generated using pymatgen
data_Al31B5N36
_symmetry_space_group_name_H-M   'P 1'
_cell_length_a   9.19825911
_cell_length_b   9.18033399
_cell_length_c   9.95192667
_cell_angle_alpha   90.23988514
_cell_angle_beta   89.93543772
_cell_angle_gamma   59.90340488
_symmetry_Int_Tables_number   1
_chemical_formula_structural   Al31B5N36
_chemical_formula_sum   'Al31 B5 N36'
_cell_volume   727.06216749
_cell_formula_units_Z   1
loop_
 _symmetry_equiv_pos_site_id
 _symmetry_equiv_pos_as_xyz
  1  'x, y, z'
loop_
 _atom_site_type_symbol
 _atom_site_label
 _atom_site_symmetry_multiplicity
 _atom_site_fract_x
 _atom_site_fract_y
 _atom_site_fract_z
 _atom_site_occupancy
  Al  Al0  1  0.10633386  0.09159265  0.32363693  1
  Al  Al1  1  0.22410711  0.20108161  0.07124837  1
  Al  Al2  1  0.78151651  0.08774521  0.82042401  1
  Al  Al3  1  0.45631779  0.08352929  0.32578289  1
  Al  Al4  1  0.56093344  0.20068895  0.07334044  1
  Al  Al5  1  0.10904309  0.09418055  0.81367066  1
  Al  Al6  1  0.21705499  0.20657997  0.56445573  1
  Al  Al7  1  0.88763695  0.20832151  0.07292024  1
  Al  Al8  1  0.44159353  0.09182033  0.81692278  1
  Al  Al9  1  0.57015894  0.19491225  0.56364897  1
  Al  Al10  1  0.11862504  0.42629139  0.32212820  1
  Al  Al11  1  0.22372272  0.54040375  0.06612629  1
  Al  Al12  1  0.77152329  0.42306915  0.81454015  1
  Al  Al13  1  0.88750172  0.54446714  0.63056234  1
  Al  Al14  1  0.45115176  0.42379255  0.31699218  1
  Al  Al15  1  0.55727072  0.54936661  0.06453879  1
  Al  Al16  1  0.11451187  0.42520361  0.81996155  1
  Al  Al17  1  0.21885615  0.54161739  0.56911771  1
  Al  Al18  1  0.77668408  0.41766522  0.33234482  1
  Al  Al19  1  0.87614862  0.55352344  0.14526539  1
  Al  Al20  1  0.44455085  0.43013513  0.81784485  1
  Al  Al21  1  0.55679911  0.53190072  0.57070373  1
  Al  Al22  1  0.10969840  0.76743742  0.31495591  1
  Al  Al23  1  0.23351426  0.87466215  0.06196311  1
  Al  Al24  1  0.75984664  0.76312120  0.89102717  1
  Al  Al25  1  0.44934198  0.76305321  0.32623536  1
  Al  Al26  1  0.10782895  0.76406955  0.82588412  1
  Al  Al27  1  0.21200798  0.87498896  0.57163064  1
  Al  Al28  1  0.78404371  0.77426190  0.39707912  1
  Al  Al29  1  0.88327409  0.88183182  0.09895047  1
  Al  Al30  1  0.55389876  0.87314797  0.60327985  1
  B  B31  1  0.89397496  0.19196680  0.56091540  1
  B  B32  1  0.77757344  0.09152399  0.31423718  1
  B  B33  1  0.89482497  0.87616922  0.60687665  1
  B  B34  1  0.55294014  0.87398749  0.10929054  1
  B  B35  1  0.44320947  0.76150567  0.80656028  1
  N  N36  1  0.22535628  0.20280872  0.37503662  1
  N  N37  1  0.11015455  0.09420195  0.13198359  1
  N  N38  1  0.88718284  0.20367918  0.88310926  1
  N  N39  1  0.80400835  0.07219088  0.62319615  1
  N  N40  1  0.58210143  0.19119360  0.37066017  1
  N  N41  1  0.45980701  0.06578464  0.12786602  1
  N  N42  1  0.22023251  0.20406956  0.88090912  1
  N  N43  1  0.08467143  0.10698221  0.61896848  1
  N  N44  1  0.88107885  0.18987153  0.39479131  1
  N  N45  1  0.77369570  0.10952874  0.15091335  1
  N  N46  1  0.55716136  0.20250286  0.88104277  1
  N  N47  1  0.43852282  0.10517979  0.62679690  1
  N  N48  1  0.22438824  0.54208755  0.37942009  1
  N  N49  1  0.11373246  0.42903808  0.12809141  1
  N  N50  1  0.88157414  0.54419190  0.82917237  1
  N  N51  1  0.78840917  0.39491004  0.61787455  1
  N  N52  1  0.55326993  0.54035596  0.38202481  1
  N  N53  1  0.44615999  0.43057651  0.12576949  1
  N  N54  1  0.22223648  0.53892158  0.87690416  1
  N  N55  1  0.11688648  0.42452819  0.62657113  1
  N  N56  1  0.88576964  0.54734512  0.34438444  1
  N  N57  1  0.77303684  0.42746744  0.13525848  1
  N  N58  1  0.54313437  0.56321802  0.87080877  1
  N  N59  1  0.44591057  0.42126392  0.62750818  1
  N  N60  1  0.22539897  0.86948877  0.38268360  1
  N  N61  1  0.12163058  0.76220321  0.12406018  1
  N  N62  1  0.88748669  0.87446103  0.89511721  1
  N  N63  1  0.79933867  0.78125931  0.59193606  1
  N  N64  1  0.55290650  0.87116906  0.39969022  1
  N  N65  1  0.45900767  0.77856322  0.13044625  1
  N  N66  1  0.24511888  0.86240617  0.86737534  1
  N  N67  1  0.08352433  0.77498344  0.62928853  1
  N  N68  1  0.87675301  0.89722203  0.33360254  1
  N  N69  1  0.74045960  0.77841414  0.08906198  1
  N  N70  1  0.54160757  0.85873143  0.82902719  1
  N  N71  1  0.43608077  0.75308435  0.64355488  1
