# generated using pymatgen
data_Al31B5N36
_symmetry_space_group_name_H-M   'P 1'
_cell_length_a   9.14516459
_cell_length_b   9.18167524
_cell_length_c   10.24207178
_cell_angle_alpha   89.44302631
_cell_angle_beta   89.34950031
_cell_angle_gamma   60.15821246
_symmetry_Int_Tables_number   1
_chemical_formula_structural   Al31B5N36
_chemical_formula_sum   'Al31 B5 N36'
_cell_volume   745.91492136
_cell_formula_units_Z   1
loop_
 _symmetry_equiv_pos_site_id
 _symmetry_equiv_pos_as_xyz
  1  'x, y, z'
loop_
 _atom_site_type_symbol
 _atom_site_label
 _atom_site_symmetry_multiplicity
 _atom_site_fract_x
 _atom_site_fract_y
 _atom_site_fract_z
 _atom_site_occupancy
  Al  Al0  1  0.09753709  0.10475646  0.39394675  1
  Al  Al1  1  0.22394399  0.19871285  0.13712746  1
  Al  Al2  1  0.77620705  0.08406193  0.81022552  1
  Al  Al3  1  0.44738273  0.09062691  0.37600816  1
  Al  Al4  1  0.56044649  0.20385465  0.06971450  1
  Al  Al5  1  0.11070398  0.09736566  0.87829061  1
  Al  Al6  1  0.22383163  0.20461524  0.63785923  1
  Al  Al7  1  0.88779685  0.20775160  0.13896651  1
  Al  Al8  1  0.44269525  0.07888367  0.89405237  1
  Al  Al9  1  0.57385908  0.18855339  0.56187100  1
  Al  Al10  1  0.11321500  0.43007347  0.38798235  1
  Al  Al11  1  0.22153130  0.53757450  0.14161120  1
  Al  Al12  1  0.77896665  0.43076868  0.87969808  1
  Al  Al13  1  0.89291470  0.54124529  0.63917271  1
  Al  Al14  1  0.46427417  0.42130815  0.31919183  1
  Al  Al15  1  0.54781243  0.55439672  0.06102001  1
  Al  Al16  1  0.11291107  0.42938744  0.89031885  1
  Al  Al17  1  0.21692876  0.53591802  0.63513714  1
  Al  Al18  1  0.78852458  0.41748861  0.39320738  1
  Al  Al19  1  0.88068810  0.54321570  0.14042854  1
  Al  Al20  1  0.45291272  0.42467356  0.81644997  1
  Al  Al21  1  0.55197163  0.53683747  0.57614602  1
  Al  Al22  1  0.10454102  0.78099641  0.31839752  1
  Al  Al23  1  0.23662537  0.86625905  0.05941478  1
  Al  Al24  1  0.76307707  0.75990879  0.89724888  1
  Al  Al25  1  0.44524169  0.76332792  0.31708204  1
  Al  Al26  1  0.10541786  0.76811096  0.82206569  1
  Al  Al27  1  0.20645286  0.87324622  0.57867516  1
  Al  Al28  1  0.78079052  0.77376538  0.38107763  1
  Al  Al29  1  0.88552690  0.87807558  0.08030263  1
  Al  Al30  1  0.55854507  0.87398864  0.64101195  1
  B  B31  1  0.91339363  0.23358825  0.65204040  1
  B  B32  1  0.77856325  0.09133963  0.31677407  1
  B  B33  1  0.87969746  0.86702300  0.60063838  1
  B  B34  1  0.56006089  0.87401729  0.14619636  1
  B  B35  1  0.43873861  0.75714307  0.80804655  1
  N  N36  1  0.21837990  0.20700606  0.32336192  1
  N  N37  1  0.10459510  0.10093802  0.06553203  1
  N  N38  1  0.89169616  0.21390238  0.79908406  1
  N  N39  1  0.77588164  0.04193438  0.63528631  1
  N  N40  1  0.58878095  0.19421107  0.37321518  1
  N  N41  1  0.45391609  0.06569722  0.08417136  1
  N  N42  1  0.22578003  0.20682124  0.82361703  1
  N  N43  1  0.07948428  0.11721784  0.58732558  1
  N  N44  1  0.87974618  0.19951759  0.32582441  1
  N  N45  1  0.77140921  0.09528872  0.13548391  1
  N  N46  1  0.55835899  0.20584857  0.88235401  1
  N  N47  1  0.43644470  0.08415904  0.56321523  1
  N  N48  1  0.22453084  0.54098396  0.33346065  1
  N  N49  1  0.11135584  0.42879224  0.07653268  1
  N  N50  1  0.89008469  0.54383744  0.82452365  1
  N  N51  1  0.79813479  0.40234530  0.58710626  1
  N  N52  1  0.55488120  0.54740380  0.38974787  1
  N  N53  1  0.45542649  0.42673761  0.12953001  1
  N  N54  1  0.22095113  0.53760997  0.82540344  1
  N  N55  1  0.11238532  0.42431642  0.57319287  1
  N  N56  1  0.88865174  0.54135181  0.32743939  1
  N  N57  1  0.78328249  0.42414899  0.06740054  1
  N  N58  1  0.53849153  0.56763256  0.86940673  1
  N  N59  1  0.45637545  0.40989397  0.62795420  1
  N  N60  1  0.22890610  0.87157410  0.39249369  1
  N  N61  1  0.11504437  0.76929940  0.12766034  1
  N  N62  1  0.89014065  0.87450342  0.89238703  1
  N  N63  1  0.78671047  0.76337671  0.57324108  1
  N  N64  1  0.56540421  0.87864498  0.30562211  1
  N  N65  1  0.45289937  0.77144332  0.13103193  1
  N  N66  1  0.24811815  0.85724209  0.86727645  1
  N  N67  1  0.07163811  0.77646310  0.62883639  1
  N  N68  1  0.87791131  0.90634404  0.35328586  1
  N  N69  1  0.74787333  0.77032527  0.08572245  1
  N  N70  1  0.54544420  0.86105210  0.82524852  1
  N  N71  1  0.43188464  0.75440215  0.64878651  1
