# generated using pymatgen
data_Al31B5N36
_symmetry_space_group_name_H-M   'P 1'
_cell_length_a   9.17839846
_cell_length_b   9.17309944
_cell_length_c   9.84972011
_cell_angle_alpha   89.79425977
_cell_angle_beta   89.86238429
_cell_angle_gamma   59.96363754
_symmetry_Int_Tables_number   1
_chemical_formula_structural   Al31B5N36
_chemical_formula_sum   'Al31 B5 N36'
_cell_volume   717.91888463
_cell_formula_units_Z   1
loop_
 _symmetry_equiv_pos_site_id
 _symmetry_equiv_pos_as_xyz
  1  'x, y, z'
loop_
 _atom_site_type_symbol
 _atom_site_label
 _atom_site_symmetry_multiplicity
 _atom_site_fract_x
 _atom_site_fract_y
 _atom_site_fract_z
 _atom_site_occupancy
  Al  Al0  1  0.10598741  0.09334080  0.31986852  1
  Al  Al1  1  0.22648981  0.19877469  0.06652398  1
  Al  Al2  1  0.78208646  0.09088952  0.80927409  1
  Al  Al3  1  0.45245259  0.08872588  0.32205067  1
  Al  Al4  1  0.56521345  0.19680400  0.07265884  1
  Al  Al5  1  0.10922857  0.09352710  0.80996446  1
  Al  Al6  1  0.21594514  0.20853628  0.56256704  1
  Al  Al7  1  0.88840200  0.20291758  0.07195604  1
  Al  Al8  1  0.44393177  0.08847865  0.81518522  1
  Al  Al9  1  0.56722594  0.19939425  0.56116558  1
  Al  Al10  1  0.11042623  0.42969793  0.31259198  1
  Al  Al11  1  0.22240640  0.54133219  0.06288179  1
  Al  Al12  1  0.77548751  0.42584658  0.81083535  1
  Al  Al13  1  0.89012330  0.53698717  0.56710950  1
  Al  Al14  1  0.45000900  0.42521599  0.31364731  1
  Al  Al15  1  0.55771520  0.54914852  0.05920977  1
  Al  Al16  1  0.11036107  0.42714941  0.81639214  1
  Al  Al17  1  0.21613881  0.54290524  0.56459238  1
  Al  Al18  1  0.77718724  0.42214337  0.32185897  1
  Al  Al19  1  0.88011484  0.54538620  0.06622613  1
  Al  Al20  1  0.44439537  0.43014630  0.81507635  1
  Al  Al21  1  0.55606644  0.53424475  0.56780147  1
  Al  Al22  1  0.10743604  0.76815011  0.31849360  1
  Al  Al23  1  0.23240640  0.87314412  0.05873773  1
  Al  Al24  1  0.77379022  0.76395334  0.81144000  1
  Al  Al25  1  0.44778923  0.76369171  0.31969578  1
  Al  Al26  1  0.10794938  0.76455075  0.81089181  1
  Al  Al27  1  0.21307842  0.87571432  0.56682797  1
  Al  Al28  1  0.77405960  0.77151969  0.34166049  1
  Al  Al29  1  0.88224172  0.87716945  0.07402111  1
  Al  Al30  1  0.55389833  0.87335486  0.58899097  1
  B  B31  1  0.88990189  0.19250657  0.55772554  1
  B  B32  1  0.78005903  0.09476956  0.32501748  1
  B  B33  1  0.89185546  0.88360049  0.55900595  1
  B  B34  1  0.55900003  0.87159697  0.10766352  1
  B  B35  1  0.44529157  0.76108519  0.80366972  1
  N  N36  1  0.22281371  0.20618866  0.37055387  1
  N  N37  1  0.11182386  0.09235233  0.12755296  1
  N  N38  1  0.88714627  0.20308206  0.88017853  1
  N  N39  1  0.80174904  0.08257043  0.61462419  1
  N  N40  1  0.58112347  0.19334062  0.36776964  1
  N  N41  1  0.46119174  0.06509486  0.12379220  1
  N  N42  1  0.22122166  0.20325078  0.87528862  1
  N  N43  1  0.08377069  0.10764880  0.61393583  1
  N  N44  1  0.87787900  0.19293422  0.38881367  1
  N  N45  1  0.78290856  0.09261261  0.15613128  1
  N  N46  1  0.55986219  0.20100933  0.87770281  1
  N  N47  1  0.43909004  0.10438021  0.62230992  1
  N  N48  1  0.22291690  0.53939936  0.37271689  1
  N  N49  1  0.11025744  0.42888654  0.12127437  1
  N  N50  1  0.88522935  0.53985540  0.87247337  1
  N  N51  1  0.78834224  0.39964030  0.61612928  1
  N  N52  1  0.55386457  0.54119420  0.37633648  1
  N  N53  1  0.44766903  0.42910600  0.12068403  1
  N  N54  1  0.22039322  0.54130018  0.87159733  1
  N  N55  1  0.10992629  0.42781409  0.62591591  1
  N  N56  1  0.88889608  0.53879169  0.37550516  1
  N  N57  1  0.77712076  0.42680205  0.12839166  1
  N  N58  1  0.54425480  0.56226004  0.86489360  1
  N  N59  1  0.44311055  0.42411679  0.62308606  1
  N  N60  1  0.22579244  0.87088204  0.37634066  1
  N  N61  1  0.11256040  0.76428041  0.12507036  1
  N  N62  1  0.88591315  0.87373670  0.88190716  1
  N  N63  1  0.79372972  0.77629679  0.61309179  1
  N  N64  1  0.55166041  0.87315295  0.39247897  1
  N  N65  1  0.46116983  0.77712896  0.12412216  1
  N  N66  1  0.24413318  0.86101362  0.86285476  1
  N  N67  1  0.08321072  0.77614563  0.61524177  1
  N  N68  1  0.88004938  0.89887544  0.38871552  1
  N  N69  1  0.74988256  0.77691375  0.12854172  1
  N  N70  1  0.54321552  0.85619114  0.83444735  1
  N  N71  1  0.43670555  0.75591858  0.63879357  1
