# generated using pymatgen
data_Al31B5N36
_symmetry_space_group_name_H-M   'P 1'
_cell_length_a   9.17010325
_cell_length_b   9.16599302
_cell_length_c   9.79836381
_cell_angle_alpha   90.05216282
_cell_angle_beta   90.23017224
_cell_angle_gamma   60.05856503
_symmetry_Int_Tables_number   1
_chemical_formula_structural   Al31B5N36
_chemical_formula_sum   'Al31 B5 N36'
_cell_volume   713.65790531
_cell_formula_units_Z   1
loop_
 _symmetry_equiv_pos_site_id
 _symmetry_equiv_pos_as_xyz
  1  'x, y, z'
loop_
 _atom_site_type_symbol
 _atom_site_label
 _atom_site_symmetry_multiplicity
 _atom_site_fract_x
 _atom_site_fract_y
 _atom_site_fract_z
 _atom_site_occupancy
  Al  Al0  1  0.10686224  0.09197368  0.31744684  1
  Al  Al1  1  0.22461347  0.19953291  0.06119625  1
  Al  Al2  1  0.78265597  0.09185357  0.80449453  1
  Al  Al3  1  0.45237353  0.08701082  0.30675754  1
  Al  Al4  1  0.56353534  0.19714442  0.06786261  1
  Al  Al5  1  0.10842761  0.09420273  0.80625511  1
  Al  Al6  1  0.21819571  0.20689328  0.56042034  1
  Al  Al7  1  0.88744820  0.20237329  0.06909996  1
  Al  Al8  1  0.44513531  0.08869186  0.81842513  1
  Al  Al9  1  0.56649877  0.19924021  0.55790887  1
  Al  Al10  1  0.11056091  0.42830848  0.30930456  1
  Al  Al11  1  0.22158948  0.54078916  0.06070651  1
  Al  Al12  1  0.77649586  0.42563709  0.80634339  1
  Al  Al13  1  0.88836612  0.54121551  0.56158904  1
  Al  Al14  1  0.44995512  0.42493821  0.31139518  1
  Al  Al15  1  0.55634093  0.54677118  0.05706119  1
  Al  Al16  1  0.10959147  0.42817563  0.81110039  1
  Al  Al17  1  0.21612645  0.54327455  0.56008922  1
  Al  Al18  1  0.77676474  0.42193486  0.31908872  1
  Al  Al19  1  0.88110406  0.54332041  0.06107315  1
  Al  Al20  1  0.44386244  0.43132160  0.81153512  1
  Al  Al21  1  0.55716756  0.53781802  0.56673327  1
  Al  Al22  1  0.10657955  0.76809084  0.31737769  1
  Al  Al23  1  0.22965923  0.87166659  0.05648396  1
  Al  Al24  1  0.77351841  0.76603346  0.81368237  1
  Al  Al25  1  0.44760868  0.76360752  0.30861655  1
  Al  Al26  1  0.10820148  0.76426834  0.80675093  1
  Al  Al27  1  0.21757066  0.87532518  0.56690162  1
  Al  Al28  1  0.77205010  0.77039436  0.31386850  1
  Al  Al29  1  0.88286640  0.87645416  0.06886613  1
  Al  Al30  1  0.55854629  0.87452482  0.56821526  1
  B  B31  1  0.89024502  0.19178634  0.55272402  1
  B  B32  1  0.77870517  0.09320911  0.32065036  1
  B  B33  1  0.88953944  0.88452213  0.55431941  1
  B  B34  1  0.55227017  0.86790383  0.05647971  1
  B  B35  1  0.44595565  0.76075838  0.81281200  1
  N  N36  1  0.22551697  0.20421098  0.36728343  1
  N  N37  1  0.11119300  0.09172500  0.12405752  1
  N  N38  1  0.88745468  0.20394787  0.87629869  1
  N  N39  1  0.80184390  0.08246223  0.60970152  1
  N  N40  1  0.57945945  0.19224565  0.36347060  1
  N  N41  1  0.45783225  0.06735132  0.11009577  1
  N  N42  1  0.21967173  0.20478643  0.86902142  1
  N  N43  1  0.08425079  0.10742838  0.61026264  1
  N  N44  1  0.87792088  0.19158053  0.38490123  1
  N  N45  1  0.78171876  0.09179062  0.15207733  1
  N  N46  1  0.56139744  0.20347848  0.87245392  1
  N  N47  1  0.44362460  0.09737232  0.62439184  1
  N  N48  1  0.22307757  0.53885534  0.36855915  1
  N  N49  1  0.10986429  0.42780690  0.11719471  1
  N  N50  1  0.88532703  0.54013803  0.86692481  1
  N  N51  1  0.78957821  0.40001594  0.61128078  1
  N  N52  1  0.55312006  0.54331470  0.37391492  1
  N  N53  1  0.44698536  0.42802439  0.11773538  1
  N  N54  1  0.22034396  0.54172129  0.86803758  1
  N  N55  1  0.10983235  0.42841615  0.61996212  1
  N  N56  1  0.88748234  0.54179286  0.36898765  1
  N  N57  1  0.77665098  0.42609704  0.12472672  1
  N  N58  1  0.54487617  0.56279577  0.86206457  1
  N  N59  1  0.44317935  0.42636605  0.61874594  1
  N  N60  1  0.22846809  0.86922938  0.37506074  1
  N  N61  1  0.11134883  0.76361366  0.12298615  1
  N  N62  1  0.88812152  0.87586155  0.87729258  1
  N  N63  1  0.78903038  0.77879508  0.61656826  1
  N  N64  1  0.55448015  0.87215612  0.37862255  1
  N  N65  1  0.45706821  0.77387024  0.11529129  1
  N  N66  1  0.24487274  0.86080275  0.85955408  1
  N  N67  1  0.08412317  0.77611785  0.61068779  1
  N  N68  1  0.87702869  0.89625254  0.38361834  1
  N  N69  1  0.75143054  0.77449650  0.11495413  1
  N  N70  1  0.54495684  0.85950332  0.88211576  1
  N  N71  1  0.44740337  0.76289078  0.64503136  1
