# generated using pymatgen
data_Al31B5N36
_symmetry_space_group_name_H-M   'P 1'
_cell_length_a   9.18366978
_cell_length_b   9.15872491
_cell_length_c   10.14166795
_cell_angle_alpha   89.61292604
_cell_angle_beta   89.41753912
_cell_angle_gamma   60.26298504
_symmetry_Int_Tables_number   1
_chemical_formula_structural   Al31B5N36
_chemical_formula_sum   'Al31 B5 N36'
_cell_volume   740.64961654
_cell_formula_units_Z   1
loop_
 _symmetry_equiv_pos_site_id
 _symmetry_equiv_pos_as_xyz
  1  'x, y, z'
loop_
 _atom_site_type_symbol
 _atom_site_label
 _atom_site_symmetry_multiplicity
 _atom_site_fract_x
 _atom_site_fract_y
 _atom_site_fract_z
 _atom_site_occupancy
  Al  Al0  1  0.09680412  0.10361522  0.39535691  1
  Al  Al1  1  0.22485099  0.20014371  0.14049773  1
  Al  Al2  1  0.78118099  0.08781338  0.86414827  1
  Al  Al3  1  0.44663815  0.09171411  0.38263963  1
  Al  Al4  1  0.55486393  0.20714266  0.06544623  1
  Al  Al5  1  0.10971716  0.09629985  0.87936689  1
  Al  Al6  1  0.21741320  0.20605218  0.63899378  1
  Al  Al7  1  0.88683384  0.20757520  0.13360442  1
  Al  Al8  1  0.43897728  0.07762616  0.89346905  1
  Al  Al9  1  0.57747653  0.19397662  0.57199910  1
  Al  Al10  1  0.11048220  0.43157969  0.39136946  1
  Al  Al11  1  0.22283948  0.53515098  0.13950345  1
  Al  Al12  1  0.78003821  0.42543406  0.87651006  1
  Al  Al13  1  0.88762939  0.54086279  0.63830707  1
  Al  Al14  1  0.46272812  0.42215486  0.32031621  1
  Al  Al15  1  0.55021198  0.55287864  0.06071026  1
  Al  Al16  1  0.10931373  0.42764289  0.89005660  1
  Al  Al17  1  0.20649330  0.54708142  0.63817690  1
  Al  Al18  1  0.78483728  0.41677818  0.39663171  1
  Al  Al19  1  0.87979325  0.54336178  0.14263369  1
  Al  Al20  1  0.44990245  0.42432444  0.81336230  1
  Al  Al21  1  0.55147838  0.53708422  0.57697347  1
  Al  Al22  1  0.10638545  0.77720165  0.32763355  1
  Al  Al23  1  0.24337737  0.87063972  0.06537308  1
  Al  Al24  1  0.76325188  0.75605020  0.89864384  1
  Al  Al25  1  0.44682197  0.76241616  0.31782257  1
  Al  Al26  1  0.11674887  0.75597703  0.87657146  1
  Al  Al27  1  0.21211654  0.87093130  0.57914784  1
  Al  Al28  1  0.77852875  0.77654134  0.38331789  1
  Al  Al29  1  0.88022420  0.87947182  0.09425544  1
  Al  Al30  1  0.55933238  0.87613750  0.64336563  1
  B  B31  1  0.89728126  0.19185406  0.64940230  1
  B  B32  1  0.78021566  0.09400831  0.34191740  1
  B  B33  1  0.89193835  0.88233941  0.60624753  1
  B  B34  1  0.56074485  0.87368772  0.14933942  1
  B  B35  1  0.44117971  0.75631944  0.80913551  1
  N  N36  1  0.21824482  0.20765527  0.32850613  1
  N  N37  1  0.10754620  0.10178473  0.07123717  1
  N  N38  1  0.89217117  0.20430452  0.80684236  1
  N  N39  1  0.80407082  0.07063798  0.62398236  1
  N  N40  1  0.59233990  0.19203342  0.37440825  1
  N  N41  1  0.45470211  0.06625539  0.08779837  1
  N  N42  1  0.22295579  0.20560570  0.82557366  1
  N  N43  1  0.08150671  0.11011450  0.58786429  1
  N  N44  1  0.87485039  0.19455124  0.32483864  1
  N  N45  1  0.78058707  0.10505095  0.06725432  1
  N  N46  1  0.54597754  0.20627142  0.87425102  1
  N  N47  1  0.43960294  0.09042884  0.57117246  1
  N  N48  1  0.22216615  0.54069573  0.33055297  1
  N  N49  1  0.10956467  0.42864613  0.07853268  1
  N  N50  1  0.88812110  0.54068940  0.82474614  1
  N  N51  1  0.79172844  0.39769517  0.58773501  1
  N  N52  1  0.55309459  0.54745063  0.38778866  1
  N  N53  1  0.45589424  0.42598166  0.13019602  1
  N  N54  1  0.21905361  0.53724703  0.82880781  1
  N  N55  1  0.10824015  0.42733928  0.57636200  1
  N  N56  1  0.88628533  0.54190148  0.33206038  1
  N  N57  1  0.78325333  0.42644716  0.06893124  1
  N  N58  1  0.53899825  0.56409892  0.86840461  1
  N  N59  1  0.44612128  0.41872811  0.62489996  1
  N  N60  1  0.23014746  0.87201041  0.38649725  1
  N  N61  1  0.11965124  0.76348085  0.10708602  1
  N  N62  1  0.89120962  0.85922999  0.88673669  1
  N  N63  1  0.78664972  0.78221351  0.57728174  1
  N  N64  1  0.56375491  0.88013726  0.31122935  1
  N  N65  1  0.45797965  0.76983957  0.13193050  1
  N  N66  1  0.25330165  0.85664262  0.87171485  1
  N  N67  1  0.07532545  0.77710203  0.60393072  1
  N  N68  1  0.87269122  0.90897133  0.32123364  1
  N  N69  1  0.74626454  0.77133765  0.09049811  1
  N  N70  1  0.54567057  0.85795560  0.82853738  1
  N  N71  1  0.43520800  0.75590852  0.64747558  1
