# generated using pymatgen
data_Al31B5N36
_symmetry_space_group_name_H-M   'P 1'
_cell_length_a   9.21034260
_cell_length_b   9.19872855
_cell_length_c   9.92075601
_cell_angle_alpha   90.22502860
_cell_angle_beta   89.96143735
_cell_angle_gamma   59.88359163
_symmetry_Int_Tables_number   1
_chemical_formula_structural   Al31B5N36
_chemical_formula_sum   'Al31 B5 N36'
_cell_volume   727.04783175
_cell_formula_units_Z   1
loop_
 _symmetry_equiv_pos_site_id
 _symmetry_equiv_pos_as_xyz
  1  'x, y, z'
loop_
 _atom_site_type_symbol
 _atom_site_label
 _atom_site_symmetry_multiplicity
 _atom_site_fract_x
 _atom_site_fract_y
 _atom_site_fract_z
 _atom_site_occupancy
  Al  Al0  1  0.10596655  0.09109767  0.32831461  1
  Al  Al1  1  0.22494733  0.19977947  0.07869971  1
  Al  Al2  1  0.78138734  0.08757384  0.82514814  1
  Al  Al3  1  0.45651248  0.08333419  0.33056808  1
  Al  Al4  1  0.56095540  0.20073164  0.07823997  1
  Al  Al5  1  0.10897485  0.09334264  0.81845868  1
  Al  Al6  1  0.21787618  0.20466466  0.57029416  1
  Al  Al7  1  0.88782796  0.20819046  0.07770538  1
  Al  Al8  1  0.44156967  0.09181996  0.82167461  1
  Al  Al9  1  0.57027483  0.19480924  0.56841900  1
  Al  Al10  1  0.11518631  0.42812818  0.34098615  1
  Al  Al11  1  0.22464295  0.54123663  0.07261158  1
  Al  Al12  1  0.77121322  0.42238362  0.81898796  1
  Al  Al13  1  0.88936449  0.54429469  0.63713168  1
  Al  Al14  1  0.45119754  0.42394504  0.32165606  1
  Al  Al15  1  0.55827797  0.54939047  0.06932558  1
  Al  Al16  1  0.11123838  0.42629780  0.83940586  1
  Al  Al17  1  0.21988095  0.54263400  0.57549010  1
  Al  Al18  1  0.77616558  0.41791554  0.33637158  1
  Al  Al19  1  0.87864565  0.55219382  0.15017106  1
  Al  Al20  1  0.44493130  0.42972862  0.82263768  1
  Al  Al21  1  0.55766405  0.53161476  0.57540273  1
  Al  Al22  1  0.10942832  0.76821063  0.31965017  1
  Al  Al23  1  0.23409303  0.87444233  0.06661448  1
  Al  Al24  1  0.75898216  0.76405274  0.89605425  1
  Al  Al25  1  0.44931451  0.76318845  0.33124035  1
  Al  Al26  1  0.10757892  0.76455636  0.83071548  1
  Al  Al27  1  0.21194406  0.87489305  0.57642506  1
  Al  Al28  1  0.78301189  0.77543609  0.40213058  1
  Al  Al29  1  0.88316826  0.88167920  0.10413342  1
  Al  Al30  1  0.55431368  0.87269209  0.60904384  1
  B  B31  1  0.89406346  0.19250532  0.56549751  1
  B  B32  1  0.77712022  0.09167939  0.31846843  1
  B  B33  1  0.89458057  0.87638348  0.61182509  1
  B  B34  1  0.55390944  0.87317981  0.11441371  1
  B  B35  1  0.44314429  0.76111982  0.81078984  1
  N  N36  1  0.22588085  0.20079358  0.37917554  1
  N  N37  1  0.11012158  0.09330372  0.13667636  1
  N  N38  1  0.88718569  0.20331849  0.88756282  1
  N  N39  1  0.80384656  0.07208009  0.62781906  1
  N  N40  1  0.58188335  0.19133082  0.37499621  1
  N  N41  1  0.46094463  0.06483774  0.13266851  1
  N  N42  1  0.22108388  0.20138304  0.88651484  1
  N  N43  1  0.08468065  0.10638279  0.62381274  1
  N  N44  1  0.88091896  0.19044253  0.39941760  1
  N  N45  1  0.77379561  0.10951832  0.15528507  1
  N  N46  1  0.55703967  0.20233741  0.88564783  1
  N  N47  1  0.43915225  0.10478910  0.63140749  1
  N  N48  1  0.22513999  0.54373969  0.38409138  1
  N  N49  1  0.11251360  0.42976945  0.12690922  1
  N  N50  1  0.88047687  0.54456408  0.83465020  1
  N  N51  1  0.78895011  0.39496333  0.62277311  1
  N  N52  1  0.55331004  0.54044956  0.38632330  1
  N  N53  1  0.44733711  0.43047909  0.13023778  1
  N  N54  1  0.22293807  0.53984230  0.88158181  1
  N  N55  1  0.11546195  0.42531393  0.62277951  1
  N  N56  1  0.88334261  0.54933476  0.34837022  1
  N  N57  1  0.77409288  0.42723637  0.13943632  1
  N  N58  1  0.54337284  0.56300509  0.87523131  1
  N  N59  1  0.44707562  0.42083700  0.63212315  1
  N  N60  1  0.22536679  0.86954628  0.38725638  1
  N  N61  1  0.12161870  0.76309805  0.12860802  1
  N  N62  1  0.88724117  0.87430502  0.89973442  1
  N  N63  1  0.79939991  0.78141751  0.59747280  1
  N  N64  1  0.55257224  0.87141005  0.40469160  1
  N  N65  1  0.45953097  0.77842665  0.13501594  1
  N  N66  1  0.24539841  0.86193453  0.87179870  1
  N  N67  1  0.08325450  0.77572133  0.63415162  1
  N  N68  1  0.87637060  0.89749037  0.33802127  1
  N  N69  1  0.74097657  0.77767053  0.09406323  1
  N  N70  1  0.54163157  0.85853046  0.83270828  1
  N  N71  1  0.43598672  0.75269948  0.64781276  1
