# generated using pymatgen
data_Al31B5N36
_symmetry_space_group_name_H-M   'P 1'
_cell_length_a   9.21047710
_cell_length_b   9.19740494
_cell_length_c   9.98745726
_cell_angle_alpha   90.00872424
_cell_angle_beta   89.94556474
_cell_angle_gamma   60.07954980
_symmetry_Int_Tables_number   1
_chemical_formula_structural   Al31B5N36
_chemical_formula_sum   'Al31 B5 N36'
_cell_volume   733.29759809
_cell_formula_units_Z   1
loop_
 _symmetry_equiv_pos_site_id
 _symmetry_equiv_pos_as_xyz
  1  'x, y, z'
loop_
 _atom_site_type_symbol
 _atom_site_label
 _atom_site_symmetry_multiplicity
 _atom_site_fract_x
 _atom_site_fract_y
 _atom_site_fract_z
 _atom_site_occupancy
  Al  Al0  1  0.10571095  0.08628696  0.32782016  1
  Al  Al1  1  0.22529811  0.20457357  0.12602469  1
  Al  Al2  1  0.78111223  0.08897975  0.82246777  1
  Al  Al3  1  0.46294999  0.08047576  0.33401187  1
  Al  Al4  1  0.56162851  0.20101967  0.07571485  1
  Al  Al5  1  0.10645422  0.09423108  0.81475369  1
  Al  Al6  1  0.21793771  0.20291933  0.58830475  1
  Al  Al7  1  0.88884003  0.20475426  0.07458134  1
  Al  Al8  1  0.44031807  0.09334415  0.81899186  1
  Al  Al9  1  0.57262266  0.19484885  0.56615365  1
  Al  Al10  1  0.10765168  0.43090446  0.38561040  1
  Al  Al11  1  0.22557409  0.54594656  0.07186631  1
  Al  Al12  1  0.77276843  0.43552188  0.88250230  1
  Al  Al13  1  0.89288492  0.53631741  0.64645935  1
  Al  Al14  1  0.45356260  0.42257739  0.32058826  1
  Al  Al15  1  0.54543919  0.55799126  0.06933257  1
  Al  Al16  1  0.10481001  0.42595324  0.89492154  1
  Al  Al17  1  0.22144898  0.54421550  0.57424950  1
  Al  Al18  1  0.78519834  0.41720859  0.39661990  1
  Al  Al19  1  0.87482287  0.54932876  0.14829981  1
  Al  Al20  1  0.44336920  0.43049053  0.82161290  1
  Al  Al21  1  0.55400648  0.53436427  0.57947117  1
  Al  Al22  1  0.11119060  0.76583553  0.31673105  1
  Al  Al23  1  0.23250701  0.87957664  0.06253358  1
  Al  Al24  1  0.75872782  0.76783308  0.89480915  1
  Al  Al25  1  0.45061600  0.76155180  0.33033361  1
  Al  Al26  1  0.10747488  0.76391172  0.82992663  1
  Al  Al27  1  0.21290258  0.87214758  0.57401680  1
  Al  Al28  1  0.78504983  0.77119663  0.40001584  1
  Al  Al29  1  0.88245840  0.88224779  0.10503036  1
  Al  Al30  1  0.55741247  0.86998725  0.60881425  1
  B  B31  1  0.89787079  0.18037301  0.56171061  1
  B  B32  1  0.77995526  0.09072524  0.31703480  1
  B  B33  1  0.89584242  0.87205326  0.61112945  1
  B  B34  1  0.55484403  0.87459250  0.11469983  1
  B  B35  1  0.44098287  0.76226130  0.80944086  1
  N  N36  1  0.22684459  0.20161352  0.35461920  1
  N  N37  1  0.10683589  0.09342053  0.13711644  1
  N  N38  1  0.88881482  0.19986680  0.88307920  1
  N  N39  1  0.80583062  0.06976023  0.62525041  1
  N  N40  1  0.58507001  0.19070421  0.37496611  1
  N  N41  1  0.46479594  0.06478068  0.13449902  1
  N  N42  1  0.21828364  0.20385967  0.86001460  1
  N  N43  1  0.08374709  0.10238132  0.61847085  1
  N  N44  1  0.88366103  0.17916078  0.39531752  1
  N  N45  1  0.77310472  0.11129064  0.15472609  1
  N  N46  1  0.55730873  0.20286170  0.88416552  1
  N  N47  1  0.44352438  0.10268996  0.62574788  1
  N  N48  1  0.22765451  0.54359595  0.38017232  1
  N  N49  1  0.10280547  0.43511014  0.09241483  1
  N  N50  1  0.88578208  0.54553676  0.83321838  1
  N  N51  1  0.79304434  0.39908032  0.59184886  1
  N  N52  1  0.55437677  0.53959118  0.38498741  1
  N  N53  1  0.44629852  0.42982993  0.13060938  1
  N  N54  1  0.22306185  0.54067991  0.87990651  1
  N  N55  1  0.10527165  0.42963887  0.57940353  1
  N  N56  1  0.88316340  0.54437577  0.33696247  1
  N  N57  1  0.77450564  0.43599024  0.08214205  1
  N  N58  1  0.53467562  0.57017859  0.87339897  1
  N  N59  1  0.44665769  0.41947000  0.63221054  1
  N  N60  1  0.22718624  0.86652746  0.38654076  1
  N  N61  1  0.12209199  0.76575662  0.12698170  1
  N  N62  1  0.88732755  0.87601360  0.89841465  1
  N  N63  1  0.80201658  0.77623130  0.59544416  1
  N  N64  1  0.55507443  0.86796883  0.40460479  1
  N  N65  1  0.45671573  0.78264577  0.13537388  1
  N  N66  1  0.24362229  0.86399594  0.86966300  1
  N  N67  1  0.08381858  0.77363067  0.63350326  1
  N  N68  1  0.87726996  0.89365048  0.33295348  1
  N  N69  1  0.74036780  0.77898150  0.09241950  1
  N  N70  1  0.54314504  0.85869464  0.82844636  1
  N  N71  1  0.43382222  0.75460472  0.64691022  1
