# generated using pymatgen
data_Al31B5N36
_symmetry_space_group_name_H-M   'P 1'
_cell_length_a   9.20153250
_cell_length_b   9.20173071
_cell_length_c   9.85082573
_cell_angle_alpha   90.00399741
_cell_angle_beta   89.55035477
_cell_angle_gamma   59.96916175
_symmetry_Int_Tables_number   1
_chemical_formula_structural   Al31B5N36
_chemical_formula_sum   'Al31 B5 N36'
_cell_volume   722.07100936
_cell_formula_units_Z   1
loop_
 _symmetry_equiv_pos_site_id
 _symmetry_equiv_pos_as_xyz
  1  'x, y, z'
loop_
 _atom_site_type_symbol
 _atom_site_label
 _atom_site_symmetry_multiplicity
 _atom_site_fract_x
 _atom_site_fract_y
 _atom_site_fract_z
 _atom_site_occupancy
  Al  Al0  1  0.09984444  0.09359997  0.40394294  1
  Al  Al1  1  0.22504709  0.20014609  0.15042160  1
  Al  Al2  1  0.78243901  0.09139609  0.86154168  1
  Al  Al3  1  0.44887656  0.08717585  0.38923768  1
  Al  Al4  1  0.55993176  0.20023742  0.07757137  1
  Al  Al5  1  0.11403163  0.09166940  0.89730449  1
  Al  Al6  1  0.21906330  0.20620065  0.64825567  1
  Al  Al7  1  0.88597513  0.20245205  0.14367519  1
  Al  Al8  1  0.44004754  0.08046432  0.89913873  1
  Al  Al9  1  0.57854396  0.19520824  0.59095260  1
  Al  Al10  1  0.10756134  0.42921003  0.40074255  1
  Al  Al11  1  0.21801630  0.54156645  0.15090641  1
  Al  Al12  1  0.77702883  0.43014967  0.89425469  1
  Al  Al13  1  0.88846035  0.54096370  0.64856499  1
  Al  Al14  1  0.44932497  0.42661594  0.37520832  1
  Al  Al15  1  0.55758990  0.54574790  0.14116403  1
  Al  Al16  1  0.11009145  0.42761645  0.89997178  1
  Al  Al17  1  0.21540961  0.54406975  0.64652484  1
  Al  Al18  1  0.77598071  0.41898194  0.40463533  1
  Al  Al19  1  0.88125904  0.54382525  0.15044832  1
  Al  Al20  1  0.44123741  0.43477086  0.87383095  1
  Al  Al21  1  0.55848324  0.54127148  0.65024485  1
  Al  Al22  1  0.09842441  0.77520390  0.40428642  1
  Al  Al23  1  0.22731625  0.87221615  0.14298518  1
  Al  Al24  1  0.77133821  0.76251212  0.89789617  1
  Al  Al25  1  0.44488720  0.76378292  0.39200056  1
  Al  Al26  1  0.11434545  0.76079219  0.89766592  1
  Al  Al27  1  0.22121988  0.87366128  0.65428514  1
  Al  Al28  1  0.77210560  0.77355131  0.39765101  1
  Al  Al29  1  0.87971429  0.88036944  0.14389836  1
  Al  Al30  1  0.55804678  0.87229106  0.65077050  1
  B  B31  1  0.89818128  0.19210880  0.66038707  1
  B  B32  1  0.77796857  0.09461773  0.36192653  1
  B  B33  1  0.89742995  0.87875582  0.65986190  1
  B  B34  1  0.55631719  0.87265370  0.14500756  1
  B  B35  1  0.44968529  0.76400198  0.90334035  1
  N  N36  1  0.21836608  0.20455014  0.34240807  1
  N  N37  1  0.10964682  0.09572843  0.08849746  1
  N  N38  1  0.89605744  0.20886316  0.82207763  1
  N  N39  1  0.80624764  0.08052096  0.63462259  1
  N  N40  1  0.59007631  0.18799748  0.37886904  1
  N  N41  1  0.45589151  0.06682148  0.09673570  1
  N  N42  1  0.22230236  0.20511570  0.83964739  1
  N  N43  1  0.08838740  0.10348198  0.59873223  1
  N  N44  1  0.87259145  0.19071022  0.33953754  1
  N  N45  1  0.78904827  0.08933777  0.06889402  1
  N  N46  1  0.54823049  0.20439857  0.87413233  1
  N  N47  1  0.44428112  0.09113160  0.58493281  1
  N  N48  1  0.21497693  0.54630910  0.34483721  1
  N  N49  1  0.10970813  0.42724173  0.09248232  1
  N  N50  1  0.88870878  0.54080671  0.83994782  1
  N  N51  1  0.78914481  0.40221258  0.59802244  1
  N  N52  1  0.55957510  0.54202948  0.33516297  1
  N  N53  1  0.44414805  0.42841535  0.10841487  1
  N  N54  1  0.21747108  0.54075209  0.83838218  1
  N  N55  1  0.11015009  0.42773629  0.58981546  1
  N  N56  1  0.88343633  0.54154146  0.34422537  1
  N  N57  1  0.78105310  0.42448782  0.08611029  1
  N  N58  1  0.54451879  0.56600335  0.84783747  1
  N  N59  1  0.44503982  0.42995099  0.59978621  1
  N  N60  1  0.22081095  0.87308500  0.33776603  1
  N  N61  1  0.10757857  0.76260823  0.08947791  1
  N  N62  1  0.89496807  0.86082472  0.82294231  1
  N  N63  1  0.78642811  0.77768580  0.59317047  1
  N  N64  1  0.55555071  0.87022715  0.31301868  1
  N  N65  1  0.45657881  0.77292071  0.07607129  1
  N  N66  1  0.24963193  0.85882248  0.84904383  1
  N  N67  1  0.08726165  0.77749948  0.59891540  1
  N  N68  1  0.87185241  0.90448582  0.33895110  1
  N  N69  1  0.75382636  0.77480447  0.09378960  1
  N  N70  1  0.54439406  0.85654888  0.84193251  1
  N  N71  1  0.44588877  0.76351565  0.58291106  1
