# generated using pymatgen
data_Al31B5N36
_symmetry_space_group_name_H-M   'P 1'
_cell_length_a   9.19166716
_cell_length_b   9.13983810
_cell_length_c   10.17419561
_cell_angle_alpha   89.43699697
_cell_angle_beta   89.56985229
_cell_angle_gamma   60.15466829
_symmetry_Int_Tables_number   1
_chemical_formula_structural   Al31B5N36
_chemical_formula_sum   'Al31 B5 N36'
_cell_volume   741.33639312
_cell_formula_units_Z   1
loop_
 _symmetry_equiv_pos_site_id
 _symmetry_equiv_pos_as_xyz
  1  'x, y, z'
loop_
 _atom_site_type_symbol
 _atom_site_label
 _atom_site_symmetry_multiplicity
 _atom_site_fract_x
 _atom_site_fract_y
 _atom_site_fract_z
 _atom_site_occupancy
  Al  Al0  1  0.10456463  0.08677525  0.31189490  1
  Al  Al1  1  0.23061755  0.20404061  0.13751221  1
  Al  Al2  1  0.78038167  0.08986471  0.82615790  1
  Al  Al3  1  0.44758458  0.09014160  0.39362514  1
  Al  Al4  1  0.55816634  0.20355238  0.06778752  1
  Al  Al5  1  0.10688170  0.08981833  0.82462793  1
  Al  Al6  1  0.22091235  0.21478081  0.64106051  1
  Al  Al7  1  0.88593015  0.20469255  0.09083590  1
  Al  Al8  1  0.44261001  0.08014986  0.87987939  1
  Al  Al9  1  0.57854557  0.20175079  0.56250614  1
  Al  Al10  1  0.11002035  0.42342119  0.38666138  1
  Al  Al11  1  0.22438073  0.54433752  0.06635718  1
  Al  Al12  1  0.77488709  0.43239051  0.88774929  1
  Al  Al13  1  0.89250397  0.53875668  0.64061724  1
  Al  Al14  1  0.45343661  0.42064879  0.31655556  1
  Al  Al15  1  0.54386975  0.55699513  0.06537600  1
  Al  Al16  1  0.10433497  0.42613527  0.89106574  1
  Al  Al17  1  0.22093095  0.54673991  0.56652702  1
  Al  Al18  1  0.78639012  0.40767621  0.38690177  1
  Al  Al19  1  0.87572316  0.54636963  0.14715763  1
  Al  Al20  1  0.44349080  0.43159069  0.81508132  1
  Al  Al21  1  0.55199332  0.53738810  0.57187504  1
  Al  Al22  1  0.10919323  0.76714135  0.31244573  1
  Al  Al23  1  0.23417197  0.87459197  0.05881143  1
  Al  Al24  1  0.76351229  0.76146513  0.88741956  1
  Al  Al25  1  0.45097354  0.76209732  0.32492848  1
  Al  Al26  1  0.11082768  0.76223456  0.82314454  1
  Al  Al27  1  0.21150032  0.88022963  0.56881502  1
  Al  Al28  1  0.78523402  0.77252292  0.39500119  1
  Al  Al29  1  0.88256377  0.87628909  0.09285455  1
  Al  Al30  1  0.55724920  0.87532076  0.61489036  1
  B  B31  1  0.89756250  0.19396903  0.60717634  1
  B  B32  1  0.77886808  0.09214963  0.30126735  1
  B  B33  1  0.89887567  0.87518819  0.60926770  1
  B  B34  1  0.55263578  0.87200171  0.10143343  1
  B  B35  1  0.44271069  0.75896083  0.80474349  1
  N  N36  1  0.22937810  0.20384291  0.32501588  1
  N  N37  1  0.11464827  0.08936105  0.12122318  1
  N  N38  1  0.89007379  0.19777990  0.88783236  1
  N  N39  1  0.80884303  0.07879004  0.62876062  1
  N  N40  1  0.58666238  0.19098017  0.37132500  1
  N  N41  1  0.45566006  0.06169415  0.07646828  1
  N  N42  1  0.22181280  0.20867078  0.82819270  1
  N  N43  1  0.08275910  0.10697290  0.62898132  1
  N  N44  1  0.87628055  0.19061105  0.33257922  1
  N  N45  1  0.76517732  0.10034185  0.14053921  1
  N  N46  1  0.55639320  0.20673078  0.87843928  1
  N  N47  1  0.43908347  0.10719646  0.58390262  1
  N  N48  1  0.22671498  0.54310033  0.37742615  1
  N  N49  1  0.10183210  0.43052004  0.08013834  1
  N  N50  1  0.88687745  0.54023784  0.82448932  1
  N  N51  1  0.79560497  0.38835868  0.58760063  1
  N  N52  1  0.55338520  0.53946656  0.38364931  1
  N  N53  1  0.44393624  0.42925481  0.12832709  1
  N  N54  1  0.22455238  0.54001046  0.87675690  1
  N  N55  1  0.10542109  0.42842549  0.57497794  1
  N  N56  1  0.88566468  0.54101063  0.33431269  1
  N  N57  1  0.77235121  0.43738183  0.07821284  1
  N  N58  1  0.53666355  0.56925029  0.87035889  1
  N  N59  1  0.44431136  0.42373555  0.62947307  1
  N  N60  1  0.22510349  0.87097848  0.38341821  1
  N  N61  1  0.12040011  0.76334824  0.12391110  1
  N  N62  1  0.89094480  0.87074160  0.89119162  1
  N  N63  1  0.80173915  0.78207373  0.59190227  1
  N  N64  1  0.55912671  0.86089726  0.39737805  1
  N  N65  1  0.45638385  0.77938887  0.13179585  1
  N  N66  1  0.24899239  0.86005240  0.86862428  1
  N  N67  1  0.08599223  0.77593317  0.63019108  1
  N  N68  1  0.87821434  0.89513812  0.33023660  1
  N  N69  1  0.73989991  0.77419146  0.08269709  1
  N  N70  1  0.54653864  0.85997725  0.81748858  1
  N  N71  1  0.43379596  0.75587820  0.64465115  1
