# generated using pymatgen
data_Al31B5N36
_symmetry_space_group_name_H-M   'P 1'
_cell_length_a   9.20487450
_cell_length_b   9.26252061
_cell_length_c   9.94196890
_cell_angle_alpha   89.68940533
_cell_angle_beta   89.60456690
_cell_angle_gamma   60.06456073
_symmetry_Int_Tables_number   1
_chemical_formula_structural   Al31B5N36
_chemical_formula_sum   'Al31 B5 N36'
_cell_volume   734.54901887
_cell_formula_units_Z   1
loop_
 _symmetry_equiv_pos_site_id
 _symmetry_equiv_pos_as_xyz
  1  'x, y, z'
loop_
 _atom_site_type_symbol
 _atom_site_label
 _atom_site_symmetry_multiplicity
 _atom_site_fract_x
 _atom_site_fract_y
 _atom_site_fract_z
 _atom_site_occupancy
  Al  Al0  1  0.10849651  0.08890241  0.32322113  1
  Al  Al1  1  0.22718445  0.19429816  0.08010141  1
  Al  Al2  1  0.78216772  0.08767344  0.82438928  1
  Al  Al3  1  0.45679127  0.08163601  0.32943290  1
  Al  Al4  1  0.56106406  0.20143436  0.07632337  1
  Al  Al5  1  0.10673341  0.09295146  0.81789130  1
  Al  Al6  1  0.21791323  0.19929593  0.56841847  1
  Al  Al7  1  0.88368935  0.21373098  0.07211835  1
  Al  Al8  1  0.43947010  0.09326301  0.81991851  1
  Al  Al9  1  0.57006784  0.19554668  0.56529904  1
  Al  Al10  1  0.11110884  0.43029309  0.38274705  1
  Al  Al11  1  0.22772482  0.54258103  0.07510692  1
  Al  Al12  1  0.76840639  0.43440147  0.81887531  1
  Al  Al13  1  0.89641188  0.55629189  0.64686321  1
  Al  Al14  1  0.45885800  0.42265035  0.31918564  1
  Al  Al15  1  0.55808579  0.55214037  0.06367798  1
  Al  Al16  1  0.10065271  0.43124191  0.89689767  1
  Al  Al17  1  0.22435801  0.54034500  0.57461785  1
  Al  Al18  1  0.78801693  0.42053607  0.41511240  1
  Al  Al19  1  0.87685864  0.54454366  0.15395660  1
  Al  Al20  1  0.44318514  0.42992631  0.82293170  1
  Al  Al21  1  0.54212365  0.54993354  0.58290339  1
  Al  Al22  1  0.11171329  0.76530650  0.31705471  1
  Al  Al23  1  0.23298261  0.87498333  0.06621763  1
  Al  Al24  1  0.75739442  0.76603048  0.89965789  1
  Al  Al25  1  0.45410296  0.75806609  0.32964345  1
  Al  Al26  1  0.10792537  0.76294780  0.83218949  1
  Al  Al27  1  0.21303802  0.86999426  0.57254481  1
  Al  Al28  1  0.78341050  0.77304674  0.39967348  1
  Al  Al29  1  0.88264602  0.88140170  0.10554378  1
  Al  Al30  1  0.55479892  0.87227831  0.60979712  1
  B  B31  1  0.91988369  0.13045828  0.55375780  1
  B  B32  1  0.77432652  0.08738921  0.31307091  1
  B  B33  1  0.89776243  0.86944571  0.61178625  1
  B  B34  1  0.55528271  0.87219396  0.11532424  1
  B  B35  1  0.43699484  0.76573500  0.81017428  1
  N  N36  1  0.22640749  0.19770103  0.37455375  1
  N  N37  1  0.10679889  0.09280392  0.13384400  1
  N  N38  1  0.88357649  0.20741663  0.87771286  1
  N  N39  1  0.81114344  0.06368113  0.62273107  1
  N  N40  1  0.58363314  0.18898727  0.37280437  1
  N  N41  1  0.46196032  0.06373828  0.13201158  1
  N  N42  1  0.21947722  0.19973228  0.88327627  1
  N  N43  1  0.08189366  0.09897600  0.62093042  1
  N  N44  1  0.88830583  0.17799611  0.40624989  1
  N  N45  1  0.77406998  0.10945117  0.15309723  1
  N  N46  1  0.55687017  0.20205927  0.88301232  1
  N  N47  1  0.43880781  0.10520391  0.62907882  1
  N  N48  1  0.23084956  0.54282695  0.37970341  1
  N  N49  1  0.10684279  0.43070488  0.09705487  1
  N  N50  1  0.88655557  0.54938255  0.83550753  1
  N  N51  1  0.76930528  0.45283168  0.61508077  1
  N  N52  1  0.55632199  0.53863659  0.39094581  1
  N  N53  1  0.44986769  0.42931868  0.12845391  1
  N  N54  1  0.22302124  0.54028766  0.88084327  1
  N  N55  1  0.10881675  0.42689792  0.58353899  1
  N  N56  1  0.88497523  0.54635423  0.34541033  1
  N  N57  1  0.77520297  0.43204448  0.10690239  1
  N  N58  1  0.53622382  0.56941478  0.86888664  1
  N  N59  1  0.44961846  0.41893303  0.63253600  1
  N  N60  1  0.22672678  0.86770658  0.38413622  1
  N  N61  1  0.12176194  0.76243472  0.12731992  1
  N  N62  1  0.88623484  0.87616398  0.89905735  1
  N  N63  1  0.79988491  0.78430077  0.59561783  1
  N  N64  1  0.55314298  0.86992040  0.40438593  1
  N  N65  1  0.45850879  0.77939101  0.13390600  1
  N  N66  1  0.24193401  0.86430316  0.87275893  1
  N  N67  1  0.08538461  0.77067011  0.63357796  1
  N  N68  1  0.87667544  0.89498700  0.33310787  1
  N  N69  1  0.74171281  0.77736097  0.09691067  1
  N  N70  1  0.54182090  0.85945626  0.82995446  1
  N  N71  1  0.42363230  0.76602445  0.64896537  1
