# generated using pymatgen
data_Al31B5N36
_symmetry_space_group_name_H-M   'P 1'
_cell_length_a   9.17933120
_cell_length_b   9.17196477
_cell_length_c   10.06307104
_cell_angle_alpha   89.56629347
_cell_angle_beta   89.40555258
_cell_angle_gamma   60.03915427
_symmetry_Int_Tables_number   1
_chemical_formula_structural   Al31B5N36
_chemical_formula_sum   'Al31 B5 N36'
_cell_volume   733.97417018
_cell_formula_units_Z   1
loop_
 _symmetry_equiv_pos_site_id
 _symmetry_equiv_pos_as_xyz
  1  'x, y, z'
loop_
 _atom_site_type_symbol
 _atom_site_label
 _atom_site_symmetry_multiplicity
 _atom_site_fract_x
 _atom_site_fract_y
 _atom_site_fract_z
 _atom_site_occupancy
  Al  Al0  1  0.10231109  0.09394901  0.39523721  1
  Al  Al1  1  0.22585793  0.20043860  0.14042145  1
  Al  Al2  1  0.78014992  0.09106702  0.85202034  1
  Al  Al3  1  0.44824422  0.09050132  0.38190796  1
  Al  Al4  1  0.55838230  0.20571014  0.06365042  1
  Al  Al5  1  0.11282599  0.09256946  0.88356407  1
  Al  Al6  1  0.21925004  0.20581789  0.63842292  1
  Al  Al7  1  0.88461403  0.20571219  0.13044407  1
  Al  Al8  1  0.43937098  0.07816856  0.89291310  1
  Al  Al9  1  0.57969385  0.19359616  0.57233664  1
  Al  Al10  1  0.11039298  0.42942809  0.38955472  1
  Al  Al11  1  0.21667937  0.54287560  0.14099222  1
  Al  Al12  1  0.77926305  0.42776154  0.87679053  1
  Al  Al13  1  0.88699830  0.53861817  0.63851093  1
  Al  Al14  1  0.46019271  0.42339329  0.32015623  1
  Al  Al15  1  0.54514325  0.55729616  0.05843177  1
  Al  Al16  1  0.11095074  0.42713858  0.88991016  1
  Al  Al17  1  0.20806620  0.54509432  0.63718232  1
  Al  Al18  1  0.78705084  0.41409021  0.39379618  1
  Al  Al19  1  0.87943308  0.54403630  0.13901991  1
  Al  Al20  1  0.44758553  0.42700105  0.81250641  1
  Al  Al21  1  0.55356780  0.53499385  0.57390119  1
  Al  Al22  1  0.10221694  0.77329785  0.39540155  1
  Al  Al23  1  0.22240530  0.87715286  0.12719235  1
  Al  Al24  1  0.76791933  0.76163655  0.88889483  1
  Al  Al25  1  0.45259695  0.75921961  0.31544158  1
  Al  Al26  1  0.11321672  0.75854357  0.88506207  1
  Al  Al27  1  0.20764915  0.87844772  0.64229024  1
  Al  Al28  1  0.77777606  0.77305187  0.39012052  1
  Al  Al29  1  0.88084005  0.88047161  0.13376307  1
  Al  Al30  1  0.56141192  0.87436363  0.64160385  1
  B  B31  1  0.89483894  0.19585933  0.64819948  1
  B  B32  1  0.78075309  0.09481388  0.34906557  1
  B  B33  1  0.89412905  0.87920180  0.64995954  1
  B  B34  1  0.56056359  0.87633778  0.14427809  1
  B  B35  1  0.44455637  0.75516858  0.80424849  1
  N  N36  1  0.21942617  0.20545984  0.32940168  1
  N  N37  1  0.10901799  0.09917283  0.07278527  1
  N  N38  1  0.89458826  0.20776744  0.80843420  1
  N  N39  1  0.80376604  0.07945766  0.62496057  1
  N  N40  1  0.59210043  0.19165880  0.37251411  1
  N  N41  1  0.45657894  0.06740294  0.08766613  1
  N  N42  1  0.22309524  0.20522348  0.82682822  1
  N  N43  1  0.08651058  0.10598616  0.58640811  1
  N  N44  1  0.87488043  0.19192924  0.32454931  1
  N  N45  1  0.78966948  0.08974940  0.05862994  1
  N  N46  1  0.54527930  0.20833849  0.87310069  1
  N  N47  1  0.44266269  0.09016548  0.57149320  1
  N  N48  1  0.21768957  0.54638864  0.33320920  1
  N  N49  1  0.11067244  0.42785574  0.07985052  1
  N  N50  1  0.88882589  0.54077578  0.82635319  1
  N  N51  1  0.79417659  0.39462530  0.58640940  1
  N  N52  1  0.55458112  0.54546473  0.38472388  1
  N  N53  1  0.45335928  0.42711097  0.12917670  1
  N  N54  1  0.21590474  0.54045570  0.82641209  1
  N  N55  1  0.10830074  0.42693710  0.57580190  1
  N  N56  1  0.88556941  0.54158796  0.33006124  1
  N  N57  1  0.77998657  0.42652476  0.06978435  1
  N  N58  1  0.53630980  0.56690780  0.86614578  1
  N  N59  1  0.44651738  0.41913180  0.62253446  1
  N  N60  1  0.22070315  0.87533924  0.33473535  1
  N  N61  1  0.10966322  0.76193025  0.07510457  1
  N  N62  1  0.89161357  0.86062034  0.81179217  1
  N  N63  1  0.78657129  0.77446248  0.58095537  1
  N  N64  1  0.56709004  0.87853655  0.30920302  1
  N  N65  1  0.45909125  0.77255420  0.12559357  1
  N  N66  1  0.23929214  0.86299142  0.83245655  1
  N  N67  1  0.08274096  0.77625518  0.58670699  1
  N  N68  1  0.87605049  0.90457304  0.32684300  1
  N  N69  1  0.75424215  0.77541136  0.08340559  1
  N  N70  1  0.54429088  0.85874979  0.82853412  1
  N  N71  1  0.44586439  0.75198937  0.63952965  1
