# generated using pymatgen
data_Al31B5N36
_symmetry_space_group_name_H-M   'P 1'
_cell_length_a   9.15962072
_cell_length_b   9.13856351
_cell_length_c   10.19756258
_cell_angle_alpha   89.62323727
_cell_angle_beta   89.54470263
_cell_angle_gamma   60.37173364
_symmetry_Int_Tables_number   1
_chemical_formula_structural   Al31B5N36
_chemical_formula_sum   'Al31 B5 N36'
_cell_volume   741.96146111
_cell_formula_units_Z   1
loop_
 _symmetry_equiv_pos_site_id
 _symmetry_equiv_pos_as_xyz
  1  'x, y, z'
loop_
 _atom_site_type_symbol
 _atom_site_label
 _atom_site_symmetry_multiplicity
 _atom_site_fract_x
 _atom_site_fract_y
 _atom_site_fract_z
 _atom_site_occupancy
  Al  Al0  1  0.09626966  0.10271527  0.39601883  1
  Al  Al1  1  0.22462485  0.19857500  0.14035332  1
  Al  Al2  1  0.78008685  0.09023595  0.86901160  1
  Al  Al3  1  0.44653703  0.09129068  0.38250478  1
  Al  Al4  1  0.55447428  0.20702811  0.06703273  1
  Al  Al5  1  0.10982937  0.09689107  0.87979989  1
  Al  Al6  1  0.21755346  0.20491038  0.63946203  1
  Al  Al7  1  0.88766685  0.20659282  0.13420206  1
  Al  Al8  1  0.43847946  0.07813844  0.89430556  1
  Al  Al9  1  0.57777118  0.19345948  0.57088720  1
  Al  Al10  1  0.11091803  0.43087695  0.39031520  1
  Al  Al11  1  0.22236333  0.53609205  0.14011259  1
  Al  Al12  1  0.78049822  0.42571627  0.87766959  1
  Al  Al13  1  0.88843187  0.53967138  0.63911784  1
  Al  Al14  1  0.46215388  0.42258095  0.32075889  1
  Al  Al15  1  0.55002303  0.55335178  0.06102312  1
  Al  Al16  1  0.11038287  0.42928246  0.89088767  1
  Al  Al17  1  0.21236238  0.53824896  0.63656905  1
  Al  Al18  1  0.78518270  0.41697765  0.39645110  1
  Al  Al19  1  0.87974115  0.54397691  0.14312766  1
  Al  Al20  1  0.45015788  0.42488452  0.81450886  1
  Al  Al21  1  0.55244762  0.53673863  0.57619248  1
  Al  Al22  1  0.10630808  0.78002344  0.31482987  1
  Al  Al23  1  0.23937685  0.86597801  0.06035226  1
  Al  Al24  1  0.76302705  0.75583321  0.89878308  1
  Al  Al25  1  0.44497995  0.76294069  0.31713894  1
  Al  Al26  1  0.10728203  0.76692861  0.82501661  1
  Al  Al27  1  0.21372937  0.87054013  0.57801387  1
  Al  Al28  1  0.77893040  0.77719010  0.38422873  1
  Al  Al29  1  0.88637455  0.87548598  0.08415891  1
  Al  Al30  1  0.55978514  0.87611667  0.64424717  1
  B  B31  1  0.89693448  0.19212324  0.64977557  1
  B  B32  1  0.78077485  0.09340745  0.34490447  1
  B  B33  1  0.88892308  0.88437213  0.61030162  1
  B  B34  1  0.55985680  0.87429634  0.14883109  1
  B  B35  1  0.44095912  0.75611854  0.80917930  1
  N  N36  1  0.21789340  0.20634964  0.32786526  1
  N  N37  1  0.10787504  0.09985021  0.06950703  1
  N  N38  1  0.89175210  0.20447061  0.80681797  1
  N  N39  1  0.80389405  0.07067803  0.62415966  1
  N  N40  1  0.59169423  0.19292246  0.37561561  1
  N  N41  1  0.45439735  0.06613474  0.08780996  1
  N  N42  1  0.22278414  0.20653600  0.82526228  1
  N  N43  1  0.08117910  0.10950085  0.58805745  1
  N  N44  1  0.87494829  0.19529279  0.32451453  1
  N  N45  1  0.78090655  0.10369681  0.06811383  1
  N  N46  1  0.54565009  0.20710092  0.87617545  1
  N  N47  1  0.43955500  0.08957147  0.57074405  1
  N  N48  1  0.22294745  0.54039766  0.33324712  1
  N  N49  1  0.10974223  0.42859821  0.07866372  1
  N  N50  1  0.88867167  0.54100384  0.82460797  1
  N  N51  1  0.79245461  0.39713240  0.58741594  1
  N  N52  1  0.55319889  0.54800315  0.38828536  1
  N  N53  1  0.45579466  0.42619305  0.13110062  1
  N  N54  1  0.21993404  0.53682792  0.82703232  1
  N  N55  1  0.10795805  0.42605290  0.57477283  1
  N  N56  1  0.88609005  0.54272846  0.33194461  1
  N  N57  1  0.78366023  0.42604804  0.06897056  1
  N  N58  1  0.53949898  0.56472573  0.86923552  1
  N  N59  1  0.44928837  0.41667416  0.62588592  1
  N  N60  1  0.22897181  0.86978663  0.38999287  1
  N  N61  1  0.11738738  0.76762574  0.12553205  1
  N  N62  1  0.89376140  0.85912760  0.88854396  1
  N  N63  1  0.78901462  0.78193046  0.57932595  1
  N  N64  1  0.56376774  0.87976958  0.31067036  1
  N  N65  1  0.45484998  0.77109031  0.13148855  1
  N  N66  1  0.25052563  0.85600093  0.86878936  1
  N  N67  1  0.07688274  0.77926446  0.62982923  1
  N  N68  1  0.87343586  0.91013172  0.33300305  1
  N  N69  1  0.74654292  0.77187947  0.08967536  1
  N  N70  1  0.54526219  0.85877760  0.82848404  1
  N  N71  1  0.43621324  0.75484788  0.64793100  1
