# generated using pymatgen
data_Al31B5N36
_symmetry_space_group_name_H-M   'P 1'
_cell_length_a   9.18981410
_cell_length_b   9.20272077
_cell_length_c   10.00549744
_cell_angle_alpha   90.01201754
_cell_angle_beta   89.91696278
_cell_angle_gamma   60.08103784
_symmetry_Int_Tables_number   1
_chemical_formula_structural   Al31B5N36
_chemical_formula_sum   'Al31 B5 N36'
_cell_volume   733.40799937
_cell_formula_units_Z   1
loop_
 _symmetry_equiv_pos_site_id
 _symmetry_equiv_pos_as_xyz
  1  'x, y, z'
loop_
 _atom_site_type_symbol
 _atom_site_label
 _atom_site_symmetry_multiplicity
 _atom_site_fract_x
 _atom_site_fract_y
 _atom_site_fract_z
 _atom_site_occupancy
  Al  Al0  1  0.10854427  0.08785441  0.32504536  1
  Al  Al1  1  0.22768200  0.19601070  0.07863533  1
  Al  Al2  1  0.78184133  0.08926353  0.82272312  1
  Al  Al3  1  0.45707782  0.08265585  0.32945147  1
  Al  Al4  1  0.56165605  0.20148991  0.07654838  1
  Al  Al5  1  0.10827285  0.09440301  0.81511595  1
  Al  Al6  1  0.21928367  0.19906271  0.56842901  1
  Al  Al7  1  0.88889155  0.20505275  0.07452226  1
  Al  Al8  1  0.44036141  0.09410554  0.81959199  1
  Al  Al9  1  0.57016946  0.19524620  0.56618631  1
  Al  Al10  1  0.10776645  0.43056454  0.38479073  1
  Al  Al11  1  0.22601508  0.54461746  0.07316487  1
  Al  Al12  1  0.77285584  0.43599344  0.88046190  1
  Al  Al13  1  0.89235832  0.53902567  0.64644505  1
  Al  Al14  1  0.45422486  0.42235506  0.32099438  1
  Al  Al15  1  0.54651122  0.55753558  0.06910667  1
  Al  Al16  1  0.10279675  0.43209198  0.89296112  1
  Al  Al17  1  0.22143305  0.54301230  0.57503608  1
  Al  Al18  1  0.78639483  0.41684997  0.40233873  1
  Al  Al19  1  0.87687175  0.54687433  0.14873907  1
  Al  Al20  1  0.44453451  0.43109622  0.82135550  1
  Al  Al21  1  0.55256764  0.53749610  0.58076192  1
  Al  Al22  1  0.11106750  0.76564204  0.31770494  1
  Al  Al23  1  0.23198381  0.87717964  0.06439231  1
  Al  Al24  1  0.75816487  0.76883327  0.89639213  1
  Al  Al25  1  0.45124924  0.76071733  0.33083461  1
  Al  Al26  1  0.10758694  0.76499653  0.83004086  1
  Al  Al27  1  0.21295070  0.87203219  0.57367754  1
  Al  Al28  1  0.78365641  0.77165881  0.39984520  1
  Al  Al29  1  0.88207608  0.88208924  0.10668461  1
  Al  Al30  1  0.55561508  0.87222178  0.60883035  1
  B  B31  1  0.90251877  0.16927830  0.56113670  1
  B  B32  1  0.77912507  0.08993555  0.31782816  1
  B  B33  1  0.89595238  0.87142444  0.61122250  1
  B  B34  1  0.55472886  0.87381541  0.11462133  1
  B  B35  1  0.44026263  0.76354843  0.81045893  1
  N  N36  1  0.22685534  0.19757112  0.37527268  1
  N  N37  1  0.10896638  0.09413534  0.13616470  1
  N  N38  1  0.89001322  0.20008333  0.88273382  1
  N  N39  1  0.80666827  0.06925689  0.62462327  1
  N  N40  1  0.58322258  0.18991276  0.37474923  1
  N  N41  1  0.46187618  0.06545502  0.13239959  1
  N  N42  1  0.22144836  0.19995469  0.88385298  1
  N  N43  1  0.08489203  0.10176981  0.62134264  1
  N  N44  1  0.88575078  0.17736051  0.39802254  1
  N  N45  1  0.77351218  0.11139237  0.15569418  1
  N  N46  1  0.55745920  0.20376208  0.88461779  1
  N  N47  1  0.43902791  0.10520534  0.63024779  1
  N  N48  1  0.22765979  0.54320923  0.38080449  1
  N  N49  1  0.10418383  0.43356916  0.09215425  1
  N  N50  1  0.88525036  0.54756607  0.83309982  1
  N  N51  1  0.78922760  0.40866349  0.59517389  1
  N  N52  1  0.55486307  0.53911521  0.38599680  1
  N  N53  1  0.44727588  0.42993291  0.13110503  1
  N  N54  1  0.22416255  0.54181955  0.88006764  1
  N  N55  1  0.10647486  0.42818942  0.58330169  1
  N  N56  1  0.88291143  0.54401464  0.33734733  1
  N  N57  1  0.77559629  0.43568723  0.08023760  1
  N  N58  1  0.53443883  0.57128666  0.87351237  1
  N  N59  1  0.44728891  0.41982024  0.63252914  1
  N  N60  1  0.22658628  0.86727721  0.38612883  1
  N  N61  1  0.12174363  0.76445798  0.12814465  1
  N  N62  1  0.88718551  0.87683642  0.89909974  1
  N  N63  1  0.80076728  0.77811657  0.59535454  1
  N  N64  1  0.55310215  0.87053358  0.40433758  1
  N  N65  1  0.45696943  0.78158827  0.13584849  1
  N  N66  1  0.24346004  0.86492567  0.87121769  1
  N  N67  1  0.08403712  0.77332137  0.63380403  1
  N  N68  1  0.87665725  0.89351312  0.33295210  1
  N  N69  1  0.74075154  0.77837107  0.09357757  1
  N  N70  1  0.54219088  0.86001733  0.83041144  1
  N  N71  1  0.43207955  0.75726119  0.64802832  1
