# generated using pymatgen
data_Al31B5N36
_symmetry_space_group_name_H-M   'P 1'
_cell_length_a   9.19282609
_cell_length_b   9.18952884
_cell_length_c   9.97970933
_cell_angle_alpha   89.61196444
_cell_angle_beta   89.27023028
_cell_angle_gamma   59.94645518
_symmetry_Int_Tables_number   1
_chemical_formula_structural   Al31B5N36
_chemical_formula_sum   'Al31 B5 N36'
_cell_volume   729.66071119
_cell_formula_units_Z   1
loop_
 _symmetry_equiv_pos_site_id
 _symmetry_equiv_pos_as_xyz
  1  'x, y, z'
loop_
 _atom_site_type_symbol
 _atom_site_label
 _atom_site_symmetry_multiplicity
 _atom_site_fract_x
 _atom_site_fract_y
 _atom_site_fract_z
 _atom_site_occupancy
  Al  Al0  1  0.09902114  0.09517495  0.40597533  1
  Al  Al1  1  0.22682860  0.19882765  0.15128996  1
  Al  Al2  1  0.78159922  0.09122071  0.86304149  1
  Al  Al3  1  0.44836007  0.09014129  0.39454401  1
  Al  Al4  1  0.55791086  0.20502196  0.07413812  1
  Al  Al5  1  0.11452315  0.09065355  0.89669709  1
  Al  Al6  1  0.21820953  0.20681740  0.65050508  1
  Al  Al7  1  0.88718880  0.20182415  0.14207934  1
  Al  Al8  1  0.43923239  0.07842417  0.90294409  1
  Al  Al9  1  0.58024150  0.19471946  0.58605076  1
  Al  Al10  1  0.10804587  0.42924429  0.40176001  1
  Al  Al11  1  0.21673970  0.54288164  0.15179130  1
  Al  Al12  1  0.77198776  0.43285372  0.89430964  1
  Al  Al13  1  0.88674409  0.54019692  0.65103422  1
  Al  Al14  1  0.45363721  0.41766160  0.33805039  1
  Al  Al15  1  0.56015567  0.54923387  0.14876805  1
  Al  Al16  1  0.11036040  0.42673848  0.90144132  1
  Al  Al17  1  0.20720532  0.54689754  0.64681023  1
  Al  Al18  1  0.78374774  0.41466322  0.40334964  1
  Al  Al19  1  0.88219281  0.54465076  0.15053045  1
  Al  Al20  1  0.44557271  0.42800321  0.82459731  1
  Al  Al21  1  0.55809760  0.54034033  0.61623150  1
  Al  Al22  1  0.09788951  0.77459109  0.40574281  1
  Al  Al23  1  0.22811227  0.87376249  0.15027289  1
  Al  Al24  1  0.76924105  0.76087119  0.90015176  1
  Al  Al25  1  0.44428970  0.76858291  0.38086825  1
  Al  Al26  1  0.11659074  0.75758593  0.89802028  1
  Al  Al27  1  0.21743905  0.87539856  0.64660598  1
  Al  Al28  1  0.77534552  0.77367662  0.40068768  1
  Al  Al29  1  0.88050979  0.88021999  0.14354164  1
  Al  Al30  1  0.55717542  0.87365171  0.64655233  1
  B  B31  1  0.89689922  0.19339222  0.66118977  1
  B  B32  1  0.77998508  0.09380512  0.36091413  1
  B  B33  1  0.89591011  0.87932346  0.66203291  1
  B  B34  1  0.55434751  0.87328575  0.15648703  1
  B  B35  1  0.44584519  0.75670285  0.85748818  1
  N  N36  1  0.21899414  0.20473246  0.34225787  1
  N  N37  1  0.11127855  0.09476812  0.08618091  1
  N  N38  1  0.89480731  0.20984413  0.82212847  1
  N  N39  1  0.80497697  0.08081931  0.63788979  1
  N  N40  1  0.59234515  0.18848192  0.38595004  1
  N  N41  1  0.45681748  0.06745853  0.09792848  1
  N  N42  1  0.22266786  0.20441475  0.83960993  1
  N  N43  1  0.08636026  0.10597815  0.59888104  1
  N  N44  1  0.87433326  0.19005152  0.33692756  1
  N  N45  1  0.78901558  0.09002814  0.06895224  1
  N  N46  1  0.54586872  0.20758026  0.88053285  1
  N  N47  1  0.44246111  0.09439242  0.58673432  1
  N  N48  1  0.21402469  0.54714855  0.34679509  1
  N  N49  1  0.11147378  0.42680759  0.09195709  1
  N  N50  1  0.88803254  0.53975405  0.84030417  1
  N  N51  1  0.79263883  0.39878530  0.59514668  1
  N  N52  1  0.56229839  0.53774415  0.35433350  1
  N  N53  1  0.45059701  0.42213577  0.14171754  1
  N  N54  1  0.21571371  0.54023332  0.83808400  1
  N  N55  1  0.10758220  0.42767357  0.58918395  1
  N  N56  1  0.88500624  0.54197214  0.34271276  1
  N  N57  1  0.78000140  0.42595433  0.08609846  1
  N  N58  1  0.54119110  0.56859337  0.84294226  1
  N  N59  1  0.44477014  0.42387576  0.62741123  1
  N  N60  1  0.21481573  0.87696799  0.34275169  1
  N  N61  1  0.11146120  0.76305916  0.08825663  1
  N  N62  1  0.89428169  0.86003056  0.82424952  1
  N  N63  1  0.78684466  0.77681837  0.59436174  1
  N  N64  1  0.56198101  0.87688834  0.32202473  1
  N  N65  1  0.45863121  0.77735559  0.12324808  1
  N  N66  1  0.25115751  0.85635747  0.83965917  1
  N  N67  1  0.08430567  0.77811302  0.59840412  1
  N  N68  1  0.87345754  0.90441281  0.33792348  1
  N  N69  1  0.75512112  0.77462018  0.09444128  1
  N  N70  1  0.54086965  0.85449168  0.83751124  1
  N  N71  1  0.44165724  0.76959642  0.57591732  1
