# generated using pymatgen
data_Al31B5N36
_symmetry_space_group_name_H-M   'P 1'
_cell_length_a   9.15988158
_cell_length_b   9.14726257
_cell_length_c   10.14024797
_cell_angle_alpha   89.63533531
_cell_angle_beta   89.32237279
_cell_angle_gamma   60.22521182
_symmetry_Int_Tables_number   1
_chemical_formula_structural   Al31B5N36
_chemical_formula_sum   'Al31 B5 N36'
_cell_volume   737.41315769
_cell_formula_units_Z   1
loop_
 _symmetry_equiv_pos_site_id
 _symmetry_equiv_pos_as_xyz
  1  'x, y, z'
loop_
 _atom_site_type_symbol
 _atom_site_label
 _atom_site_symmetry_multiplicity
 _atom_site_fract_x
 _atom_site_fract_y
 _atom_site_fract_z
 _atom_site_occupancy
  Al  Al0  1  0.09824729  0.10187840  0.39620809  1
  Al  Al1  1  0.22478539  0.20001124  0.13999838  1
  Al  Al2  1  0.78099221  0.08867143  0.86450690  1
  Al  Al3  1  0.44690358  0.09038879  0.38236991  1
  Al  Al4  1  0.55586957  0.20611936  0.06595338  1
  Al  Al5  1  0.10943813  0.09704801  0.87721620  1
  Al  Al6  1  0.21805199  0.20759686  0.63906912  1
  Al  Al7  1  0.88718348  0.20453450  0.13176939  1
  Al  Al8  1  0.43920000  0.07826287  0.89363464  1
  Al  Al9  1  0.57940998  0.19364647  0.57081067  1
  Al  Al10  1  0.10997232  0.43045346  0.39006799  1
  Al  Al11  1  0.21771923  0.54335131  0.14133357  1
  Al  Al12  1  0.77930626  0.42643245  0.87640347  1
  Al  Al13  1  0.88679015  0.54028036  0.63894915  1
  Al  Al14  1  0.46109215  0.42327554  0.32049871  1
  Al  Al15  1  0.54911223  0.55261156  0.06050331  1
  Al  Al16  1  0.11053273  0.42805653  0.89034841  1
  Al  Al17  1  0.20740152  0.54633603  0.63811941  1
  Al  Al18  1  0.78500849  0.41635288  0.39578223  1
  Al  Al19  1  0.88057679  0.54306582  0.13998847  1
  Al  Al20  1  0.44847599  0.42610593  0.81278031  1
  Al  Al21  1  0.55226585  0.53692231  0.57630107  1
  Al  Al22  1  0.10021591  0.77098611  0.39214803  1
  Al  Al23  1  0.24096994  0.86952374  0.06165993  1
  Al  Al24  1  0.76791703  0.76091204  0.89201703  1
  Al  Al25  1  0.44503961  0.76254983  0.31615799  1
  Al  Al26  1  0.11068973  0.75734564  0.88355802  1
  Al  Al27  1  0.21721504  0.87456194  0.58605320  1
  Al  Al28  1  0.77604702  0.77400626  0.38808447  1
  Al  Al29  1  0.88307368  0.87927364  0.13236711  1
  Al  Al30  1  0.56017979  0.87553671  0.64472636  1
  B  B31  1  0.89451183  0.19227711  0.64778635  1
  B  B32  1  0.78101214  0.09472514  0.34973463  1
  B  B33  1  0.89148777  0.88061456  0.63897505  1
  B  B34  1  0.56054247  0.87589450  0.14683788  1
  B  B35  1  0.44121495  0.75670326  0.80949903  1
  N  N36  1  0.21866873  0.20675834  0.32784122  1
  N  N37  1  0.10794640  0.10093871  0.07022910  1
  N  N38  1  0.89059115  0.20573209  0.80704211  1
  N  N39  1  0.80594406  0.07669352  0.61525943  1
  N  N40  1  0.59157019  0.19156819  0.37245230  1
  N  N41  1  0.45543741  0.06589416  0.08772388  1
  N  N42  1  0.22363531  0.20659713  0.82548944  1
  N  N43  1  0.08232317  0.11171121  0.58929993  1
  N  N44  1  0.87527039  0.19285334  0.32438252  1
  N  N45  1  0.78736316  0.09153160  0.06267457  1
  N  N46  1  0.54539211  0.20869291  0.87620513  1
  N  N47  1  0.44087950  0.08964900  0.57075456  1
  N  N48  1  0.21835157  0.54611003  0.33148908  1
  N  N49  1  0.11147323  0.42807490  0.07921943  1
  N  N50  1  0.88883618  0.54039858  0.82594125  1
  N  N51  1  0.79208198  0.39771025  0.58680024  1
  N  N52  1  0.55293799  0.54747808  0.38703740  1
  N  N53  1  0.45445110  0.42618428  0.13140188  1
  N  N54  1  0.21617749  0.54042678  0.82509445  1
  N  N55  1  0.10798890  0.42798197  0.57501742  1
  N  N56  1  0.88564632  0.54173958  0.33004988  1
  N  N57  1  0.78257442  0.42479245  0.06926725  1
  N  N58  1  0.53799581  0.56471200  0.86907751  1
  N  N59  1  0.44671621  0.41838413  0.62397867  1
  N  N60  1  0.23282907  0.87151036  0.39064771  1
  N  N61  1  0.11085511  0.76111963  0.07617763  1
  N  N62  1  0.88924106  0.86252568  0.81872332  1
  N  N63  1  0.78502169  0.77838264  0.57918082  1
  N  N64  1  0.56513616  0.87902676  0.30851163  1
  N  N65  1  0.45672158  0.77049753  0.12996366  1
  N  N66  1  0.25137966  0.85809558  0.86669261  1
  N  N67  1  0.07851671  0.77462856  0.58481140  1
  N  N68  1  0.87703252  0.90453307  0.32404239  1
  N  N69  1  0.75310946  0.77435288  0.08577393  1
  N  N70  1  0.54605600  0.85862500  0.82982799  1
  N  N71  1  0.43897778  0.75408918  0.64884530  1
