# generated using pymatgen
data_Al31B5N36
_symmetry_space_group_name_H-M   'P 1'
_cell_length_a   9.14387054
_cell_length_b   9.19026089
_cell_length_c   10.20309854
_cell_angle_alpha   89.56826226
_cell_angle_beta   89.33882952
_cell_angle_gamma   59.99389225
_symmetry_Int_Tables_number   1
_chemical_formula_structural   Al31B5N36
_chemical_formula_sum   'Al31 B5 N36'
_cell_volume   742.44463065
_cell_formula_units_Z   1
loop_
 _symmetry_equiv_pos_site_id
 _symmetry_equiv_pos_as_xyz
  1  'x, y, z'
loop_
 _atom_site_type_symbol
 _atom_site_label
 _atom_site_symmetry_multiplicity
 _atom_site_fract_x
 _atom_site_fract_y
 _atom_site_fract_z
 _atom_site_occupancy
  Al  Al0  1  0.09666551  0.10325493  0.39152587  1
  Al  Al1  1  0.22234095  0.19809510  0.13416595  1
  Al  Al2  1  0.77848350  0.08485167  0.80787075  1
  Al  Al3  1  0.44679655  0.09059207  0.37240063  1
  Al  Al4  1  0.55850711  0.20471938  0.07201077  1
  Al  Al5  1  0.11257060  0.09612157  0.87381527  1
  Al  Al6  1  0.22608290  0.20549287  0.63465395  1
  Al  Al7  1  0.88728664  0.20863852  0.13719692  1
  Al  Al8  1  0.44597536  0.07985224  0.89199780  1
  Al  Al9  1  0.57493228  0.18861540  0.55725811  1
  Al  Al10  1  0.10984298  0.42626493  0.38137233  1
  Al  Al11  1  0.22617097  0.54304365  0.06796078  1
  Al  Al12  1  0.77778924  0.43321246  0.87537621  1
  Al  Al13  1  0.89522816  0.54155686  0.63630832  1
  Al  Al14  1  0.45492147  0.42615369  0.31612042  1
  Al  Al15  1  0.54716833  0.55473250  0.05860340  1
  Al  Al16  1  0.11006664  0.42550229  0.88686844  1
  Al  Al17  1  0.22279756  0.54268090  0.56486439  1
  Al  Al18  1  0.78692620  0.41669199  0.39044973  1
  Al  Al19  1  0.87992985  0.54170999  0.13755477  1
  Al  Al20  1  0.44638261  0.42798615  0.81465971  1
  Al  Al21  1  0.55283136  0.53645704  0.57593918  1
  Al  Al22  1  0.10860036  0.77281816  0.31555042  1
  Al  Al23  1  0.23598423  0.86646253  0.05685729  1
  Al  Al24  1  0.76501579  0.76336466  0.89602449  1
  Al  Al25  1  0.44422413  0.76272748  0.31613399  1
  Al  Al26  1  0.10831395  0.76203509  0.82002752  1
  Al  Al27  1  0.20669899  0.87465649  0.57878583  1
  Al  Al28  1  0.78080774  0.77250271  0.37705295  1
  Al  Al29  1  0.88548727  0.87654167  0.08749434  1
  Al  Al30  1  0.56011253  0.87440559  0.63798033  1
  B  B31  1  0.91511043  0.23545060  0.64974243  1
  B  B32  1  0.77532605  0.08967224  0.30351945  1
  B  B33  1  0.88067606  0.86405728  0.59936137  1
  B  B34  1  0.55917837  0.87279997  0.14439494  1
  B  B35  1  0.43963521  0.75761389  0.80501127  1
  N  N36  1  0.21819365  0.20448784  0.31998879  1
  N  N37  1  0.10268707  0.09994745  0.06162023  1
  N  N38  1  0.89284295  0.21548736  0.79613944  1
  N  N39  1  0.77743899  0.03977305  0.63235262  1
  N  N40  1  0.58484047  0.19620276  0.36790118  1
  N  N41  1  0.45348751  0.06565419  0.08241040  1
  N  N42  1  0.22878383  0.20595621  0.82051057  1
  N  N43  1  0.08079810  0.11730076  0.58551745  1
  N  N44  1  0.88055925  0.20005391  0.32275493  1
  N  N45  1  0.76751271  0.09600298  0.14469613  1
  N  N46  1  0.56181537  0.20775970  0.88342490  1
  N  N47  1  0.43842431  0.08402579  0.55998298  1
  N  N48  1  0.22689809  0.54551966  0.37598112  1
  N  N49  1  0.10748882  0.42507455  0.07602416  1
  N  N50  1  0.89022975  0.54666844  0.82159707  1
  N  N51  1  0.79793521  0.40314609  0.58519801  1
  N  N52  1  0.55352991  0.54628826  0.38786426  1
  N  N53  1  0.44772697  0.43120802  0.12894728  1
  N  N54  1  0.22678089  0.54195375  0.87771738  1
  N  N55  1  0.11136802  0.42180659  0.57084066  1
  N  N56  1  0.88642876  0.54075650  0.32408418  1
  N  N57  1  0.78147262  0.42310944  0.06361405  1
  N  N58  1  0.53862543  0.56872529  0.86515319  1
  N  N59  1  0.44921240  0.41394340  0.62816998  1
  N  N60  1  0.22735075  0.87066977  0.39108096  1
  N  N61  1  0.11992117  0.76284395  0.12792760  1
  N  N62  1  0.89223454  0.87862692  0.89540010  1
  N  N63  1  0.78859159  0.76252187  0.56961853  1
  N  N64  1  0.56437498  0.87754158  0.30373833  1
  N  N65  1  0.45220743  0.77176400  0.12879778  1
  N  N66  1  0.24892228  0.85721618  0.86290674  1
  N  N67  1  0.07608261  0.76937000  0.62989088  1
  N  N68  1  0.87876849  0.90189942  0.34350809  1
  N  N69  1  0.74763309  0.76948653  0.08423589  1
  N  N70  1  0.54791356  0.86239349  0.82261272  1
  N  N71  1  0.43372909  0.75559406  0.64568679  1
