# generated using pymatgen
data_Al31B5N36
_symmetry_space_group_name_H-M   'P 1'
_cell_length_a   9.17011831
_cell_length_b   9.16600904
_cell_length_c   9.79833102
_cell_angle_alpha   90.05215538
_cell_angle_beta   90.23017219
_cell_angle_gamma   60.05857474
_symmetry_Int_Tables_number   1
_chemical_formula_structural   Al31B5N36
_chemical_formula_sum   'Al31 B5 N36'
_cell_volume   713.65800744
_cell_formula_units_Z   1
loop_
 _symmetry_equiv_pos_site_id
 _symmetry_equiv_pos_as_xyz
  1  'x, y, z'
loop_
 _atom_site_type_symbol
 _atom_site_label
 _atom_site_symmetry_multiplicity
 _atom_site_fract_x
 _atom_site_fract_y
 _atom_site_fract_z
 _atom_site_occupancy
  Al  Al0  1  0.10688438  0.09190104  0.30706562  1
  Al  Al1  1  0.22463409  0.19946091  0.05081740  1
  Al  Al2  1  0.78267750  0.09178128  0.79411283  1
  Al  Al3  1  0.45239470  0.08693780  0.29637347  1
  Al  Al4  1  0.56355674  0.19707279  0.05748162  1
  Al  Al5  1  0.10844804  0.09413121  0.79587143  1
  Al  Al6  1  0.21821774  0.20682107  0.55004183  1
  Al  Al7  1  0.88746957  0.20230169  0.05872031  1
  Al  Al8  1  0.44515660  0.08862014  0.80804636  1
  Al  Al9  1  0.56651988  0.19916742  0.54752535  1
  Al  Al10  1  0.11058246  0.42823602  0.29892677  1
  Al  Al11  1  0.22161100  0.54071710  0.05032873  1
  Al  Al12  1  0.77651801  0.42556411  0.79595909  1
  Al  Al13  1  0.88838796  0.54114363  0.55121017  1
  Al  Al14  1  0.44997613  0.42486638  0.30101543  1
  Al  Al15  1  0.55636308  0.54669841  0.04667624  1
  Al  Al16  1  0.10961266  0.42810345  0.80072387  1
  Al  Al17  1  0.21614808  0.54320150  0.54971094  1
  Al  Al18  1  0.77678593  0.42186302  0.30871047  1
  Al  Al19  1  0.88112508  0.54324783  0.05069526  1
  Al  Al20  1  0.44388363  0.43124872  0.80115523  1
  Al  Al21  1  0.55718819  0.53774585  0.55635062  1
  Al  Al22  1  0.10660151  0.76801811  0.30699619  1
  Al  Al23  1  0.22968039  0.87159436  0.04609825  1
  Al  Al24  1  0.77354072  0.76596090  0.80330164  1
  Al  Al25  1  0.44763011  0.76353545  0.29823246  1
  Al  Al26  1  0.10822206  0.76419595  0.79636694  1
  Al  Al27  1  0.21759222  0.87525275  0.55651852  1
  Al  Al28  1  0.77207071  0.77032202  0.30348765  1
  Al  Al29  1  0.88288825  0.87638139  0.05848628  1
  Al  Al30  1  0.55856739  0.87445300  0.55783543  1
  B  B31  1  0.89026643  0.19171310  0.54234060  1
  B  B32  1  0.77872628  0.09313664  0.31026717  1
  B  B33  1  0.88956053  0.88445019  0.54393622  1
  B  B34  1  0.55229133  0.86783066  0.04609549  1
  B  B35  1  0.44597667  0.76068566  0.80242746  1
  N  N36  1  0.22553907  0.20413819  0.35690344  1
  N  N37  1  0.11121482  0.09165164  0.11367554  1
  N  N38  1  0.88747587  0.20387603  0.86591742  1
  N  N39  1  0.80186504  0.08238991  0.59931914  1
  N  N40  1  0.57948038  0.19217305  0.35308705  1
  N  N41  1  0.45785358  0.06727895  0.09971242  1
  N  N42  1  0.21969268  0.20471350  0.85864150  1
  N  N43  1  0.08427196  0.10735593  0.59987942  1
  N  N44  1  0.87794243  0.19150769  0.37451924  1
  N  N45  1  0.78174028  0.09171818  0.14169574  1
  N  N46  1  0.56141929  0.20340628  0.86207287  1
  N  N47  1  0.44364638  0.09730021  0.61401184  1
  N  N48  1  0.22309900  0.53878307  0.35817976  1
  N  N49  1  0.10988563  0.42773463  0.10681583  1
  N  N50  1  0.88534747  0.54006563  0.85654513  1
  N  N51  1  0.78959941  0.39994383  0.60089683  1
  N  N52  1  0.55314061  0.54324336  0.36353246  1
  N  N53  1  0.44700727  0.42795256  0.10735459  1
  N  N54  1  0.22036520  0.54164984  0.85765820  1
  N  N55  1  0.10985368  0.42834373  0.60958400  1
  N  N56  1  0.88750369  0.54172108  0.35860806  1
  N  N57  1  0.77667152  0.42602506  0.11434699  1
  N  N58  1  0.54489806  0.56272299  0.85167982  1
  N  N59  1  0.44320136  0.42629286  0.60836488  1
  N  N60  1  0.22848996  0.86915678  0.36467760  1
  N  N61  1  0.11137066  0.76354189  0.11260441  1
  N  N62  1  0.88814326  0.87578938  0.86691157  1
  N  N63  1  0.78905174  0.77872272  0.60618703  1
  N  N64  1  0.55450076  0.87208427  0.36824115  1
  N  N65  1  0.45708937  0.77379773  0.10490658  1
  N  N66  1  0.24489353  0.86073059  0.84916892  1
  N  N67  1  0.08414429  0.77604572  0.60030439  1
  N  N68  1  0.87704991  0.89618005  0.37323611  1
  N  N69  1  0.75145178  0.77442417  0.10457293  1
  N  N70  1  0.54497874  0.85943076  0.87173319  1
  N  N71  1  0.44742450  0.76281837  0.63464841  1
