# generated using pymatgen
data_Al31B5N36
_symmetry_space_group_name_H-M   'P 1'
_cell_length_a   9.19033617
_cell_length_b   9.18702443
_cell_length_c   9.98301750
_cell_angle_alpha   89.66047917
_cell_angle_beta   89.28745517
_cell_angle_gamma   59.94001207
_symmetry_Int_Tables_number   1
_chemical_formula_structural   Al31B5N36
_chemical_formula_sum   'Al31 B5 N36'
_cell_volume   729.46134402
_cell_formula_units_Z   1
loop_
 _symmetry_equiv_pos_site_id
 _symmetry_equiv_pos_as_xyz
  1  'x, y, z'
loop_
 _atom_site_type_symbol
 _atom_site_label
 _atom_site_symmetry_multiplicity
 _atom_site_fract_x
 _atom_site_fract_y
 _atom_site_fract_z
 _atom_site_occupancy
  Al  Al0  1  0.09890192  0.09539054  0.40562624  1
  Al  Al1  1  0.22663279  0.19896003  0.15133344  1
  Al  Al2  1  0.78175851  0.09104756  0.86322299  1
  Al  Al3  1  0.44830572  0.08973580  0.39384667  1
  Al  Al4  1  0.55794234  0.20477353  0.07438507  1
  Al  Al5  1  0.11445492  0.09074054  0.89695993  1
  Al  Al6  1  0.21836100  0.20679056  0.65032786  1
  Al  Al7  1  0.88683679  0.20224044  0.14225175  1
  Al  Al8  1  0.43908532  0.07831975  0.90318627  1
  Al  Al9  1  0.58022484  0.19535245  0.58543148  1
  Al  Al10  1  0.10777414  0.42932110  0.40162628  1
  Al  Al11  1  0.21664201  0.54284200  0.15162096  1
  Al  Al12  1  0.77263987  0.43244536  0.89445404  1
  Al  Al13  1  0.88732072  0.54040804  0.65078565  1
  Al  Al14  1  0.45353756  0.41818938  0.33776548  1
  Al  Al15  1  0.56027702  0.54942276  0.15019813  1
  Al  Al16  1  0.11003693  0.42679512  0.90154215  1
  Al  Al17  1  0.20789358  0.54683017  0.64645034  1
  Al  Al18  1  0.78100667  0.41614370  0.40461418  1
  Al  Al19  1  0.88180904  0.54450400  0.15068369  1
  Al  Al20  1  0.44458850  0.42651761  0.82554201  1
  Al  Al21  1  0.55939148  0.54145391  0.63017996  1
  Al  Al22  1  0.09801777  0.77467513  0.40550207  1
  Al  Al23  1  0.22891988  0.87335714  0.14981410  1
  Al  Al24  1  0.76949510  0.76097116  0.90017666  1
  Al  Al25  1  0.44485537  0.76695754  0.38414326  1
  Al  Al26  1  0.11637601  0.75782133  0.89814807  1
  Al  Al27  1  0.21764180  0.87533103  0.64672384  1
  Al  Al28  1  0.77493034  0.77362217  0.40013630  1
  Al  Al29  1  0.88055277  0.88024223  0.14354661  1
  Al  Al30  1  0.55751766  0.87410759  0.64650043  1
  B  B31  1  0.89701206  0.19316479  0.66118101  1
  B  B32  1  0.77987359  0.09405108  0.36080090  1
  B  B33  1  0.89587973  0.87936306  0.66167525  1
  B  B34  1  0.55390368  0.87269644  0.15500218  1
  B  B35  1  0.44564704  0.75801122  0.85952568  1
  N  N36  1  0.21887114  0.20485407  0.34209562  1
  N  N37  1  0.11108325  0.09482281  0.08637229  1
  N  N38  1  0.89495137  0.20961378  0.82207967  1
  N  N39  1  0.80498070  0.08091782  0.63765589  1
  N  N40  1  0.59207143  0.18864492  0.38548678  1
  N  N41  1  0.45665870  0.06738742  0.09790987  1
  N  N42  1  0.22264896  0.20438984  0.83950427  1
  N  N43  1  0.08652449  0.10588483  0.59868844  1
  N  N44  1  0.87387838  0.19062663  0.33724510  1
  N  N45  1  0.78909071  0.08998189  0.06894839  1
  N  N46  1  0.54618003  0.20665184  0.88078031  1
  N  N47  1  0.44256221  0.09441357  0.58617310  1
  N  N48  1  0.21390078  0.54718583  0.34666652  1
  N  N49  1  0.11107203  0.42688213  0.09194178  1
  N  N50  1  0.88793999  0.53989511  0.84007348  1
  N  N51  1  0.79193330  0.39956326  0.59593904  1
  N  N52  1  0.56247224  0.53861347  0.34859010  1
  N  N53  1  0.45012386  0.42216781  0.14061998  1
  N  N54  1  0.21521045  0.54043719  0.83812704  1
  N  N55  1  0.10802154  0.42762184  0.58903472  1
  N  N56  1  0.88458324  0.54174412  0.34296940  1
  N  N57  1  0.77956359  0.42608707  0.08530243  1
  N  N58  1  0.54202193  0.56825185  0.83856732  1
  N  N59  1  0.44546493  0.42406617  0.62788269  1
  N  N60  1  0.21598646  0.87646801  0.34258973  1
  N  N61  1  0.11140008  0.76311569  0.08825784  1
  N  N62  1  0.89438483  0.86004350  0.82402898  1
  N  N63  1  0.78710170  0.77710350  0.59405598  1
  N  N64  1  0.56089292  0.87578204  0.32131182  1
  N  N65  1  0.45883553  0.77705112  0.11713569  1
  N  N66  1  0.25124712  0.85638433  0.83994397  1
  N  N67  1  0.08453652  0.77814994  0.59822012  1
  N  N68  1  0.87329800  0.90452690  0.33783053  1
  N  N69  1  0.75520836  0.77454129  0.09432264  1
  N  N70  1  0.54120320  0.85473612  0.83732378  1
  N  N71  1  0.44307453  0.76777596  0.57731790  1
