# generated using pymatgen
data_Al31B5N36
_symmetry_space_group_name_H-M   'P 1'
_cell_length_a   9.19325171
_cell_length_b   9.18968112
_cell_length_c   9.98264483
_cell_angle_alpha   89.56906501
_cell_angle_beta   89.26430975
_cell_angle_gamma   59.95901969
_symmetry_Int_Tables_number   1
_chemical_formula_structural   Al31B5N36
_chemical_formula_sum   'Al31 B5 N36'
_cell_volume   730.01235040
_cell_formula_units_Z   1
loop_
 _symmetry_equiv_pos_site_id
 _symmetry_equiv_pos_as_xyz
  1  'x, y, z'
loop_
 _atom_site_type_symbol
 _atom_site_label
 _atom_site_symmetry_multiplicity
 _atom_site_fract_x
 _atom_site_fract_y
 _atom_site_fract_z
 _atom_site_occupancy
  Al  Al0  1  0.09936297  0.09476766  0.40656536  1
  Al  Al1  1  0.22690176  0.19875234  0.15130611  1
  Al  Al2  1  0.78138778  0.09138249  0.86263798  1
  Al  Al3  1  0.44840245  0.09052440  0.39533496  1
  Al  Al4  1  0.55804395  0.20484296  0.07377956  1
  Al  Al5  1  0.11462166  0.09045545  0.89644696  1
  Al  Al6  1  0.21812350  0.20682326  0.65066323  1
  Al  Al7  1  0.88766458  0.20119187  0.14213314  1
  Al  Al8  1  0.43938568  0.07853053  0.90258830  1
  Al  Al9  1  0.58005680  0.19456610  0.58690043  1
  Al  Al10  1  0.10852665  0.42915474  0.40202932  1
  Al  Al11  1  0.21640436  0.54308364  0.15200007  1
  Al  Al12  1  0.77217277  0.43271099  0.89397088  1
  Al  Al13  1  0.88596306  0.53986498  0.65115751  1
  Al  Al14  1  0.45428215  0.41733038  0.33714917  1
  Al  Al15  1  0.55813215  0.54999715  0.13651800  1
  Al  Al16  1  0.11071503  0.42671701  0.90126415  1
  Al  Al17  1  0.20696064  0.54689438  0.64746042  1
  Al  Al18  1  0.78786712  0.41244033  0.40187851  1
  Al  Al19  1  0.88250499  0.54485379  0.15063828  1
  Al  Al20  1  0.44698404  0.43004175  0.82384818  1
  Al  Al21  1  0.55598401  0.53812191  0.59036077  1
  Al  Al22  1  0.09783814  0.77445071  0.40612175  1
  Al  Al23  1  0.22678686  0.87446222  0.15093610  1
  Al  Al24  1  0.76902909  0.76081742  0.90000165  1
  Al  Al25  1  0.44368978  0.77034035  0.37719383  1
  Al  Al26  1  0.11679740  0.75739295  0.89785897  1
  Al  Al27  1  0.21770120  0.87525252  0.64689571  1
  Al  Al28  1  0.77564107  0.77382774  0.40137634  1
  Al  Al29  1  0.88043171  0.88017406  0.14361964  1
  Al  Al30  1  0.55674269  0.87297343  0.64685205  1
  B  B31  1  0.89651657  0.19420252  0.66102904  1
  B  B32  1  0.77998470  0.09359347  0.36106839  1
  B  B33  1  0.89589922  0.87927742  0.66221464  1
  B  B34  1  0.55502259  0.87400441  0.15795175  1
  B  B35  1  0.44602886  0.75531953  0.85750275  1
  N  N36  1  0.21907007  0.20462755  0.34234037  1
  N  N37  1  0.11146246  0.09472306  0.08602596  1
  N  N38  1  0.89477347  0.20989184  0.82221466  1
  N  N39  1  0.80488860  0.08073721  0.63806200  1
  N  N40  1  0.59241020  0.18861279  0.38620981  1
  N  N41  1  0.45689282  0.06744463  0.09799056  1
  N  N42  1  0.22265091  0.20443890  0.83970752  1
  N  N43  1  0.08628598  0.10601735  0.59906312  1
  N  N44  1  0.87487980  0.18936153  0.33657803  1
  N  N45  1  0.78898621  0.09003708  0.06907979  1
  N  N46  1  0.54552212  0.20855210  0.88058147  1
  N  N47  1  0.44248176  0.09442420  0.58721111  1
  N  N48  1  0.21445238  0.54697187  0.34665153  1
  N  N49  1  0.11179197  0.42674087  0.09194362  1
  N  N50  1  0.88815375  0.53966151  0.84039759  1
  N  N51  1  0.79319509  0.39792734  0.59481875  1
  N  N52  1  0.56132866  0.53649154  0.36787183  1
  N  N53  1  0.45120036  0.42226868  0.14283784  1
  N  N54  1  0.21621414  0.54003163  0.83818254  1
  N  N55  1  0.10732423  0.42781970  0.58929204  1
  N  N56  1  0.88545316  0.54225467  0.34243968  1
  N  N57  1  0.78143478  0.42523265  0.08718684  1
  N  N58  1  0.53919173  0.56928307  0.85697697  1
  N  N59  1  0.44481400  0.42422679  0.62845295  1
  N  N60  1  0.21373129  0.87736376  0.34280824  1
  N  N61  1  0.11151210  0.76298699  0.08827466  1
  N  N62  1  0.89418820  0.86002360  0.82443323  1
  N  N63  1  0.78661082  0.77660604  0.59462600  1
  N  N64  1  0.56305431  0.87792144  0.32253648  1
  N  N65  1  0.45805960  0.77794089  0.12969083  1
  N  N66  1  0.25091953  0.85644818  0.83971202  1
  N  N67  1  0.08423021  0.77804064  0.59855854  1
  N  N68  1  0.87358578  0.90428802  0.33799478  1
  N  N69  1  0.75486888  0.77466525  0.09456546  1
  N  N70  1  0.54067559  0.85420003  0.83790545  1
  N  N71  1  0.44017009  0.77157967  0.57542798  1
