# generated using pymatgen
data_Al31B5N36
_symmetry_space_group_name_H-M   'P 1'
_cell_length_a   9.18900753
_cell_length_b   9.17724612
_cell_length_c   9.92268259
_cell_angle_alpha   90.25448656
_cell_angle_beta   89.87623376
_cell_angle_gamma   59.97212606
_symmetry_Int_Tables_number   1
_chemical_formula_structural   Al31B5N36
_chemical_formula_sum   'Al31 B5 N36'
_cell_volume   724.45066767
_cell_formula_units_Z   1
loop_
 _symmetry_equiv_pos_site_id
 _symmetry_equiv_pos_as_xyz
  1  'x, y, z'
loop_
 _atom_site_type_symbol
 _atom_site_label
 _atom_site_symmetry_multiplicity
 _atom_site_fract_x
 _atom_site_fract_y
 _atom_site_fract_z
 _atom_site_occupancy
  Al  Al0  1  0.10588696  0.09187311  0.31973609  1
  Al  Al1  1  0.22592403  0.19953318  0.06742601  1
  Al  Al2  1  0.78182987  0.09007535  0.81591048  1
  Al  Al3  1  0.45441537  0.08514784  0.32188873  1
  Al  Al4  1  0.56098429  0.20043110  0.06905820  1
  Al  Al5  1  0.10889912  0.09463980  0.80969648  1
  Al  Al6  1  0.21730892  0.20651532  0.56102935  1
  Al  Al7  1  0.88760573  0.20776453  0.06852395  1
  Al  Al8  1  0.44064339  0.09348022  0.81219269  1
  Al  Al9  1  0.57045441  0.19470140  0.55915230  1
  Al  Al10  1  0.11063996  0.42978949  0.31547079  1
  Al  Al11  1  0.22409506  0.54032245  0.06211158  1
  Al  Al12  1  0.77477874  0.42777829  0.81018586  1
  Al  Al13  1  0.89334970  0.53243933  0.57046831  1
  Al  Al14  1  0.45022406  0.42375435  0.31362967  1
  Al  Al15  1  0.55685733  0.54963183  0.06104077  1
  Al  Al16  1  0.10904641  0.42841680  0.81663203  1
  Al  Al17  1  0.21774037  0.54094955  0.56628996  1
  Al  Al18  1  0.77800203  0.42109840  0.32427801  1
  Al  Al19  1  0.88386763  0.53926696  0.07186140  1
  Al  Al20  1  0.44492423  0.43047821  0.81375259  1
  Al  Al21  1  0.55657366  0.53218060  0.56661221  1
  Al  Al22  1  0.11053335  0.76642729  0.31104015  1
  Al  Al23  1  0.23385071  0.87453445  0.05779173  1
  Al  Al24  1  0.75814010  0.77110062  0.88246779  1
  Al  Al25  1  0.44929609  0.76288498  0.32168919  1
  Al  Al26  1  0.10846653  0.76423806  0.82189757  1
  Al  Al27  1  0.21215500  0.87441628  0.56734403  1
  Al  Al28  1  0.78121228  0.77741976  0.38854485  1
  Al  Al29  1  0.88258786  0.88140765  0.09855109  1
  Al  Al30  1  0.55525916  0.87192314  0.60100320  1
  B  B31  1  0.89465670  0.18822574  0.55650089  1
  B  B32  1  0.77728193  0.09356374  0.31007605  1
  B  B33  1  0.89485943  0.87436393  0.60379782  1
  B  B34  1  0.55502853  0.87285154  0.10658227  1
  B  B35  1  0.44289456  0.76110412  0.80166180  1
  N  N36  1  0.22341091  0.20505204  0.37073042  1
  N  N37  1  0.11006292  0.09416486  0.12754988  1
  N  N38  1  0.88671491  0.20606909  0.87829915  1
  N  N39  1  0.80467190  0.07244755  0.61832097  1
  N  N40  1  0.58191516  0.19124628  0.36634950  1
  N  N41  1  0.45986292  0.06592754  0.12390158  1
  N  N42  1  0.22018926  0.20480978  0.87643251  1
  N  N43  1  0.08434889  0.10652457  0.61421884  1
  N  N44  1  0.87944678  0.19092432  0.38998563  1
  N  N45  1  0.77316347  0.11076186  0.14663275  1
  N  N46  1  0.55736803  0.20276274  0.87642332  1
  N  N47  1  0.43846281  0.10533033  0.62179144  1
  N  N48  1  0.22231488  0.54110567  0.37532025  1
  N  N49  1  0.11162691  0.42960747  0.12476881  1
  N  N50  1  0.88668665  0.53697847  0.87533567  1
  N  N51  1  0.78840261  0.39873220  0.61665422  1
  N  N52  1  0.55392444  0.53993363  0.37697464  1
  N  N53  1  0.44629719  0.43029568  0.12164777  1
  N  N54  1  0.22206982  0.53892472  0.87225183  1
  N  N55  1  0.11165012  0.42600583  0.62723035  1
  N  N56  1  0.88863066  0.53932567  0.37781522  1
  N  N57  1  0.77565567  0.42898588  0.13175288  1
  N  N58  1  0.54370539  0.56393475  0.86605473  1
  N  N59  1  0.44562223  0.42093734  0.62282496  1
  N  N60  1  0.22524744  0.86957054  0.37815993  1
  N  N61  1  0.12206799  0.76184728  0.11963574  1
  N  N62  1  0.88807528  0.87696189  0.89054671  1
  N  N63  1  0.79965414  0.78014402  0.59026461  1
  N  N64  1  0.55183787  0.87218168  0.39507554  1
  N  N65  1  0.45897674  0.77861047  0.12596057  1
  N  N66  1  0.24556079  0.86281109  0.86286142  1
  N  N67  1  0.08371427  0.77452086  0.62500249  1
  N  N68  1  0.87720020  0.89734802  0.32719544  1
  N  N69  1  0.74048884  0.77947860  0.08696759  1
  N  N70  1  0.54209762  0.85912166  0.82143474  1
  N  N71  1  0.43514476  0.75300498  0.63865064  1
