# generated using pymatgen
data_Al31B5N36
_symmetry_space_group_name_H-M   'P 1'
_cell_length_a   9.17698152
_cell_length_b   9.17634463
_cell_length_c   10.07833932
_cell_angle_alpha   89.58669561
_cell_angle_beta   89.30047319
_cell_angle_gamma   60.09112064
_symmetry_Int_Tables_number   1
_chemical_formula_structural   Al31B5N36
_chemical_formula_sum   'Al31 B5 N36'
_cell_volume   735.62161087
_cell_formula_units_Z   1
loop_
 _symmetry_equiv_pos_site_id
 _symmetry_equiv_pos_as_xyz
  1  'x, y, z'
loop_
 _atom_site_type_symbol
 _atom_site_label
 _atom_site_symmetry_multiplicity
 _atom_site_fract_x
 _atom_site_fract_y
 _atom_site_fract_z
 _atom_site_occupancy
  Al  Al0  1  0.09945059  0.09983139  0.39696208  1
  Al  Al1  1  0.22547573  0.19930598  0.14002631  1
  Al  Al2  1  0.77910773  0.09186914  0.85300480  1
  Al  Al3  1  0.44818959  0.08968834  0.38187784  1
  Al  Al4  1  0.55823765  0.20506163  0.06409654  1
  Al  Al5  1  0.10950932  0.09853851  0.87709852  1
  Al  Al6  1  0.21897905  0.20739702  0.63849827  1
  Al  Al7  1  0.88715882  0.20315417  0.13010430  1
  Al  Al8  1  0.43949374  0.07858137  0.89279650  1
  Al  Al9  1  0.57978611  0.19302857  0.57250996  1
  Al  Al10  1  0.11016101  0.43000615  0.38910162  1
  Al  Al11  1  0.21693677  0.54385697  0.14048990  1
  Al  Al12  1  0.77871714  0.42882467  0.87798331  1
  Al  Al13  1  0.88642866  0.53890526  0.63827619  1
  Al  Al14  1  0.46035805  0.42354659  0.32085686  1
  Al  Al15  1  0.54821480  0.55303978  0.06170325  1
  Al  Al16  1  0.11096952  0.42756220  0.89060796  1
  Al  Al17  1  0.20788403  0.54482136  0.63778974  1
  Al  Al18  1  0.78587564  0.41530386  0.39378426  1
  Al  Al19  1  0.88034591  0.54371315  0.13933546  1
  Al  Al20  1  0.44813732  0.42718073  0.81285137  1
  Al  Al21  1  0.55272120  0.53629269  0.57487409  1
  Al  Al22  1  0.09947601  0.77171910  0.39665838  1
  Al  Al23  1  0.23905221  0.86932843  0.06091149  1
  Al  Al24  1  0.76754564  0.76167293  0.88956826  1
  Al  Al25  1  0.44433718  0.76328064  0.31621833  1
  Al  Al26  1  0.11055240  0.75740018  0.88042886  1
  Al  Al27  1  0.21596078  0.87545980  0.59321609  1
  Al  Al28  1  0.77600741  0.77255367  0.38999521  1
  Al  Al29  1  0.88262285  0.87998403  0.13331908  1
  Al  Al30  1  0.55994451  0.87360071  0.64323113  1
  B  B31  1  0.89392036  0.19753520  0.64931593  1
  B  B32  1  0.78098828  0.09457313  0.34916997  1
  B  B33  1  0.89481303  0.88093217  0.65202259  1
  B  B34  1  0.56078118  0.87671948  0.14584606  1
  B  B35  1  0.44184042  0.75622053  0.80832402  1
  N  N36  1  0.21929544  0.20562569  0.32865580  1
  N  N37  1  0.10882643  0.10031175  0.07038376  1
  N  N38  1  0.89129924  0.21009595  0.80864009  1
  N  N39  1  0.80337766  0.07971189  0.62545918  1
  N  N40  1  0.59238272  0.19128590  0.37281610  1
  N  N41  1  0.45641294  0.06641768  0.08754612  1
  N  N42  1  0.22403653  0.20690524  0.82573594  1
  N  N43  1  0.08218115  0.11238438  0.59061881  1
  N  N44  1  0.87600312  0.19105950  0.32444505  1
  N  N45  1  0.78941081  0.08952538  0.05886109  1
  N  N46  1  0.54468059  0.20904909  0.87382891  1
  N  N47  1  0.44220727  0.08899855  0.57122441  1
  N  N48  1  0.21734629  0.54756763  0.33246170  1
  N  N49  1  0.11157780  0.42744268  0.08006682  1
  N  N50  1  0.88918752  0.54084292  0.82657659  1
  N  N51  1  0.79262726  0.39619180  0.58645323  1
  N  N52  1  0.55400379  0.54677725  0.38485097  1
  N  N53  1  0.45388199  0.42554419  0.13041639  1
  N  N54  1  0.21643181  0.53955987  0.82575055  1
  N  N55  1  0.10821574  0.42745255  0.57500853  1
  N  N56  1  0.88589936  0.54135214  0.32975655  1
  N  N57  1  0.78167900  0.42521551  0.07106559  1
  N  N58  1  0.53734589  0.56559907  0.86909921  1
  N  N59  1  0.44663299  0.41883214  0.62270292  1
  N  N60  1  0.23270301  0.87032176  0.39228110  1
  N  N61  1  0.10909754  0.76109681  0.07328854  1
  N  N62  1  0.88947843  0.86204881  0.81189325  1
  N  N63  1  0.78309778  0.77257258  0.57991292  1
  N  N64  1  0.56582503  0.87820458  0.30801938  1
  N  N65  1  0.45532082  0.77190787  0.12849692  1
  N  N66  1  0.24856590  0.85961470  0.86191823  1
  N  N67  1  0.07837344  0.77536496  0.59009977  1
  N  N68  1  0.87671606  0.90434738  0.32656421  1
  N  N69  1  0.75395795  0.77511373  0.08396053  1
  N  N70  1  0.54505363  0.85904848  0.82968095  1
  N  N71  1  0.44046668  0.75243547  0.64789144  1
