# generated using pymatgen
data_Al31B5N36
_symmetry_space_group_name_H-M   'P 1'
_cell_length_a   9.19841787
_cell_length_b   9.18047975
_cell_length_c   9.95119978
_cell_angle_alpha   90.23963959
_cell_angle_beta   89.93493548
_cell_angle_gamma   59.90434910
_symmetry_Int_Tables_number   1
_chemical_formula_structural   Al31B5N36
_chemical_formula_sum   'Al31 B5 N36'
_cell_volume   727.04009178
_cell_formula_units_Z   1
loop_
 _symmetry_equiv_pos_site_id
 _symmetry_equiv_pos_as_xyz
  1  'x, y, z'
loop_
 _atom_site_type_symbol
 _atom_site_label
 _atom_site_symmetry_multiplicity
 _atom_site_fract_x
 _atom_site_fract_y
 _atom_site_fract_z
 _atom_site_occupancy
  Al  Al0  1  0.10634204  0.09155128  0.32004736  1
  Al  Al1  1  0.22410732  0.20107129  0.06767544  1
  Al  Al2  1  0.78152811  0.08773289  0.81685849  1
  Al  Al3  1  0.45632912  0.08349561  0.32220148  1
  Al  Al4  1  0.56093981  0.20066981  0.06975494  1
  Al  Al5  1  0.10904647  0.09416838  0.81009122  1
  Al  Al6  1  0.21708053  0.20652436  0.56086902  1
  Al  Al7  1  0.88764048  0.20832009  0.06932879  1
  Al  Al8  1  0.44159407  0.09181098  0.81335313  1
  Al  Al9  1  0.57017109  0.19488202  0.56007371  1
  Al  Al10  1  0.11862819  0.42625874  0.31858180  1
  Al  Al11  1  0.22372065  0.54038093  0.06254924  1
  Al  Al12  1  0.77153001  0.42306917  0.81092962  1
  Al  Al13  1  0.88752441  0.54441333  0.62687688  1
  Al  Al14  1  0.45115426  0.42376015  0.31341256  1
  Al  Al15  1  0.55727929  0.54934690  0.06096308  1
  Al  Al16  1  0.11449346  0.42519807  0.81635953  1
  Al  Al17  1  0.21887421  0.54158629  0.56555388  1
  Al  Al18  1  0.77668550  0.41762423  0.32878813  1
  Al  Al19  1  0.87615199  0.55350017  0.14170138  1
  Al  Al20  1  0.44455450  0.43011952  0.81428012  1
  Al  Al21  1  0.55679893  0.53187155  0.56712449  1
  Al  Al22  1  0.10972294  0.76739315  0.31136932  1
  Al  Al23  1  0.23352590  0.87464194  0.05838491  1
  Al  Al24  1  0.75986729  0.76310414  0.88743866  1
  Al  Al25  1  0.44935082  0.76302446  0.32265937  1
  Al  Al26  1  0.10782977  0.76405709  0.82232731  1
  Al  Al27  1  0.21202443  0.87495275  0.56805796  1
  Al  Al28  1  0.78403831  0.77425616  0.39348425  1
  Al  Al29  1  0.88327321  0.88181698  0.09543860  1
  Al  Al30  1  0.55392332  0.87311505  0.59973564  1
  B  B31  1  0.89397935  0.19189526  0.55732747  1
  B  B32  1  0.77758846  0.09151473  0.31063855  1
  B  B33  1  0.89484398  0.87613455  0.60332085  1
  B  B34  1  0.55294908  0.87396053  0.10570860  1
  B  B35  1  0.44321892  0.76148364  0.80297938  1
  N  N36  1  0.22536840  0.20276199  0.37144123  1
  N  N37  1  0.11015554  0.09418322  0.12838864  1
  N  N38  1  0.88718214  0.20368740  0.87951276  1
  N  N39  1  0.80403158  0.07216022  0.61961104  1
  N  N40  1  0.58211250  0.19116096  0.36707551  1
  N  N41  1  0.45981684  0.06575844  0.12427191  1
  N  N42  1  0.22022865  0.20406872  0.87732303  1
  N  N43  1  0.08467992  0.10694338  0.61537816  1
  N  N44  1  0.88108051  0.18980672  0.39119002  1
  N  N45  1  0.77369183  0.10954085  0.14731697  1
  N  N46  1  0.55717015  0.20248773  0.87745425  1
  N  N47  1  0.43853723  0.10514882  0.62321389  1
  N  N48  1  0.22439918  0.54205638  0.37584418  1
  N  N49  1  0.11372225  0.42902638  0.12453127  1
  N  N50  1  0.88156928  0.54419332  0.82554455  1
  N  N51  1  0.78841517  0.39486811  0.61425834  1
  N  N52  1  0.55326673  0.54032809  0.37843773  1
  N  N53  1  0.44615995  0.43055384  0.12217861  1
  N  N54  1  0.22223192  0.53890057  0.87331417  1
  N  N55  1  0.11690408  0.42448098  0.62295797  1
  N  N56  1  0.88577844  0.54729708  0.34087963  1
  N  N57  1  0.77304137  0.42745371  0.13169256  1
  N  N58  1  0.54314420  0.56320361  0.86722329  1
  N  N59  1  0.44592183  0.42123037  0.62393338  1
  N  N60  1  0.22540801  0.86945437  0.37909958  1
  N  N61  1  0.12165232  0.76217575  0.12046617  1
  N  N62  1  0.88748970  0.87445561  0.89155262  1
  N  N63  1  0.79935670  0.78124683  0.58834818  1
  N  N64  1  0.55291541  0.87113944  0.39611194  1
  N  N65  1  0.45901306  0.77854388  0.12686191  1
  N  N66  1  0.24512860  0.86239298  0.86379094  1
  N  N67  1  0.08353624  0.77495289  0.62571367  1
  N  N68  1  0.87676076  0.89717548  0.32993148  1
  N  N69  1  0.74046684  0.77838348  0.08549651  1
  N  N70  1  0.54162117  0.85871711  0.82543633  1
  N  N71  1  0.43609460  0.75305179  0.63997162  1
