# generated using pymatgen
data_Al31B5N36
_symmetry_space_group_name_H-M   'P 1'
_cell_length_a   9.16062283
_cell_length_b   9.20502729
_cell_length_c   10.16497965
_cell_angle_alpha   89.64154261
_cell_angle_beta   89.45667553
_cell_angle_gamma   60.07544144
_symmetry_Int_Tables_number   1
_chemical_formula_structural   Al31B5N36
_chemical_formula_sum   'Al31 B5 N36'
_cell_volume   742.84238538
_cell_formula_units_Z   1
loop_
 _symmetry_equiv_pos_site_id
 _symmetry_equiv_pos_as_xyz
  1  'x, y, z'
loop_
 _atom_site_type_symbol
 _atom_site_label
 _atom_site_symmetry_multiplicity
 _atom_site_fract_x
 _atom_site_fract_y
 _atom_site_fract_z
 _atom_site_occupancy
  Al  Al0  1  0.09659777  0.10447247  0.39344584  1
  Al  Al1  1  0.22227776  0.19689893  0.13600919  1
  Al  Al2  1  0.77785403  0.08488020  0.80881294  1
  Al  Al3  1  0.44611803  0.09049734  0.37393946  1
  Al  Al4  1  0.55932478  0.20344228  0.07408323  1
  Al  Al5  1  0.11212526  0.09670017  0.87586468  1
  Al  Al6  1  0.22603106  0.20520707  0.63758460  1
  Al  Al7  1  0.88694463  0.20789414  0.13952687  1
  Al  Al8  1  0.44536518  0.07997570  0.89363888  1
  Al  Al9  1  0.57578569  0.18747904  0.55829307  1
  Al  Al10  1  0.11100728  0.42756000  0.38526930  1
  Al  Al11  1  0.22204613  0.53912131  0.11872901  1
  Al  Al12  1  0.77819790  0.43271942  0.87739318  1
  Al  Al13  1  0.89463909  0.54221841  0.63911200  1
  Al  Al14  1  0.45999608  0.42363068  0.32130979  1
  Al  Al15  1  0.54667403  0.55461689  0.05960927  1
  Al  Al16  1  0.11305671  0.42894536  0.88845272  1
  Al  Al17  1  0.22165932  0.53988322  0.59805097  1
  Al  Al18  1  0.78812621  0.41691057  0.39241182  1
  Al  Al19  1  0.87856429  0.54182479  0.13929533  1
  Al  Al20  1  0.44924186  0.42621533  0.81600486  1
  Al  Al21  1  0.55446981  0.53660324  0.57744737  1
  Al  Al22  1  0.10552771  0.77768904  0.32162996  1
  Al  Al23  1  0.23568820  0.86592297  0.05809713  1
  Al  Al24  1  0.76456897  0.76268524  0.89692738  1
  Al  Al25  1  0.44421811  0.76271639  0.31763824  1
  Al  Al26  1  0.10651107  0.76464126  0.82088249  1
  Al  Al27  1  0.20720813  0.87551980  0.58009256  1
  Al  Al28  1  0.78032349  0.77194348  0.37927976  1
  Al  Al29  1  0.88468464  0.87690113  0.08643523  1
  Al  Al30  1  0.55995863  0.87445933  0.63961180  1
  B  B31  1  0.91517346  0.23561936  0.65177427  1
  B  B32  1  0.77497804  0.08911063  0.30674910  1
  B  B33  1  0.88016582  0.86677299  0.59621746  1
  B  B34  1  0.55893204  0.87273991  0.14627211  1
  B  B35  1  0.43926898  0.75759388  0.80675880  1
  N  N36  1  0.21756619  0.20550229  0.32233908  1
  N  N37  1  0.10219851  0.09962679  0.06424704  1
  N  N38  1  0.89244462  0.21517267  0.79837213  1
  N  N39  1  0.77689487  0.04088971  0.63304882  1
  N  N40  1  0.58534243  0.19454037  0.36932216  1
  N  N41  1  0.45319802  0.06553734  0.08479855  1
  N  N42  1  0.22790673  0.20629769  0.82401645  1
  N  N43  1  0.08091908  0.11810411  0.58771735  1
  N  N44  1  0.88020253  0.20025384  0.32552965  1
  N  N45  1  0.76829664  0.09399153  0.14729750  1
  N  N46  1  0.56224995  0.20683404  0.88547106  1
  N  N47  1  0.43780270  0.08436263  0.56229689  1
  N  N48  1  0.22568476  0.54336752  0.35767613  1
  N  N49  1  0.10862025  0.42625143  0.07801617  1
  N  N50  1  0.89011279  0.54583414  0.82498054  1
  N  N51  1  0.79919875  0.40353546  0.58734263  1
  N  N52  1  0.55510385  0.54696651  0.38955304  1
  N  N53  1  0.45269629  0.42845570  0.13146261  1
  N  N54  1  0.22346232  0.53963608  0.84463127  1
  N  N55  1  0.11172228  0.42240564  0.57306668  1
  N  N56  1  0.88734404  0.54050099  0.32626833  1
  N  N57  1  0.78122229  0.42244865  0.06620048  1
  N  N58  1  0.53884284  0.56852742  0.86693130  1
  N  N59  1  0.45669327  0.40996152  0.62684087  1
  N  N60  1  0.22806669  0.87220154  0.39255190  1
  N  N61  1  0.11621436  0.76767383  0.13061796  1
  N  N62  1  0.89111314  0.87868512  0.89599316  1
  N  N63  1  0.78788526  0.76260475  0.57173800  1
  N  N64  1  0.56423636  0.87736761  0.30571202  1
  N  N65  1  0.45180554  0.77132855  0.12997369  1
  N  N66  1  0.24837673  0.85763462  0.86465378  1
  N  N67  1  0.07330617  0.77534561  0.62713604  1
  N  N68  1  0.87724393  0.90354298  0.35110717  1
  N  N69  1  0.74742210  0.76944012  0.08612606  1
  N  N70  1  0.54711937  0.86239512  0.82473912  1
  N  N71  1  0.43350163  0.75527916  0.64726892  1
