# generated using pymatgen
data_Al31B5N36
_symmetry_space_group_name_H-M   'P 1'
_cell_length_a   9.18097703
_cell_length_b   9.17530226
_cell_length_c   10.05933838
_cell_angle_alpha   89.57010924
_cell_angle_beta   89.41387646
_cell_angle_gamma   60.05027534
_symmetry_Int_Tables_number   1
_chemical_formula_structural   Al31B5N36
_chemical_formula_sum   'Al31 B5 N36'
_cell_volume   734.18370151
_cell_formula_units_Z   1
loop_
 _symmetry_equiv_pos_site_id
 _symmetry_equiv_pos_as_xyz
  1  'x, y, z'
loop_
 _atom_site_type_symbol
 _atom_site_label
 _atom_site_symmetry_multiplicity
 _atom_site_fract_x
 _atom_site_fract_y
 _atom_site_fract_z
 _atom_site_occupancy
  Al  Al0  1  0.10234519  0.09413150  0.39605359  1
  Al  Al1  1  0.22591238  0.20040413  0.14060557  1
  Al  Al2  1  0.77981175  0.09125071  0.85193618  1
  Al  Al3  1  0.44818964  0.09018702  0.38178749  1
  Al  Al4  1  0.55849774  0.20551278  0.06382806  1
  Al  Al5  1  0.11193965  0.09409517  0.88200511  1
  Al  Al6  1  0.21922965  0.20622916  0.63831506  1
  Al  Al7  1  0.88509580  0.20517432  0.13066261  1
  Al  Al8  1  0.43938168  0.07831327  0.89287099  1
  Al  Al9  1  0.57965332  0.19353493  0.57226644  1
  Al  Al10  1  0.11037834  0.42955025  0.38941637  1
  Al  Al11  1  0.21683934  0.54285680  0.14113570  1
  Al  Al12  1  0.77908272  0.42808696  0.87696322  1
  Al  Al13  1  0.88683157  0.53870410  0.63840218  1
  Al  Al14  1  0.46018155  0.42343788  0.32044983  1
  Al  Al15  1  0.54614666  0.55595732  0.05904346  1
  Al  Al16  1  0.11094887  0.42722532  0.89003643  1
  Al  Al17  1  0.20806277  0.54488412  0.63714814  1
  Al  Al18  1  0.78701326  0.41414557  0.39364625  1
  Al  Al19  1  0.87967310  0.54396950  0.13917587  1
  Al  Al20  1  0.44769888  0.42701387  0.81251655  1
  Al  Al21  1  0.55333080  0.53526115  0.57358356  1
  Al  Al22  1  0.10234966  0.77334441  0.39613197  1
  Al  Al23  1  0.22521851  0.87578020  0.11638077  1
  Al  Al24  1  0.76773826  0.76163005  0.88910533  1
  Al  Al25  1  0.45082624  0.76010173  0.31539192  1
  Al  Al26  1  0.11239533  0.75820201  0.88378083  1
  Al  Al27  1  0.20794412  0.87840083  0.64059006  1
  Al  Al28  1  0.77757844  0.77299710  0.38997012  1
  Al  Al29  1  0.88117633  0.88047149  0.13393917  1
  Al  Al30  1  0.56119102  0.87428358  0.64176751  1
  B  B31  1  0.89446353  0.19647522  0.64843332  1
  B  B32  1  0.78093329  0.09467276  0.34910984  1
  B  B33  1  0.89385843  0.87925253  0.65027045  1
  B  B34  1  0.56101257  0.87643296  0.14457680  1
  B  B35  1  0.44474541  0.75495787  0.80464233  1
  N  N36  1  0.21930191  0.20565422  0.32943199  1
  N  N37  1  0.10891696  0.09991707  0.07167618  1
  N  N38  1  0.89363914  0.20848851  0.80853384  1
  N  N39  1  0.80349836  0.07954322  0.62525589  1
  N  N40  1  0.59220887  0.19146177  0.37250453  1
  N  N41  1  0.45659567  0.06724485  0.08768786  1
  N  N42  1  0.22329638  0.20567172  0.82661395  1
  N  N43  1  0.08573135  0.10706249  0.58760094  1
  N  N44  1  0.87513395  0.19174921  0.32464890  1
  N  N45  1  0.78978720  0.08963667  0.05870192  1
  N  N46  1  0.54514506  0.20849374  0.87323670  1
  N  N47  1  0.44258387  0.08999546  0.57147810  1
  N  N48  1  0.21762050  0.54656252  0.33323309  1
  N  N49  1  0.11083482  0.42782032  0.07996569  1
  N  N50  1  0.88882136  0.54084950  0.82644981  1
  N  N51  1  0.79382949  0.39494913  0.58641298  1
  N  N52  1  0.55479584  0.54559148  0.38430138  1
  N  N53  1  0.45345156  0.42679946  0.12935743  1
  N  N54  1  0.21608688  0.54008228  0.82627675  1
  N  N55  1  0.10813460  0.42708795  0.57568648  1
  N  N56  1  0.88564326  0.54158516  0.33007837  1
  N  N57  1  0.78056232  0.42608480  0.07008764  1
  N  N58  1  0.53635739  0.56677691  0.86673023  1
  N  N59  1  0.44651143  0.41915265  0.62240317  1
  N  N60  1  0.22252795  0.87466927  0.34220516  1
  N  N61  1  0.10960205  0.76142932  0.07415223  1
  N  N62  1  0.89083791  0.86087664  0.81190568  1
  N  N63  1  0.78603824  0.77433093  0.58086381  1
  N  N64  1  0.56697866  0.87831959  0.30874751  1
  N  N65  1  0.45939079  0.77203262  0.12521834  1
  N  N66  1  0.23940496  0.86308579  0.83406101  1
  N  N67  1  0.08195192  0.77612810  0.58779257  1
  N  N68  1  0.87625106  0.90444050  0.32693278  1
  N  N69  1  0.75445131  0.77534875  0.08355912  1
  N  N70  1  0.54425288  0.85882321  0.82884124  1
  N  N71  1  0.44572856  0.75164105  0.64071370  1
