# generated using pymatgen
data_Al31B5N36
_symmetry_space_group_name_H-M   'P 1'
_cell_length_a   9.21128501
_cell_length_b   9.20483539
_cell_length_c   9.92679685
_cell_angle_alpha   90.23917319
_cell_angle_beta   89.97325218
_cell_angle_gamma   59.87833823
_symmetry_Int_Tables_number   1
_chemical_formula_structural   Al31B5N36
_chemical_formula_sum   'Al31 B5 N36'
_cell_volume   728.00874533
_cell_formula_units_Z   1
loop_
 _symmetry_equiv_pos_site_id
 _symmetry_equiv_pos_as_xyz
  1  'x, y, z'
loop_
 _atom_site_type_symbol
 _atom_site_label
 _atom_site_symmetry_multiplicity
 _atom_site_fract_x
 _atom_site_fract_y
 _atom_site_fract_z
 _atom_site_occupancy
  Al  Al0  1  0.10597751  0.09084833  0.32786771  1
  Al  Al1  1  0.22610945  0.19759454  0.07961854  1
  Al  Al2  1  0.78140971  0.08754242  0.82509571  1
  Al  Al3  1  0.45664603  0.08324078  0.33014812  1
  Al  Al4  1  0.56105614  0.20065929  0.07805895  1
  Al  Al5  1  0.10902225  0.09303124  0.81813539  1
  Al  Al6  1  0.21919546  0.20168689  0.57059302  1
  Al  Al7  1  0.88770147  0.20828448  0.07767535  1
  Al  Al8  1  0.44157653  0.09196077  0.82126138  1
  Al  Al9  1  0.57040849  0.19474005  0.56816162  1
  Al  Al10  1  0.11080107  0.43006588  0.37075294  1
  Al  Al11  1  0.22584170  0.54264387  0.07296922  1
  Al  Al12  1  0.77118365  0.42206340  0.81847580  1
  Al  Al13  1  0.89205542  0.54333499  0.63900813  1
  Al  Al14  1  0.45115236  0.42395536  0.32131659  1
  Al  Al15  1  0.55872622  0.54938054  0.06925158  1
  Al  Al16  1  0.10570666  0.42895507  0.87130589  1
  Al  Al17  1  0.22117200  0.54417939  0.57603464  1
  Al  Al18  1  0.77605867  0.41792065  0.33566994  1
  Al  Al19  1  0.88087158  0.55106185  0.15083051  1
  Al  Al20  1  0.44509182  0.42948840  0.82224907  1
  Al  Al21  1  0.55811008  0.53152070  0.57522983  1
  Al  Al22  1  0.10946127  0.76831520  0.31925359  1
  Al  Al23  1  0.23411826  0.87445379  0.06635639  1
  Al  Al24  1  0.75869202  0.76441115  0.89597623  1
  Al  Al25  1  0.44926151  0.76319446  0.33124606  1
  Al  Al26  1  0.10760184  0.76471291  0.83026556  1
  Al  Al27  1  0.21189979  0.87488129  0.57616773  1
  Al  Al28  1  0.78274076  0.77575424  0.40196713  1
  Al  Al29  1  0.88303343  0.88159829  0.10406599  1
  Al  Al30  1  0.55468528  0.87236184  0.60906808  1
  B  B31  1  0.89399388  0.19282232  0.56541967  1
  B  B32  1  0.77698845  0.09164411  0.31834941  1
  B  B33  1  0.89438962  0.87637836  0.61173363  1
  B  B34  1  0.55432269  0.87277545  0.11434783  1
  B  B35  1  0.44306744  0.76114623  0.81067554  1
  N  N36  1  0.22692453  0.19864279  0.37713077  1
  N  N37  1  0.10990266  0.09292588  0.13653576  1
  N  N38  1  0.88724744  0.20339748  0.88751247  1
  N  N39  1  0.80377955  0.07200908  0.62782107  1
  N  N40  1  0.58187538  0.19134230  0.37486576  1
  N  N41  1  0.46149988  0.06447848  0.13248583  1
  N  N42  1  0.22219863  0.19882845  0.88534140  1
  N  N43  1  0.08463585  0.10609349  0.62388709  1
  N  N44  1  0.88100971  0.19071068  0.39944942  1
  N  N45  1  0.77381291  0.10943304  0.15521259  1
  N  N46  1  0.55703132  0.20232311  0.88557384  1
  N  N47  1  0.43943332  0.10470762  0.63134408  1
  N  N48  1  0.22625965  0.54499149  0.38233046  1
  N  N49  1  0.10814730  0.43176349  0.10534817  1
  N  N50  1  0.88153864  0.54426979  0.83287905  1
  N  N51  1  0.78913904  0.39491695  0.62292371  1
  N  N52  1  0.55353201  0.54040514  0.38625177  1
  N  N53  1  0.44779600  0.43023341  0.13009027  1
  N  N54  1  0.22382453  0.54071372  0.87977527  1
  N  N55  1  0.11168137  0.42742137  0.59843153  1
  N  N56  1  0.88302265  0.55018133  0.34541172  1
  N  N57  1  0.77429717  0.42720651  0.13927430  1
  N  N58  1  0.54372981  0.56292560  0.87515400  1
  N  N59  1  0.44752848  0.42057541  0.63200372  1
  N  N60  1  0.22526318  0.86962461  0.38721515  1
  N  N61  1  0.12140771  0.76373806  0.12848507  1
  N  N62  1  0.88729915  0.87419212  0.89960393  1
  N  N63  1  0.79944118  0.78124098  0.59745690  1
  N  N64  1  0.55256604  0.87142220  0.40466902  1
  N  N65  1  0.45952162  0.77845308  0.13497112  1
  N  N66  1  0.24545698  0.86180726  0.87169986  1
  N  N67  1  0.08311314  0.77606139  0.63413027  1
  N  N68  1  0.87628025  0.89760438  0.33790998  1
  N  N69  1  0.74120646  0.77715457  0.09370879  1
  N  N70  1  0.54181631  0.85838546  0.83232110  1
  N  N71  1  0.43589692  0.75263900  0.64772096  1
