# generated using pymatgen
data_Al31B5N36
_symmetry_space_group_name_H-M   'P 1'
_cell_length_a   9.15486085
_cell_length_b   9.20007297
_cell_length_c   10.16923311
_cell_angle_alpha   89.61357001
_cell_angle_beta   89.43406187
_cell_angle_gamma   60.03940198
_symmetry_Int_Tables_number   1
_chemical_formula_structural   Al31B5N36
_chemical_formula_sum   'Al31 B5 N36'
_cell_volume   742.01385402
_cell_formula_units_Z   1
loop_
 _symmetry_equiv_pos_site_id
 _symmetry_equiv_pos_as_xyz
  1  'x, y, z'
loop_
 _atom_site_type_symbol
 _atom_site_label
 _atom_site_symmetry_multiplicity
 _atom_site_fract_x
 _atom_site_fract_y
 _atom_site_fract_z
 _atom_site_occupancy
  Al  Al0  1  0.09663979  0.10403048  0.39361954  1
  Al  Al1  1  0.22208202  0.19748122  0.13623734  1
  Al  Al2  1  0.77813103  0.08480959  0.80917074  1
  Al  Al3  1  0.44645620  0.09052274  0.37420973  1
  Al  Al4  1  0.55892342  0.20390681  0.07476522  1
  Al  Al5  1  0.11227129  0.09619417  0.87589165  1
  Al  Al6  1  0.22605289  0.20571701  0.63730677  1
  Al  Al7  1  0.88699960  0.20793515  0.13960725  1
  Al  Al8  1  0.44575353  0.07985562  0.89396086  1
  Al  Al9  1  0.57503738  0.18831686  0.55912081  1
  Al  Al10  1  0.11025348  0.42673372  0.38415454  1
  Al  Al11  1  0.22524388  0.54227045  0.07742781  1
  Al  Al12  1  0.77781603  0.43280578  0.87741136  1
  Al  Al13  1  0.89525367  0.54211529  0.63884842  1
  Al  Al14  1  0.45627291  0.42569216  0.32000732  1
  Al  Al15  1  0.54692445  0.55443863  0.06039054  1
  Al  Al16  1  0.11075325  0.42643070  0.88894324  1
  Al  Al17  1  0.22333269  0.54251877  0.56985899  1
  Al  Al18  1  0.78761067  0.41691961  0.39258710  1
  Al  Al19  1  0.87923995  0.54158304  0.13952428  1
  Al  Al20  1  0.44670126  0.42754647  0.81664123  1
  Al  Al21  1  0.55397605  0.53645737  0.57820244  1
  Al  Al22  1  0.10742814  0.77437282  0.32023597  1
  Al  Al23  1  0.23542739  0.86603054  0.05887220  1
  Al  Al24  1  0.76454798  0.76303500  0.89731621  1
  Al  Al25  1  0.44420627  0.76272727  0.31796336  1
  Al  Al26  1  0.10775040  0.76230765  0.82093405  1
  Al  Al27  1  0.20714288  0.87537942  0.58074268  1
  Al  Al28  1  0.78037571  0.77220605  0.37938172  1
  Al  Al29  1  0.88524723  0.87643037  0.08736954  1
  Al  Al30  1  0.55998919  0.87441077  0.63971124  1
  B  B31  1  0.91521973  0.23558933  0.65187753  1
  B  B32  1  0.77529351  0.08928241  0.30704630  1
  B  B33  1  0.88051922  0.86581171  0.59739009  1
  B  B34  1  0.55893750  0.87276466  0.14630203  1
  B  B35  1  0.43937504  0.75762298  0.80686212  1
  N  N36  1  0.21793009  0.20514055  0.32246271  1
  N  N37  1  0.10226916  0.09936493  0.06423106  1
  N  N38  1  0.89258721  0.21523606  0.79847916  1
  N  N39  1  0.77748525  0.04057032  0.63324451  1
  N  N40  1  0.58480192  0.19563998  0.36976509  1
  N  N41  1  0.45322079  0.06553485  0.08484687  1
  N  N42  1  0.22832250  0.20616962  0.82362229  1
  N  N43  1  0.08096921  0.11783732  0.58789120  1
  N  N44  1  0.88027512  0.20025747  0.32556225  1
  N  N45  1  0.76823173  0.09409432  0.14758270  1
  N  N46  1  0.56206040  0.20726877  0.88554199  1
  N  N47  1  0.43806342  0.08435036  0.56244473  1
  N  N48  1  0.22729587  0.54546601  0.37749768  1
  N  N49  1  0.10722173  0.42490664  0.07894454  1
  N  N50  1  0.89017003  0.54622027  0.82456397  1
  N  N51  1  0.79870041  0.40346391  0.58755074  1
  N  N52  1  0.55460332  0.54662798  0.38979495  1
  N  N53  1  0.44897557  0.43024514  0.13208475  1
  N  N54  1  0.22638575  0.54197297  0.87659522  1
  N  N55  1  0.11158851  0.42227148  0.57409863  1
  N  N56  1  0.88697692  0.54079454  0.32641723  1
  N  N57  1  0.78103378  0.42248039  0.06619169  1
  N  N58  1  0.53877245  0.56854072  0.86685617  1
  N  N59  1  0.45132887  0.41306534  0.62932548  1
  N  N60  1  0.22777580  0.87184435  0.39274822  1
  N  N61  1  0.11806694  0.76416349  0.13157970  1
  N  N62  1  0.89177402  0.87833020  0.89624299  1
  N  N63  1  0.78802954  0.76266816  0.57186367  1
  N  N64  1  0.56428487  0.87743121  0.30581554  1
  N  N65  1  0.45192944  0.77145962  0.13023320  1
  N  N66  1  0.24841976  0.85736543  0.86456096  1
  N  N67  1  0.07578291  0.77114420  0.62983380  1
  N  N68  1  0.87827241  0.90295331  0.35091964  1
  N  N69  1  0.74747773  0.76941355  0.08623598  1
  N  N70  1  0.54727904  0.86245384  0.82481859  1
  N  N71  1  0.43377941  0.75551512  0.64735510  1
