# generated using pymatgen
data_Al31B5N36
_symmetry_space_group_name_H-M   'P 1'
_cell_length_a   9.21130562
_cell_length_b   9.20110854
_cell_length_c   9.92083585
_cell_angle_alpha   90.22822961
_cell_angle_beta   89.96565090
_cell_angle_gamma   59.88204954
_symmetry_Int_Tables_number   1
_chemical_formula_structural   Al31B5N36
_chemical_formula_sum   'Al31 B5 N36'
_cell_volume   727.30643273
_cell_formula_units_Z   1
loop_
 _symmetry_equiv_pos_site_id
 _symmetry_equiv_pos_as_xyz
  1  'x, y, z'
loop_
 _atom_site_type_symbol
 _atom_site_label
 _atom_site_symmetry_multiplicity
 _atom_site_fract_x
 _atom_site_fract_y
 _atom_site_fract_z
 _atom_site_occupancy
  Al  Al0  1  0.10594434  0.09097562  0.32816535  1
  Al  Al1  1  0.22520469  0.19928652  0.07906074  1
  Al  Al2  1  0.78139022  0.08756484  0.82512368  1
  Al  Al3  1  0.45661231  0.08325954  0.33041829  1
  Al  Al4  1  0.56096674  0.20072371  0.07820457  1
  Al  Al5  1  0.10896045  0.09319911  0.81832959  1
  Al  Al6  1  0.21821656  0.20388153  0.57038384  1
  Al  Al7  1  0.88779895  0.20822876  0.07771193  1
  Al  Al8  1  0.44163224  0.09182052  0.82151999  1
  Al  Al9  1  0.57029487  0.19479771  0.56835971  1
  Al  Al10  1  0.11402859  0.42863754  0.34830677  1
  Al  Al11  1  0.22492710  0.54158587  0.07280790  1
  Al  Al12  1  0.77114089  0.42226351  0.81882104  1
  Al  Al13  1  0.89009777  0.54404594  0.63762310  1
  Al  Al14  1  0.45124185  0.42393485  0.32152345  1
  Al  Al15  1  0.55841737  0.54939132  0.06931784  1
  Al  Al16  1  0.10980287  0.42696501  0.84734137  1
  Al  Al17  1  0.22021472  0.54304869  0.57564660  1
  Al  Al18  1  0.77608001  0.41791031  0.33616252  1
  Al  Al19  1  0.87934170  0.55182474  0.15034462  1
  Al  Al20  1  0.44504491  0.42963580  0.82249690  1
  Al  Al21  1  0.55780062  0.53158365  0.57535959  1
  Al  Al22  1  0.10942351  0.76830726  0.31950512  1
  Al  Al23  1  0.23411018  0.87444575  0.06654981  1
  Al  Al24  1  0.75883196  0.76423780  0.89608691  1
  Al  Al25  1  0.44930222  0.76318980  0.33123750  1
  Al  Al26  1  0.10755593  0.76468777  0.83056028  1
  Al  Al27  1  0.21192622  0.87488914  0.57635572  1
  Al  Al28  1  0.78288664  0.77559200  0.40213143  1
  Al  Al29  1  0.88313836  0.88163747  0.10412584  1
  Al  Al30  1  0.55442530  0.87259572  0.60904832  1
  B  B31  1  0.89405083  0.19260030  0.56548549  1
  B  B32  1  0.77708040  0.09166848  0.31841656  1
  B  B33  1  0.89451968  0.87638398  0.61180493  1
  B  B34  1  0.55403909  0.87305398  0.11439615  1
  B  B35  1  0.44312463  0.76112483  0.81074105  1
  N  N36  1  0.22624854  0.20000566  0.37867180  1
  N  N37  1  0.11006259  0.09316729  0.13662332  1
  N  N38  1  0.88720818  0.20333781  0.88753930  1
  N  N39  1  0.80381909  0.07206397  0.62781459  1
  N  N40  1  0.58187126  0.19133830  0.37494527  1
  N  N41  1  0.46111828  0.06471026  0.13260433  1
  N  N42  1  0.22145298  0.20052140  0.88629905  1
  N  N43  1  0.08466841  0.10626300  0.62382723  1
  N  N44  1  0.88094411  0.19052487  0.39941856  1
  N  N45  1  0.77380369  0.10948786  0.15525019  1
  N  N46  1  0.55702353  0.20233740  0.88561764  1
  N  N47  1  0.43927012  0.10471945  0.63137550  1
  N  N48  1  0.22552653  0.54418872  0.38366520  1
  N  N49  1  0.11146239  0.43025190  0.12186518  1
  N  N50  1  0.88049540  0.54462017  0.83425546  1
  N  N51  1  0.78897999  0.39495295  0.62283206  1
  N  N52  1  0.55335521  0.54044602  0.38629272  1
  N  N53  1  0.44750398  0.43042282  0.13016956  1
  N  N54  1  0.22325062  0.54017872  0.88118371  1
  N  N55  1  0.11449890  0.42585212  0.61657255  1
  N  N56  1  0.88297107  0.54971411  0.34766506  1
  N  N57  1  0.77415006  0.42723290  0.13939513  1
  N  N58  1  0.54346243  0.56298422  0.87520252  1
  N  N59  1  0.44723654  0.42076945  0.63207978  1
  N  N60  1  0.22534702  0.86956057  0.38723358  1
  N  N61  1  0.12156668  0.76330838  0.12855012  1
  N  N62  1  0.88725571  0.87426565  0.89968451  1
  N  N63  1  0.79937482  0.78141213  0.59749894  1
  N  N64  1  0.55255842  0.87141843  0.40467448  1
  N  N65  1  0.45953473  0.77843474  0.13499435  1
  N  N66  1  0.24542163  0.86189664  0.87176116  1
  N  N67  1  0.08320919  0.77585546  0.63414494  1
  N  N68  1  0.87634631  0.89751689  0.33798672  1
  N  N69  1  0.74104275  0.77751263  0.09398222  1
  N  N70  1  0.54166760  0.85849356  0.83260266  1
  N  N71  1  0.43596383  0.75268244  0.64777508  1
