# generated using pymatgen
data_Al31B5N36
_symmetry_space_group_name_H-M   'P 1'
_cell_length_a   9.16708295
_cell_length_b   9.16110194
_cell_length_c   9.84680520
_cell_angle_alpha   89.82513020
_cell_angle_beta   89.96620550
_cell_angle_gamma   60.02575000
_symmetry_Int_Tables_number   1
_chemical_formula_structural   Al31B5N36
_chemical_formula_sum   'Al31 B5 N36'
_cell_volume   716.33341251
_cell_formula_units_Z   1
loop_
 _symmetry_equiv_pos_site_id
 _symmetry_equiv_pos_as_xyz
  1  'x, y, z'
loop_
 _atom_site_type_symbol
 _atom_site_label
 _atom_site_symmetry_multiplicity
 _atom_site_fract_x
 _atom_site_fract_y
 _atom_site_fract_z
 _atom_site_occupancy
  Al  Al0  1  0.10609441  0.09275471  0.32057509  1
  Al  Al1  1  0.22602523  0.19911552  0.06581586  1
  Al  Al2  1  0.78201642  0.09112441  0.80919967  1
  Al  Al3  1  0.45200121  0.08877778  0.31884041  1
  Al  Al4  1  0.56472363  0.19712231  0.07228526  1
  Al  Al5  1  0.10886333  0.09372283  0.81037912  1
  Al  Al6  1  0.21606666  0.20810091  0.56361508  1
  Al  Al7  1  0.88811188  0.20307528  0.07240804  1
  Al  Al8  1  0.44475832  0.08693064  0.81736853  1
  Al  Al9  1  0.56679788  0.19952859  0.56174548  1
  Al  Al10  1  0.11062102  0.42907922  0.31288263  1
  Al  Al11  1  0.22235414  0.54130802  0.06348515  1
  Al  Al12  1  0.77605100  0.42605824  0.81058390  1
  Al  Al13  1  0.88890271  0.53983461  0.56548481  1
  Al  Al14  1  0.45004035  0.42516736  0.31433223  1
  Al  Al15  1  0.55750258  0.54865025  0.05952938  1
  Al  Al16  1  0.10992399  0.42768170  0.81586343  1
  Al  Al17  1  0.21610353  0.54287730  0.56455415  1
  Al  Al18  1  0.77706570  0.42180508  0.32246029  1
  Al  Al19  1  0.88083608  0.54454724  0.06559405  1
  Al  Al20  1  0.44424814  0.43040866  0.81547411  1
  Al  Al21  1  0.55648876  0.53576867  0.56928430  1
  Al  Al22  1  0.10683455  0.76812713  0.32003881  1
  Al  Al23  1  0.23173995  0.87282578  0.05917303  1
  Al  Al24  1  0.77270217  0.76502051  0.81330537  1
  Al  Al25  1  0.44725459  0.76337768  0.31771552  1
  Al  Al26  1  0.10784734  0.76442600  0.81100294  1
  Al  Al27  1  0.21480317  0.87540833  0.56896613  1
  Al  Al28  1  0.77339955  0.77076031  0.32683216  1
  Al  Al29  1  0.88305444  0.87749188  0.07338905  1
  Al  Al30  1  0.55663845  0.87374995  0.57877269  1
  B  B31  1  0.88999139  0.19187334  0.55776452  1
  B  B32  1  0.77950879  0.09380501  0.32539339  1
  B  B33  1  0.89010336  0.88277029  0.55902653  1
  B  B34  1  0.55654022  0.87144264  0.09428132  1
  B  B35  1  0.44723657  0.76187800  0.80897463  1
  N  N36  1  0.22339087  0.20548735  0.37144364  1
  N  N37  1  0.11176483  0.09222925  0.12805631  1
  N  N38  1  0.88702332  0.20350442  0.88046280  1
  N  N39  1  0.80143847  0.08232552  0.61455687  1
  N  N40  1  0.58040987  0.19311672  0.36816432  1
  N  N41  1  0.46018714  0.06582947  0.12150229  1
  N  N42  1  0.22079491  0.20385122  0.87456812  1
  N  N43  1  0.08360623  0.10742464  0.61460329  1
  N  N44  1  0.87788473  0.19204198  0.38922359  1
  N  N45  1  0.78244123  0.09250486  0.15636427  1
  N  N46  1  0.56003073  0.20145196  0.87748631  1
  N  N47  1  0.44073675  0.10097932  0.62409328  1
  N  N48  1  0.22315286  0.53897561  0.37301734  1
  N  N49  1  0.11043594  0.42850402  0.12154106  1
  N  N50  1  0.88544668  0.54018433  0.87251234  1
  N  N51  1  0.78886983  0.40023541  0.61586031  1
  N  N52  1  0.55370010  0.54169316  0.37748421  1
  N  N53  1  0.44764907  0.42890304  0.12129041  1
  N  N54  1  0.22040559  0.54138647  0.87207798  1
  N  N55  1  0.10918142  0.42834957  0.62528597  1
  N  N56  1  0.88817924  0.54042259  0.37382304  1
  N  N57  1  0.77700618  0.42686133  0.12883676  1
  N  N58  1  0.54479734  0.56211208  0.86535769  1
  N  N59  1  0.44295360  0.42503177  0.62342790  1
  N  N60  1  0.22644346  0.87032271  0.37812289  1
  N  N61  1  0.11241151  0.76410628  0.12625663  1
  N  N62  1  0.88641266  0.87424440  0.88215036  1
  N  N63  1  0.79172174  0.77766065  0.61682496  1
  N  N64  1  0.55387500  0.87210935  0.38727752  1
  N  N65  1  0.45980739  0.77610870  0.12352179  1
  N  N66  1  0.24412948  0.86100584  0.86329226  1
  N  N67  1  0.08338752  0.77571444  0.61530156  1
  N  N68  1  0.87818724  0.89709528  0.38808642  1
  N  N69  1  0.75025307  0.77659765  0.12651073  1
  N  N70  1  0.54364044  0.85650396  0.85543236  1
  N  N71  1  0.44172823  0.75929554  0.64232838  1
