# generated using pymatgen
data_Al31B5N36
_symmetry_space_group_name_H-M   'P 1'
_cell_length_a   9.16979177
_cell_length_b   9.16824731
_cell_length_c   9.80033468
_cell_angle_alpha   90.11397762
_cell_angle_beta   90.03475346
_cell_angle_gamma   60.05096675
_symmetry_Int_Tables_number   1
_chemical_formula_structural   Al31B5N36
_chemical_formula_sum   'Al31 B5 N36'
_cell_volume   713.90305934
_cell_formula_units_Z   1
loop_
 _symmetry_equiv_pos_site_id
 _symmetry_equiv_pos_as_xyz
  1  'x, y, z'
loop_
 _atom_site_type_symbol
 _atom_site_label
 _atom_site_symmetry_multiplicity
 _atom_site_fract_x
 _atom_site_fract_y
 _atom_site_fract_z
 _atom_site_occupancy
  Al  Al0  1  0.10256952  0.09370615  0.41922790  1
  Al  Al1  1  0.22463645  0.20005007  0.16506683  1
  Al  Al2  1  0.77954196  0.09355508  0.90075316  1
  Al  Al3  1  0.45040601  0.08901274  0.40828243  1
  Al  Al4  1  0.56462884  0.19717779  0.16872457  1
  Al  Al5  1  0.11304280  0.09221335  0.90967037  1
  Al  Al6  1  0.21921303  0.20605361  0.66498185  1
  Al  Al7  1  0.88603098  0.20182809  0.16708737  1
  Al  Al8  1  0.44685402  0.08674120  0.91862702  1
  Al  Al9  1  0.56514456  0.19978215  0.65629136  1
  Al  Al10  1  0.10973143  0.42824564  0.41498238  1
  Al  Al11  1  0.22094287  0.54090029  0.16612960  1
  Al  Al12  1  0.77696017  0.42854151  0.90851789  1
  Al  Al13  1  0.88955006  0.54031496  0.66386507  1
  Al  Al14  1  0.44992629  0.42537773  0.41459903  1
  Al  Al15  1  0.55720294  0.54409836  0.15716444  1
  Al  Al16  1  0.11117501  0.42843255  0.91641653  1
  Al  Al17  1  0.21740075  0.54307436  0.66488296  1
  Al  Al18  1  0.77665900  0.41862648  0.41955652  1
  Al  Al19  1  0.88150511  0.54372632  0.16564008  1
  Al  Al20  1  0.44414999  0.43071014  0.91460692  1
  Al  Al21  1  0.55624634  0.54022769  0.66998599  1
  Al  Al22  1  0.10204637  0.77091794  0.41891418  1
  Al  Al23  1  0.22697584  0.87285719  0.15780508  1
  Al  Al24  1  0.77115829  0.76490576  0.91269521  1
  Al  Al25  1  0.44630302  0.76174413  0.40670695  1
  Al  Al26  1  0.11281677  0.76265111  0.90940931  1
  Al  Al27  1  0.22025666  0.87393497  0.66920516  1
  Al  Al28  1  0.77395185  0.77212316  0.41309217  1
  Al  Al29  1  0.88103278  0.88013729  0.16695602  1
  Al  Al30  1  0.55705746  0.87188710  0.66763392  1
  B  B31  1  0.89420115  0.19862302  0.66549735  1
  B  B32  1  0.78624048  0.09013389  0.42180798  1
  B  B33  1  0.89306239  0.87508764  0.66417090  1
  B  B34  1  0.55694142  0.87297023  0.16171306  1
  B  B35  1  0.44951254  0.76554161  0.91999277  1
  N  N36  1  0.22005588  0.20357327  0.35763963  1
  N  N37  1  0.10666338  0.09661606  0.10236318  1
  N  N38  1  0.88990032  0.20375530  0.83058328  1
  N  N39  1  0.80024092  0.08317552  0.59920097  1
  N  N40  1  0.58326730  0.19154349  0.36654303  1
  N  N41  1  0.45804792  0.07095347  0.11428669  1
  N  N42  1  0.22450810  0.20545609  0.85758377  1
  N  N43  1  0.08810523  0.10461296  0.61436088  1
  N  N44  1  0.87590233  0.19093542  0.36147836  1
  N  N45  1  0.77924447  0.09386501  0.09266717  1
  N  N46  1  0.55403751  0.20456797  0.85092740  1
  N  N47  1  0.44410993  0.09134911  0.60165308  1
  N  N48  1  0.22052940  0.54273427  0.35908613  1
  N  N49  1  0.10966169  0.42800059  0.10900111  1
  N  N50  1  0.88894807  0.54132686  0.85605803  1
  N  N51  1  0.78800273  0.40305435  0.61443208  1
  N  N52  1  0.55744015  0.53862449  0.35064613  1
  N  N53  1  0.44547775  0.42430185  0.10818101  1
  N  N54  1  0.22213001  0.53910262  0.85603395  1
  N  N55  1  0.11100296  0.42768895  0.60565103  1
  N  N56  1  0.88390318  0.54096294  0.36010386  1
  N  N57  1  0.78135164  0.42248601  0.10191958  1
  N  N58  1  0.54329776  0.56534363  0.86564058  1
  N  N59  1  0.44386394  0.43039479  0.60723721  1
  N  N60  1  0.22165507  0.87252969  0.35298535  1
  N  N61  1  0.10586877  0.76370340  0.10328892  1
  N  N62  1  0.88850915  0.87285077  0.83120749  1
  N  N63  1  0.78663364  0.77721144  0.60950451  1
  N  N64  1  0.55598180  0.87007214  0.32987743  1
  N  N65  1  0.45675574  0.77369526  0.09245464  1
  N  N66  1  0.24977448  0.85946067  0.86408435  1
  N  N67  1  0.08749599  0.77534493  0.61416363  1
  N  N68  1  0.87546994  0.90020980  0.36069841  1
  N  N69  1  0.75474503  0.77560215  0.10993707  1
  N  N70  1  0.54327819  0.86006895  0.85938789  1
  N  N71  1  0.44617387  0.76162124  0.59900092  1
