# generated using pymatgen
data_Al31B5N36
_symmetry_space_group_name_H-M   'P 1'
_cell_length_a   9.15424101
_cell_length_b   9.15695079
_cell_length_c   10.22581708
_cell_angle_alpha   89.48376835
_cell_angle_beta   89.48124474
_cell_angle_gamma   60.28557405
_symmetry_Int_Tables_number   1
_chemical_formula_structural   Al31B5N36
_chemical_formula_sum   'Al31 B5 N36'
_cell_volume   744.42465346
_cell_formula_units_Z   1
loop_
 _symmetry_equiv_pos_site_id
 _symmetry_equiv_pos_as_xyz
  1  'x, y, z'
loop_
 _atom_site_type_symbol
 _atom_site_label
 _atom_site_symmetry_multiplicity
 _atom_site_fract_x
 _atom_site_fract_y
 _atom_site_fract_z
 _atom_site_occupancy
  Al  Al0  1  0.09766788  0.10356869  0.39401316  1
  Al  Al1  1  0.22568906  0.19865236  0.13837331  1
  Al  Al2  1  0.77706706  0.08616355  0.83238446  1
  Al  Al3  1  0.44776685  0.09077516  0.38009206  1
  Al  Al4  1  0.55946948  0.20517350  0.06349678  1
  Al  Al5  1  0.10904009  0.09751060  0.88006899  1
  Al  Al6  1  0.21967730  0.20459239  0.63875075  1
  Al  Al7  1  0.88771053  0.20577778  0.13425494  1
  Al  Al8  1  0.43886417  0.07851709  0.89356231  1
  Al  Al9  1  0.57482217  0.19128957  0.56993593  1
  Al  Al10  1  0.11235016  0.43056154  0.38888433  1
  Al  Al11  1  0.22242083  0.53662332  0.14071677  1
  Al  Al12  1  0.77966032  0.42700292  0.88033844  1
  Al  Al13  1  0.89006699  0.53982074  0.63933960  1
  Al  Al14  1  0.46419447  0.42157319  0.31960695  1
  Al  Al15  1  0.54932390  0.55347829  0.06141110  1
  Al  Al16  1  0.11102325  0.42936179  0.89009001  1
  Al  Al17  1  0.21382864  0.53694705  0.63440523  1
  Al  Al18  1  0.78692722  0.41734799  0.39402517  1
  Al  Al19  1  0.88047507  0.54473330  0.14162743  1
  Al  Al20  1  0.44990841  0.42563791  0.81425844  1
  Al  Al21  1  0.55210138  0.53642148  0.57524226  1
  Al  Al22  1  0.10558135  0.78111148  0.31584179  1
  Al  Al23  1  0.23791411  0.86600559  0.05966410  1
  Al  Al24  1  0.76214451  0.75599536  0.89681068  1
  Al  Al25  1  0.44578015  0.76350191  0.31607557  1
  Al  Al26  1  0.10668744  0.76690116  0.82088123  1
  Al  Al27  1  0.21035966  0.87183694  0.57730197  1
  Al  Al28  1  0.77971756  0.77611079  0.38391963  1
  Al  Al29  1  0.88722285  0.87708716  0.07353578  1
  Al  Al30  1  0.55802720  0.87455127  0.64310815  1
  B  B31  1  0.90423278  0.21533921  0.65068568  1
  B  B32  1  0.78235052  0.09332307  0.34586028  1
  B  B33  1  0.88399555  0.87585214  0.60876017  1
  B  B34  1  0.56079366  0.87518684  0.14648893  1
  B  B35  1  0.43936109  0.75624008  0.80879356  1
  N  N36  1  0.21903637  0.20682367  0.32552128  1
  N  N37  1  0.10833920  0.10023542  0.06829441  1
  N  N38  1  0.89215354  0.21029377  0.80305325  1
  N  N39  1  0.78952902  0.05781005  0.63686145  1
  N  N40  1  0.59259234  0.19336542  0.37737857  1
  N  N41  1  0.45520653  0.06616350  0.08543756  1
  N  N42  1  0.22271495  0.20660478  0.82408240  1
  N  N43  1  0.07961818  0.11307814  0.58657073  1
  N  N44  1  0.87646418  0.19625867  0.32508585  1
  N  N45  1  0.78165209  0.10145647  0.07725360  1
  N  N46  1  0.54710428  0.20716987  0.87455868  1
  N  N47  1  0.43780703  0.08681199  0.56770132  1
  N  N48  1  0.22436634  0.54072785  0.33332121  1
  N  N49  1  0.11076639  0.42906074  0.07729405  1
  N  N50  1  0.88856765  0.54082821  0.82421415  1
  N  N51  1  0.79540922  0.39735025  0.58652638  1
  N  N52  1  0.55455381  0.54801581  0.38833210  1
  N  N53  1  0.45624883  0.42526302  0.13028182  1
  N  N54  1  0.21932989  0.53718256  0.82437310  1
  N  N55  1  0.10912505  0.42492469  0.57339014  1
  N  N56  1  0.88746347  0.54288369  0.33003013  1
  N  N57  1  0.78375638  0.42643796  0.06949542  1
  N  N58  1  0.53853227  0.56557556  0.86957929  1
  N  N59  1  0.45133486  0.41473327  0.62571594  1
  N  N60  1  0.22980159  0.87071065  0.39033047  1
  N  N61  1  0.11509986  0.76874829  0.12650545  1
  N  N62  1  0.89240677  0.86132844  0.88444436  1
  N  N63  1  0.78762147  0.77316790  0.57829616  1
  N  N64  1  0.56541919  0.87971562  0.30802401  1
  N  N65  1  0.45419945  0.77143638  0.13071580  1
  N  N66  1  0.24830313  0.85647846  0.86761545  1
  N  N67  1  0.07429562  0.77807437  0.62723009  1
  N  N68  1  0.87610680  0.91052146  0.34726421  1
  N  N69  1  0.74776451  0.77200519  0.08688072  1
  N  N70  1  0.54388133  0.85942533  0.82696117  1
  N  N71  1  0.43393191  0.75388629  0.64793324  1
