# generated using pymatgen
data_Al31B5N36
_symmetry_space_group_name_H-M   'P 1'
_cell_length_a   9.18807936
_cell_length_b   9.14850708
_cell_length_c   10.15729615
_cell_angle_alpha   89.40622566
_cell_angle_beta   89.33843294
_cell_angle_gamma   60.23722054
_symmetry_Int_Tables_number   1
_chemical_formula_structural   Al31B5N36
_chemical_formula_sum   'Al31 B5 N36'
_cell_volume   741.10843878
_cell_formula_units_Z   1
loop_
 _symmetry_equiv_pos_site_id
 _symmetry_equiv_pos_as_xyz
  1  'x, y, z'
loop_
 _atom_site_type_symbol
 _atom_site_label
 _atom_site_symmetry_multiplicity
 _atom_site_fract_x
 _atom_site_fract_y
 _atom_site_fract_z
 _atom_site_occupancy
  Al  Al0  1  0.10270302  0.09334393  0.35751134  1
  Al  Al1  1  0.22825588  0.20090091  0.13647168  1
  Al  Al2  1  0.78128905  0.09094319  0.82191873  1
  Al  Al3  1  0.44797693  0.09000786  0.39361598  1
  Al  Al4  1  0.55781444  0.20318389  0.06571338  1
  Al  Al5  1  0.11026950  0.09616690  0.88748335  1
  Al  Al6  1  0.21467448  0.20929365  0.64128404  1
  Al  Al7  1  0.88302675  0.20908596  0.11883204  1
  Al  Al8  1  0.44257170  0.08132954  0.87703112  1
  Al  Al9  1  0.57766116  0.20094355  0.56383111  1
  Al  Al10  1  0.10974211  0.42368487  0.38723836  1
  Al  Al11  1  0.22486701  0.54286678  0.06615020  1
  Al  Al12  1  0.77581282  0.43118375  0.88749933  1
  Al  Al13  1  0.89219698  0.53815110  0.64014614  1
  Al  Al14  1  0.45295138  0.42111346  0.31648360  1
  Al  Al15  1  0.54563760  0.55578350  0.06471949  1
  Al  Al16  1  0.10441010  0.42794901  0.88899991  1
  Al  Al17  1  0.22094945  0.54469015  0.56802395  1
  Al  Al18  1  0.78539462  0.41135997  0.38607785  1
  Al  Al19  1  0.87646942  0.54770538  0.14575791  1
  Al  Al20  1  0.44431004  0.43205033  0.81516799  1
  Al  Al21  1  0.55254302  0.53660040  0.57212303  1
  Al  Al22  1  0.10766829  0.76694174  0.31320734  1
  Al  Al23  1  0.23870276  0.86516359  0.06428184  1
  Al  Al24  1  0.76336627  0.76217282  0.88509087  1
  Al  Al25  1  0.45294650  0.76081372  0.32429911  1
  Al  Al26  1  0.11187024  0.76486593  0.82210793  1
  Al  Al27  1  0.21424201  0.87520254  0.57033339  1
  Al  Al28  1  0.78509101  0.77327603  0.39621151  1
  Al  Al29  1  0.88321720  0.87672381  0.08465122  1
  Al  Al30  1  0.55661470  0.87553603  0.61555078  1
  B  B31  1  0.89976242  0.19316446  0.60708870  1
  B  B32  1  0.77594258  0.08895183  0.29989920  1
  B  B33  1  0.89867396  0.87558992  0.60632984  1
  B  B34  1  0.55327089  0.87259566  0.10069337  1
  B  B35  1  0.44173027  0.75960431  0.80597580  1
  N  N36  1  0.22805052  0.20224768  0.32315122  1
  N  N37  1  0.11355300  0.09391773  0.08422746  1
  N  N38  1  0.88479867  0.20435606  0.87039922  1
  N  N39  1  0.80932276  0.07681938  0.62593127  1
  N  N40  1  0.58741857  0.19143378  0.37131964  1
  N  N41  1  0.45535715  0.06145190  0.07594133  1
  N  N42  1  0.21965051  0.20837164  0.82757370  1
  N  N43  1  0.08267040  0.10947571  0.58913104  1
  N  N44  1  0.87889445  0.19657488  0.31569254  1
  N  N45  1  0.76338115  0.09621641  0.14056918  1
  N  N46  1  0.55636104  0.20664008  0.87672006  1
  N  N47  1  0.43630791  0.10752548  0.58394647  1
  N  N48  1  0.22658564  0.54228171  0.37776577  1
  N  N49  1  0.10289482  0.42923290  0.07978837  1
  N  N50  1  0.88656947  0.54139384  0.82430479  1
  N  N51  1  0.79488020  0.38842957  0.58373957  1
  N  N52  1  0.55355902  0.53912294  0.38290956  1
  N  N53  1  0.44461560  0.42881742  0.12788363  1
  N  N54  1  0.22442281  0.54181862  0.87625104  1
  N  N55  1  0.10615632  0.42601919  0.57593149  1
  N  N56  1  0.88620763  0.54268180  0.33350200  1
  N  N57  1  0.77362819  0.43656719  0.07863395  1
  N  N58  1  0.53748638  0.56944712  0.87073689  1
  N  N59  1  0.44451370  0.42325891  0.62931677  1
  N  N60  1  0.22837611  0.86507022  0.38137268  1
  N  N61  1  0.11797849  0.76181915  0.12552112  1
  N  N62  1  0.89097564  0.87224939  0.88940533  1
  N  N63  1  0.80142209  0.78098781  0.59174850  1
  N  N64  1  0.55907479  0.86155471  0.39613151  1
  N  N65  1  0.45849789  0.77796229  0.13261587  1
  N  N66  1  0.25121147  0.85788541  0.87095419  1
  N  N67  1  0.08601869  0.77500385  0.63002868  1
  N  N68  1  0.87837945  0.89885901  0.33794733  1
  N  N69  1  0.74058998  0.77459699  0.08156456  1
  N  N70  1  0.54632341  0.86068532  0.81703494  1
  N  N71  1  0.43449345  0.75478545  0.64498754  1
