# generated using pymatgen
data_Al31B5N36
_symmetry_space_group_name_H-M   'P 1'
_cell_length_a   9.19750865
_cell_length_b   9.15095834
_cell_length_c   10.14637856
_cell_angle_alpha   89.39307426
_cell_angle_beta   89.40910209
_cell_angle_gamma   60.18682223
_symmetry_Int_Tables_number   1
_chemical_formula_structural   Al31B5N36
_chemical_formula_sum   'Al31 B5 N36'
_cell_volume   740.90285403
_cell_formula_units_Z   1
loop_
 _symmetry_equiv_pos_site_id
 _symmetry_equiv_pos_as_xyz
  1  'x, y, z'
loop_
 _atom_site_type_symbol
 _atom_site_label
 _atom_site_symmetry_multiplicity
 _atom_site_fract_x
 _atom_site_fract_y
 _atom_site_fract_z
 _atom_site_occupancy
  Al  Al0  1  0.10704920  0.08637697  0.31462899  1
  Al  Al1  1  0.23093810  0.20413238  0.13496773  1
  Al  Al2  1  0.78103096  0.09067443  0.82378795  1
  Al  Al3  1  0.44731414  0.09034822  0.39378714  1
  Al  Al4  1  0.55777207  0.20325188  0.06618723  1
  Al  Al5  1  0.10908606  0.09248336  0.85688729  1
  Al  Al6  1  0.21672856  0.21094274  0.64189218  1
  Al  Al7  1  0.88057092  0.20912996  0.10865325  1
  Al  Al8  1  0.44368797  0.08059444  0.87781575  1
  Al  Al9  1  0.57796514  0.20104792  0.56365845  1
  Al  Al10  1  0.11017861  0.42267189  0.38727119  1
  Al  Al11  1  0.22471557  0.54382812  0.06630319  1
  Al  Al12  1  0.77537426  0.43203342  0.88878372  1
  Al  Al13  1  0.89232602  0.53794891  0.63981310  1
  Al  Al14  1  0.45325063  0.42080115  0.31683670  1
  Al  Al15  1  0.54467200  0.55675893  0.06538700  1
  Al  Al16  1  0.10402883  0.42861950  0.88970696  1
  Al  Al17  1  0.22100241  0.54531616  0.56761340  1
  Al  Al18  1  0.78676623  0.40862623  0.38639967  1
  Al  Al19  1  0.87602936  0.54792415  0.14675910  1
  Al  Al20  1  0.44410124  0.43203355  0.81496954  1
  Al  Al21  1  0.55237745  0.53680763  0.57203080  1
  Al  Al22  1  0.10782823  0.76670850  0.31376987  1
  Al  Al23  1  0.23702700  0.86861541  0.06263296  1
  Al  Al24  1  0.76345977  0.76168850  0.88535154  1
  Al  Al25  1  0.45246919  0.76109877  0.32501312  1
  Al  Al26  1  0.11137799  0.76379807  0.82159018  1
  Al  Al27  1  0.21119146  0.88041241  0.56898048  1
  Al  Al28  1  0.78515774  0.77306754  0.39601758  1
  Al  Al29  1  0.88310236  0.87630336  0.08621120  1
  Al  Al30  1  0.55658306  0.87527118  0.61473607  1
  B  B31  1  0.90039922  0.19261100  0.60894422  1
  B  B32  1  0.77669812  0.09027894  0.30019748  1
  B  B33  1  0.89881921  0.87531829  0.60686129  1
  B  B34  1  0.55323807  0.87229866  0.10075416  1
  B  B35  1  0.44289107  0.75890114  0.80518292  1
  N  N36  1  0.22954991  0.20340191  0.32272806  1
  N  N37  1  0.11503297  0.09047760  0.10918141  1
  N  N38  1  0.88491797  0.20133130  0.88546663  1
  N  N39  1  0.80904289  0.07779336  0.62748576  1
  N  N40  1  0.58698246  0.19127066  0.37160050  1
  N  N41  1  0.45596718  0.06129976  0.07533187  1
  N  N42  1  0.22131110  0.20940990  0.83001581  1
  N  N43  1  0.08285689  0.10729132  0.61832705  1
  N  N44  1  0.87629814  0.19567699  0.31789559  1
  N  N45  1  0.76299250  0.09627028  0.14047920  1
  N  N46  1  0.55648182  0.20681126  0.87687431  1
  N  N47  1  0.43703093  0.10745869  0.58461466  1
  N  N48  1  0.22664954  0.54233853  0.37769247  1
  N  N49  1  0.10196114  0.43093649  0.07951705  1
  N  N50  1  0.88665722  0.54046644  0.82424559  1
  N  N51  1  0.79568002  0.38755457  0.58535192  1
  N  N52  1  0.55389560  0.53903487  0.38312604  1
  N  N53  1  0.44441353  0.42889738  0.12785916  1
  N  N54  1  0.22462199  0.54161713  0.87612950  1
  N  N55  1  0.10630163  0.42639854  0.57609046  1
  N  N56  1  0.88623320  0.54198047  0.33434571  1
  N  N57  1  0.77219907  0.43894014  0.07927732  1
  N  N58  1  0.53727120  0.56936290  0.87048407  1
  N  N59  1  0.44451880  0.42338959  0.62924476  1
  N  N60  1  0.22599258  0.86946399  0.38132737  1
  N  N61  1  0.11846534  0.76247602  0.12513760  1
  N  N62  1  0.89109619  0.87132731  0.88949072  1
  N  N63  1  0.80148417  0.78118633  0.59215048  1
  N  N64  1  0.55909121  0.86145383  0.39686659  1
  N  N65  1  0.45782059  0.77867336  0.13238066  1
  N  N66  1  0.25046321  0.85816504  0.87144998  1
  N  N67  1  0.08608761  0.77533380  0.62938459  1
  N  N68  1  0.87842003  0.89805545  0.33699380  1
  N  N69  1  0.74042714  0.77459696  0.08174725  1
  N  N70  1  0.54628564  0.86019128  0.81714654  1
  N  N71  1  0.43354429  0.75544487  0.64465671  1
