# generated using pymatgen
data_Al31B5N36
_symmetry_space_group_name_H-M   'P 1'
_cell_length_a   9.20543390
_cell_length_b   9.18930655
_cell_length_c   9.89841643
_cell_angle_alpha   90.22417030
_cell_angle_beta   89.90431320
_cell_angle_gamma   59.94341410
_symmetry_Int_Tables_number   1
_chemical_formula_structural   Al31B5N36
_chemical_formula_sum   'Al31 B5 N36'
_cell_volume   724.71674690
_cell_formula_units_Z   1
loop_
 _symmetry_equiv_pos_site_id
 _symmetry_equiv_pos_as_xyz
  1  'x, y, z'
loop_
 _atom_site_type_symbol
 _atom_site_label
 _atom_site_symmetry_multiplicity
 _atom_site_fract_x
 _atom_site_fract_y
 _atom_site_fract_z
 _atom_site_occupancy
  Al  Al0  1  0.10627751  0.09129466  0.31935931  1
  Al  Al1  1  0.22452820  0.20071025  0.06689760  1
  Al  Al2  1  0.78167149  0.08900507  0.81608451  1
  Al  Al3  1  0.45577806  0.08398402  0.32154867  1
  Al  Al4  1  0.56098843  0.20070554  0.06874618  1
  Al  Al5  1  0.10859186  0.09501482  0.80951587  1
  Al  Al6  1  0.21835014  0.20507405  0.56030102  1
  Al  Al7  1  0.88760555  0.20848163  0.06802021  1
  Al  Al8  1  0.44100607  0.09277830  0.81279825  1
  Al  Al9  1  0.57047289  0.19465234  0.55932915  1
  Al  Al10  1  0.11555554  0.42734852  0.31934340  1
  Al  Al11  1  0.22376974  0.54068791  0.06161372  1
  Al  Al12  1  0.77345536  0.42594856  0.80854280  1
  Al  Al13  1  0.89067079  0.53748290  0.59251437  1
  Al  Al14  1  0.45073606  0.42363571  0.31290018  1
  Al  Al15  1  0.55673383  0.54973483  0.06003030  1
  Al  Al16  1  0.11061285  0.42761280  0.81430764  1
  Al  Al17  1  0.21910164  0.54133709  0.56547358  1
  Al  Al18  1  0.77699240  0.41848647  0.32850545  1
  Al  Al19  1  0.87884580  0.54881863  0.11526249  1
  Al  Al20  1  0.44460958  0.43032769  0.81382745  1
  Al  Al21  1  0.55607151  0.53195088  0.56644072  1
  Al  Al22  1  0.11034459  0.76682805  0.31075154  1
  Al  Al23  1  0.23363128  0.87481861  0.05734328  1
  Al  Al24  1  0.76007799  0.76533162  0.88329671  1
  Al  Al25  1  0.44930258  0.76296198  0.32176615  1
  Al  Al26  1  0.10762296  0.76421073  0.82200989  1
  Al  Al27  1  0.21222396  0.87460715  0.56764073  1
  Al  Al28  1  0.78223560  0.77681349  0.39045114  1
  Al  Al29  1  0.88310099  0.88253981  0.09649230  1
  Al  Al30  1  0.55495397  0.87239725  0.60060453  1
  B  B31  1  0.89385463  0.18929058  0.55598574  1
  B  B32  1  0.77794430  0.09268397  0.30950801  1
  B  B33  1  0.89499577  0.87543260  0.60301818  1
  B  B34  1  0.55298747  0.87417836  0.10520872  1
  B  B35  1  0.44320549  0.76129722  0.80190530  1
  N  N36  1  0.22521996  0.20263991  0.37000196  1
  N  N37  1  0.10988543  0.09446594  0.12699357  1
  N  N38  1  0.88646631  0.20541521  0.87790875  1
  N  N39  1  0.80470952  0.07219578  0.61816618  1
  N  N40  1  0.58214724  0.19106558  0.36587409  1
  N  N41  1  0.45956776  0.06611661  0.12290532  1
  N  N42  1  0.21992326  0.20518734  0.87597762  1
  N  N43  1  0.08456270  0.10657201  0.61391124  1
  N  N44  1  0.88032521  0.18894126  0.38932834  1
  N  N45  1  0.77331126  0.11084484  0.14595623  1
  N  N46  1  0.55730863  0.20270671  0.87607342  1
  N  N47  1  0.43912052  0.10476541  0.62184505  1
  N  N48  1  0.22396590  0.54173814  0.37476684  1
  N  N49  1  0.11270089  0.42974006  0.12574721  1
  N  N50  1  0.88357657  0.54158963  0.84279670  1
  N  N51  1  0.78817876  0.39484568  0.61277321  1
  N  N52  1  0.55290360  0.54033568  0.37692212  1
  N  N53  1  0.44604150  0.43046600  0.12082601  1
  N  N54  1  0.22196265  0.53873854  0.87175918  1
  N  N55  1  0.11643318  0.42385230  0.62228409  1
  N  N56  1  0.88773361  0.54190325  0.36435026  1
  N  N57  1  0.77333159  0.42797126  0.13277698  1
  N  N58  1  0.54329512  0.56351460  0.86565111  1
  N  N59  1  0.44594004  0.42078375  0.62275418  1
  N  N60  1  0.22549309  0.86933439  0.37791211  1
  N  N61  1  0.12204032  0.76210679  0.11906432  1
  N  N62  1  0.88726667  0.87603257  0.89093808  1
  N  N63  1  0.79937701  0.78179017  0.58851601  1
  N  N64  1  0.55256607  0.87141681  0.39479664  1
  N  N65  1  0.45896877  0.77879060  0.12543269  1
  N  N66  1  0.24500351  0.86284710  0.86240589  1
  N  N67  1  0.08361110  0.77471388  0.62457113  1
  N  N68  1  0.87725302  0.89701594  0.32693834  1
  N  N69  1  0.74002813  0.77993307  0.08694511  1
  N  N70  1  0.54138785  0.85940927  0.82366662  1
  N  N71  1  0.43603369  0.75285889  0.63860402  1
