# generated using pymatgen
data_Al31B5N36
_symmetry_space_group_name_H-M   'P 1'
_cell_length_a   9.18071658
_cell_length_b   9.18043510
_cell_length_c   10.06141584
_cell_angle_alpha   89.58899100
_cell_angle_beta   89.36021679
_cell_angle_gamma   60.07849266
_symmetry_Int_Tables_number   1
_chemical_formula_structural   Al31B5N36
_chemical_formula_sum   'Al31 B5 N36'
_cell_volume   734.92786724
_cell_formula_units_Z   1
loop_
 _symmetry_equiv_pos_site_id
 _symmetry_equiv_pos_as_xyz
  1  'x, y, z'
loop_
 _atom_site_type_symbol
 _atom_site_label
 _atom_site_symmetry_multiplicity
 _atom_site_fract_x
 _atom_site_fract_y
 _atom_site_fract_z
 _atom_site_occupancy
  Al  Al0  1  0.10047360  0.09802565  0.39746621  1
  Al  Al1  1  0.22558300  0.19944336  0.14030324  1
  Al  Al2  1  0.77907896  0.09170645  0.85240603  1
  Al  Al3  1  0.44818508  0.08960026  0.38169708  1
  Al  Al4  1  0.55842973  0.20514370  0.06410898  1
  Al  Al5  1  0.10924850  0.09882203  0.87729953  1
  Al  Al6  1  0.21907670  0.20738233  0.63843752  1
  Al  Al7  1  0.88694258  0.20334828  0.13036028  1
  Al  Al8  1  0.43950858  0.07864891  0.89278114  1
  Al  Al9  1  0.57968004  0.19328441  0.57238186  1
  Al  Al10  1  0.11028356  0.42985904  0.38903473  1
  Al  Al11  1  0.21692360  0.54371809  0.14070686  1
  Al  Al12  1  0.77858415  0.42886579  0.87777008  1
  Al  Al13  1  0.88649719  0.53890141  0.63823470  1
  Al  Al14  1  0.46035493  0.42349391  0.32081192  1
  Al  Al15  1  0.54809427  0.55327955  0.06142324  1
  Al  Al16  1  0.11092625  0.42748680  0.89058692  1
  Al  Al17  1  0.20798040  0.54446465  0.63754787  1
  Al  Al18  1  0.78634684  0.41487894  0.39350148  1
  Al  Al19  1  0.88022307  0.54381127  0.13939402  1
  Al  Al20  1  0.44808218  0.42714738  0.81278353  1
  Al  Al21  1  0.55277976  0.53612383  0.57398240  1
  Al  Al22  1  0.10068985  0.77210406  0.39721768  1
  Al  Al23  1  0.23748785  0.86997030  0.06410396  1
  Al  Al24  1  0.76743196  0.76163671  0.88965653  1
  Al  Al25  1  0.44455485  0.76321109  0.31595368  1
  Al  Al26  1  0.11014437  0.75715238  0.88030139  1
  Al  Al27  1  0.21386007  0.87618200  0.60361711  1
  Al  Al28  1  0.77657052  0.77273952  0.38981832  1
  Al  Al29  1  0.88254351  0.88016910  0.13355187  1
  Al  Al30  1  0.56037189  0.87397733  0.64285210  1
  B  B31  1  0.89369602  0.19775630  0.64936619  1
  B  B32  1  0.78119391  0.09446654  0.34924253  1
  B  B33  1  0.89377035  0.87987785  0.65159024  1
  B  B34  1  0.56098345  0.87682915  0.14566527  1
  B  B35  1  0.44316888  0.75558036  0.80735193  1
  N  N36  1  0.21917112  0.20557861  0.32903079  1
  N  N37  1  0.10878153  0.10049988  0.07025396  1
  N  N38  1  0.89110833  0.21022347  0.80877835  1
  N  N39  1  0.80312835  0.07967809  0.62560716  1
  N  N40  1  0.59245753  0.19114993  0.37258086  1
  N  N41  1  0.45648646  0.06669946  0.08767530  1
  N  N42  1  0.22393990  0.20687448  0.82597048  1
  N  N43  1  0.08226971  0.11214422  0.59102850  1
  N  N44  1  0.87613931  0.19093227  0.32466544  1
  N  N45  1  0.78954975  0.08955477  0.05885127  1
  N  N46  1  0.54473974  0.20892868  0.87352853  1
  N  N47  1  0.44226502  0.08936796  0.57136902  1
  N  N48  1  0.21747830  0.54733703  0.33282474  1
  N  N49  1  0.11136816  0.42754852  0.08025797  1
  N  N50  1  0.88900469  0.54087856  0.82665384  1
  N  N51  1  0.79269149  0.39615414  0.58643398  1
  N  N52  1  0.55460379  0.54635426  0.38402665  1
  N  N53  1  0.45368970  0.42583886  0.12999062  1
  N  N54  1  0.21652320  0.53923976  0.82589199  1
  N  N55  1  0.10804549  0.42737571  0.57517515  1
  N  N56  1  0.88588567  0.54149743  0.33001554  1
  N  N57  1  0.78155159  0.42531777  0.07106001  1
  N  N58  1  0.53708256  0.56592096  0.86867670  1
  N  N59  1  0.44651549  0.41912441  0.62236551  1
  N  N60  1  0.23206283  0.87044421  0.38801445  1
  N  N61  1  0.10919279  0.76101621  0.07306700  1
  N  N62  1  0.88906609  0.86177773  0.81209404  1
  N  N63  1  0.78405730  0.77350807  0.58039046  1
  N  N64  1  0.56612018  0.87798537  0.30806661  1
  N  N65  1  0.45577379  0.77221985  0.12731024  1
  N  N66  1  0.24614871  0.86057416  0.85648624  1
  N  N67  1  0.07852589  0.77514016  0.59061058  1
  N  N68  1  0.87697198  0.90425603  0.32681819  1
  N  N69  1  0.75413306  0.77520722  0.08401322  1
  N  N70  1  0.54478538  0.85907067  0.82967723  1
  N  N71  1  0.44251495  0.75180778  0.64671709  1
