# generated using pymatgen
data_Al31B5N36
_symmetry_space_group_name_H-M   'P 1'
_cell_length_a   9.17008245
_cell_length_b   9.16597855
_cell_length_c   9.79825695
_cell_angle_alpha   90.05196989
_cell_angle_beta   90.23009456
_cell_angle_gamma   60.05855451
_symmetry_Int_Tables_number   1
_chemical_formula_structural   Al31B5N36
_chemical_formula_sum   'Al31 B5 N36'
_cell_volume   713.64730325
_cell_formula_units_Z   1
loop_
 _symmetry_equiv_pos_site_id
 _symmetry_equiv_pos_as_xyz
  1  'x, y, z'
loop_
 _atom_site_type_symbol
 _atom_site_label
 _atom_site_symmetry_multiplicity
 _atom_site_fract_x
 _atom_site_fract_y
 _atom_site_fract_z
 _atom_site_occupancy
  Al  Al0  1  0.10689448  0.09185347  0.30095608  1
  Al  Al1  1  0.22464150  0.19943177  0.04470484  1
  Al  Al2  1  0.78269922  0.09173562  0.78800332  1
  Al  Al3  1  0.45240039  0.08690166  0.29026349  1
  Al  Al4  1  0.56356365  0.19704463  0.05136789  1
  Al  Al5  1  0.10847054  0.09408233  0.78975999  1
  Al  Al6  1  0.21823100  0.20676971  0.54392438  1
  Al  Al7  1  0.88748464  0.20226505  0.05260862  1
  Al  Al8  1  0.44517190  0.08858009  0.80193270  1
  Al  Al9  1  0.56654006  0.19911509  0.54141667  1
  Al  Al10  1  0.11057974  0.42819883  0.29280843  1
  Al  Al11  1  0.22161614  0.54068911  0.04421252  1
  Al  Al12  1  0.77653375  0.42551674  0.78985183  1
  Al  Al13  1  0.88839901  0.54109192  0.54510029  1
  Al  Al14  1  0.44997950  0.42482683  0.29490167  1
  Al  Al15  1  0.55637221  0.54666712  0.04056830  1
  Al  Al16  1  0.10962582  0.42805927  0.79460738  1
  Al  Al17  1  0.21616028  0.54314750  0.54359210  1
  Al  Al18  1  0.77679460  0.42181583  0.30259714  1
  Al  Al19  1  0.88112784  0.54322023  0.04457796  1
  Al  Al20  1  0.44389842  0.43120675  0.79503892  1
  Al  Al21  1  0.55720817  0.53768932  0.55023687  1
  Al  Al22  1  0.10660966  0.76797782  0.30088414  1
  Al  Al23  1  0.22970100  0.87156014  0.03998724  1
  Al  Al24  1  0.77355865  0.76592085  0.79718994  1
  Al  Al25  1  0.44764255  0.76349455  0.29212438  1
  Al  Al26  1  0.10824211  0.76414880  0.79025564  1
  Al  Al27  1  0.21761301  0.87519439  0.55040997  1
  Al  Al28  1  0.77207709  0.77028235  0.29737607  1
  Al  Al29  1  0.88290123  0.87635182  0.05237556  1
  Al  Al30  1  0.55858548  0.87440518  0.55172485  1
  B  B31  1  0.89028598  0.19165241  0.53622913  1
  B  B32  1  0.77873244  0.09309678  0.30415481  1
  B  B33  1  0.88957714  0.88439413  0.53782561  1
  B  B34  1  0.55230544  0.86780055  0.03998249  1
  B  B35  1  0.44599855  0.76063573  0.79631127  1
  N  N36  1  0.22554146  0.20409995  0.35078662  1
  N  N37  1  0.11122879  0.09161582  0.10756581  1
  N  N38  1  0.88749879  0.20382801  0.85980731  1
  N  N39  1  0.80188601  0.08233349  0.59320976  1
  N  N40  1  0.57948805  0.19213309  0.34697747  1
  N  N41  1  0.45786152  0.06725187  0.09360005  1
  N  N42  1  0.21970813  0.20467125  0.85252922  1
  N  N43  1  0.08429321  0.10729719  0.59376725  1
  N  N44  1  0.87795295  0.19145853  0.36840817  1
  N  N45  1  0.78174660  0.09168865  0.13558304  1
  N  N46  1  0.56143813  0.20336500  0.85595855  1
  N  N47  1  0.44366055  0.09725216  0.60789869  1
  N  N48  1  0.22310068  0.53874070  0.35206161  1
  N  N49  1  0.10988685  0.42770873  0.10069823  1
  N  N50  1  0.88535939  0.54002514  0.85042877  1
  N  N51  1  0.78961559  0.39988797  0.59478961  1
  N  N52  1  0.55314986  0.54319856  0.35741894  1
  N  N53  1  0.44701167  0.42792388  0.10124119  1
  N  N54  1  0.22038035  0.54160395  0.85154239  1
  N  N55  1  0.10986608  0.42829078  0.60346841  1
  N  N56  1  0.88750410  0.54168011  0.35249815  1
  N  N57  1  0.77668250  0.42598953  0.10823330  1
  N  N58  1  0.54491429  0.56267853  0.84557003  1
  N  N59  1  0.44321504  0.42624294  0.60224884  1
  N  N60  1  0.22850260  0.86910964  0.35856877  1
  N  N61  1  0.11138471  0.76351293  0.10649152  1
  N  N62  1  0.88816425  0.87574530  0.86080137  1
  N  N63  1  0.78907028  0.77867451  0.60007550  1
  N  N64  1  0.55450842  0.87204763  0.36213099  1
  N  N65  1  0.45710672  0.77376567  0.09879769  1
  N  N66  1  0.24491674  0.86068225  0.84305496  1
  N  N67  1  0.08416424  0.77598821  0.59419242  1
  N  N68  1  0.87705892  0.89613449  0.36712193  1
  N  N69  1  0.75146295  0.77439550  0.09845997  1
  N  N70  1  0.54499718  0.85939161  0.86561749  1
  N  N71  1  0.44744924  0.76276209  0.62853349  1
