# generated using pymatgen
data_Al31B5N36
_symmetry_space_group_name_H-M   'P 1'
_cell_length_a   9.18238399
_cell_length_b   9.17908887
_cell_length_c   10.05706309
_cell_angle_alpha   89.57717410
_cell_angle_beta   89.41553525
_cell_angle_gamma   60.06130123
_symmetry_Int_Tables_number   1
_chemical_formula_structural   Al31B5N36
_chemical_formula_sum   'Al31 B5 N36'
_cell_volume   734.51498078
_cell_formula_units_Z   1
loop_
 _symmetry_equiv_pos_site_id
 _symmetry_equiv_pos_as_xyz
  1  'x, y, z'
loop_
 _atom_site_type_symbol
 _atom_site_label
 _atom_site_symmetry_multiplicity
 _atom_site_fract_x
 _atom_site_fract_y
 _atom_site_fract_z
 _atom_site_occupancy
  Al  Al0  1  0.10224517  0.09460708  0.39715329  1
  Al  Al1  1  0.22592462  0.20018224  0.14082725  1
  Al  Al2  1  0.77942051  0.09145733  0.85192685  1
  Al  Al3  1  0.44809332  0.08979364  0.38169480  1
  Al  Al4  1  0.55855848  0.20533822  0.06399245  1
  Al  Al5  1  0.11050085  0.09660403  0.87989463  1
  Al  Al6  1  0.21918102  0.20674495  0.63822649  1
  Al  Al7  1  0.88570237  0.20446095  0.13088573  1
  Al  Al8  1  0.43945892  0.07850583  0.89280237  1
  Al  Al9  1  0.57964598  0.19347492  0.57219905  1
  Al  Al10  1  0.11037020  0.42966848  0.38923608  1
  Al  Al11  1  0.21697585  0.54297384  0.14128662  1
  Al  Al12  1  0.77885436  0.42846671  0.87721281  1
  Al  Al13  1  0.88667140  0.53877750  0.63826180  1
  Al  Al14  1  0.46018474  0.42353755  0.32073369  1
  Al  Al15  1  0.54732068  0.55439128  0.05994976  1
  Al  Al16  1  0.11094940  0.42731458  0.89023921  1
  Al  Al17  1  0.20804195  0.54460965  0.63715884  1
  Al  Al18  1  0.78689417  0.41427242  0.39349178  1
  Al  Al19  1  0.87992766  0.54390202  0.13936325  1
  Al  Al20  1  0.44786941  0.42701217  0.81253807  1
  Al  Al21  1  0.55298571  0.53566821  0.57323857  1
  Al  Al22  1  0.10241590  0.77326712  0.39711907  1
  Al  Al23  1  0.23004808  0.87343561  0.09472513  1
  Al  Al24  1  0.76756962  0.76161141  0.88936065  1
  Al  Al25  1  0.44782049  0.76159056  0.31538751  1
  Al  Al26  1  0.11109152  0.75751965  0.88209658  1
  Al  Al27  1  0.20884277  0.87812473  0.63484450  1
  Al  Al28  1  0.77728090  0.77292656  0.38978923  1
  Al  Al29  1  0.88160805  0.88049576  0.13410691  1
  Al  Al30  1  0.56093426  0.87422302  0.64199765  1
  B  B31  1  0.89407998  0.19720822  0.64876341  1
  B  B32  1  0.78112918  0.09452960  0.34915394  1
  B  B33  1  0.89361235  0.87926529  0.65069258  1
  B  B34  1  0.56134240  0.87669021  0.14503071  1
  B  B35  1  0.44515571  0.75463046  0.80523365  1
  N  N36  1  0.21915347  0.20581985  0.32939925  1
  N  N37  1  0.10870364  0.10075673  0.07053538  1
  N  N38  1  0.89241054  0.20935568  0.80870078  1
  N  N39  1  0.80323570  0.07961631  0.62556566  1
  N  N40  1  0.59231445  0.19126078  0.37250416  1
  N  N41  1  0.45655840  0.06705197  0.08765521  1
  N  N42  1  0.22360206  0.20621299  0.82636559  1
  N  N43  1  0.08438179  0.10896677  0.58939591  1
  N  N44  1  0.87550142  0.19147663  0.32471459  1
  N  N45  1  0.78984577  0.08953938  0.05875426  1
  N  N46  1  0.54498895  0.20867624  0.87337352  1
  N  N47  1  0.44248643  0.08980909  0.57148934  1
  N  N48  1  0.21751973  0.54679004  0.33317567  1
  N  N49  1  0.11102549  0.42775257  0.08008893  1
  N  N50  1  0.88884943  0.54089478  0.82654849  1
  N  N51  1  0.79334831  0.39542274  0.58644131  1
  N  N52  1  0.55502668  0.54576747  0.38381189  1
  N  N53  1  0.45353344  0.42644893  0.12952921  1
  N  N54  1  0.21634800  0.53955880  0.82613153  1
  N  N55  1  0.10800420  0.42722881  0.57552801  1
  N  N56  1  0.88574212  0.54156954  0.33008422  1
  N  N57  1  0.78115994  0.42563064  0.07045096  1
  N  N58  1  0.53649153  0.56657511  0.86753021  1
  N  N59  1  0.44650463  0.41920057  0.62232615  1
  N  N60  1  0.22612304  0.87312183  0.35840858  1
  N  N61  1  0.10944268  0.76093701  0.07316221  1
  N  N62  1  0.88987267  0.86123594  0.81207913  1
  N  N63  1  0.78535884  0.77413675  0.58073982  1
  N  N64  1  0.56674677  0.87804468  0.30817932  1
  N  N65  1  0.45879984  0.77179243  0.12514933  1
  N  N66  1  0.24040157  0.86283658  0.83870695  1
  N  N67  1  0.08061405  0.77577872  0.58941089  1
  N  N68  1  0.87654500  0.90429181  0.32698173  1
  N  N69  1  0.75453789  0.77528313  0.08371613  1
  N  N70  1  0.54433350  0.85892218  0.82922307  1
  N  N71  1  0.44536025  0.75127013  0.64281379  1
