# generated using pymatgen
data_Al31B5N36
_symmetry_space_group_name_H-M   'P 1'
_cell_length_a   9.16977789
_cell_length_b   9.16821366
_cell_length_c   9.80039984
_cell_angle_alpha   90.11386745
_cell_angle_beta   90.03447727
_cell_angle_gamma   60.05093281
_symmetry_Int_Tables_number   1
_chemical_formula_structural   Al31B5N36
_chemical_formula_sum   'Al31 B5 N36'
_cell_volume   713.90386354
_cell_formula_units_Z   1
loop_
 _symmetry_equiv_pos_site_id
 _symmetry_equiv_pos_as_xyz
  1  'x, y, z'
loop_
 _atom_site_type_symbol
 _atom_site_label
 _atom_site_symmetry_multiplicity
 _atom_site_fract_x
 _atom_site_fract_y
 _atom_site_fract_z
 _atom_site_occupancy
  Al  Al0  1  0.10254412  0.09367654  0.40927360  1
  Al  Al1  1  0.22460268  0.20002908  0.15511424  1
  Al  Al2  1  0.77953551  0.09352326  0.89080659  1
  Al  Al3  1  0.45038262  0.08898366  0.39832793  1
  Al  Al4  1  0.56459910  0.19715035  0.15877210  1
  Al  Al5  1  0.11303594  0.09218641  0.89971394  1
  Al  Al6  1  0.21920027  0.20602232  0.65502158  1
  Al  Al7  1  0.88600274  0.20180116  0.15713358  1
  Al  Al8  1  0.44684175  0.08671330  0.90867539  1
  Al  Al9  1  0.56513439  0.19974369  0.64634987  1
  Al  Al10  1  0.10970333  0.42822034  0.40502346  1
  Al  Al11  1  0.22091413  0.54087552  0.15618004  1
  Al  Al12  1  0.77694949  0.42851152  0.89856208  1
  Al  Al13  1  0.88953466  0.54028092  0.65390266  1
  Al  Al14  1  0.44990502  0.42534314  0.40465314  1
  Al  Al15  1  0.55717614  0.54407323  0.14722016  1
  Al  Al16  1  0.11116503  0.42840475  0.90645843  1
  Al  Al17  1  0.21738692  0.54304142  0.65493076  1
  Al  Al18  1  0.77663631  0.41859181  0.40960043  1
  Al  Al19  1  0.88147221  0.54370229  0.15567737  1
  Al  Al20  1  0.44414121  0.43068221  0.90466444  1
  Al  Al21  1  0.55623469  0.54018990  0.66003392  1
  Al  Al22  1  0.10202470  0.77088897  0.40895980  1
  Al  Al23  1  0.22694940  0.87283472  0.14785309  1
  Al  Al24  1  0.77115401  0.76487531  0.90272892  1
  Al  Al25  1  0.44628055  0.76171581  0.39675591  1
  Al  Al26  1  0.11281138  0.76262227  0.89945617  1
  Al  Al27  1  0.22025241  0.87389951  0.65925334  1
  Al  Al28  1  0.77392530  0.77209110  0.40313247  1
  Al  Al29  1  0.88100572  0.88010565  0.15699952  1
  Al  Al30  1  0.55704785  0.87185338  0.65768061  1
  B  B31  1  0.89419374  0.19858789  0.65554489  1
  B  B32  1  0.78621602  0.09009768  0.41184931  1
  B  B33  1  0.89305347  0.87506538  0.65421044  1
  B  B34  1  0.55690935  0.87294348  0.15175276  1
  B  B35  1  0.44950497  0.76551247  0.91004082  1
  N  N36  1  0.22002913  0.20354699  0.34768778  1
  N  N37  1  0.10663407  0.09659369  0.09240559  1
  N  N38  1  0.88989388  0.20372210  0.82062939  1
  N  N39  1  0.80022918  0.08312953  0.58924920  1
  N  N40  1  0.58324513  0.19151069  0.35658935  1
  N  N41  1  0.45801438  0.07093134  0.10433359  1
  N  N42  1  0.22450004  0.20542908  0.84762129  1
  N  N43  1  0.08809492  0.10457724  0.60440636  1
  N  N44  1  0.87587868  0.19090143  0.35152453  1
  N  N45  1  0.77921740  0.09383480  0.08271728  1
  N  N46  1  0.55403087  0.20453740  0.84098397  1
  N  N47  1  0.44409795  0.09131517  0.59169818  1
  N  N48  1  0.22050665  0.54270459  0.34913597  1
  N  N49  1  0.10963144  0.42797956  0.09904396  1
  N  N50  1  0.88894008  0.54129475  0.84609402  1
  N  N51  1  0.78799149  0.40301383  0.60447580  1
  N  N52  1  0.55741455  0.53859516  0.34070112  1
  N  N53  1  0.44544983  0.42427824  0.09823684  1
  N  N54  1  0.22212278  0.53907398  0.84608025  1
  N  N55  1  0.11098738  0.42765944  0.59568981  1
  N  N56  1  0.88387595  0.54093226  0.35014248  1
  N  N57  1  0.78132278  0.42245872  0.09196303  1
  N  N58  1  0.54328870  0.56531396  0.85568716  1
  N  N59  1  0.44385175  0.43035516  0.59728945  1
  N  N60  1  0.22163292  0.87250058  0.34303239  1
  N  N61  1  0.10584437  0.76367809  0.09333508  1
  N  N62  1  0.88850537  0.87282138  0.82124957  1
  N  N63  1  0.78662132  0.77717543  0.59954482  1
  N  N64  1  0.55595618  0.87004384  0.31992007  1
  N  N65  1  0.45673370  0.77367048  0.08250338  1
  N  N66  1  0.24976984  0.85943185  0.85413174  1
  N  N67  1  0.08748895  0.77531254  0.60420812  1
  N  N68  1  0.87544762  0.90017324  0.35074209  1
  N  N69  1  0.75471777  0.77557641  0.09997293  1
  N  N70  1  0.54327141  0.86004045  0.84943320  1
  N  N71  1  0.44616624  0.76158573  0.58904877  1
