# generated using pymatgen
data_Al31B5N36
_symmetry_space_group_name_H-M   'P 1'
_cell_length_a   9.16180841
_cell_length_b   9.14472645
_cell_length_c   10.16136812
_cell_angle_alpha   89.63389161
_cell_angle_beta   89.33877190
_cell_angle_gamma   60.22153606
_symmetry_Int_Tables_number   1
_chemical_formula_structural   Al31B5N36
_chemical_formula_sum   'Al31 B5 N36'
_cell_volume   738.87482124
_cell_formula_units_Z   1
loop_
 _symmetry_equiv_pos_site_id
 _symmetry_equiv_pos_as_xyz
  1  'x, y, z'
loop_
 _atom_site_type_symbol
 _atom_site_label
 _atom_site_symmetry_multiplicity
 _atom_site_fract_x
 _atom_site_fract_y
 _atom_site_fract_z
 _atom_site_occupancy
  Al  Al0  1  0.09822365  0.10216077  0.39590279  1
  Al  Al1  1  0.22476592  0.20026780  0.13984310  1
  Al  Al2  1  0.78182633  0.08709316  0.86757433  1
  Al  Al3  1  0.44665409  0.09055528  0.38246184  1
  Al  Al4  1  0.55516594  0.20670311  0.06604964  1
  Al  Al5  1  0.10934961  0.09665058  0.87736433  1
  Al  Al6  1  0.21783814  0.20769051  0.63946608  1
  Al  Al7  1  0.88721102  0.20531569  0.13233185  1
  Al  Al8  1  0.43935678  0.07813964  0.89371782  1
  Al  Al9  1  0.57843716  0.19412590  0.57057856  1
  Al  Al10  1  0.11007557  0.43031006  0.39035998  1
  Al  Al11  1  0.21831213  0.54285835  0.14202366  1
  Al  Al12  1  0.77923638  0.42597557  0.87631313  1
  Al  Al13  1  0.88715458  0.54048607  0.63931894  1
  Al  Al14  1  0.46166468  0.42282917  0.32033660  1
  Al  Al15  1  0.54911152  0.55260692  0.06040734  1
  Al  Al16  1  0.11006054  0.42869183  0.89020646  1
  Al  Al17  1  0.20669034  0.54694734  0.63828531  1
  Al  Al18  1  0.78496578  0.41623651  0.39602200  1
  Al  Al19  1  0.88049019  0.54284910  0.14042901  1
  Al  Al20  1  0.44845327  0.42601792  0.81278211  1
  Al  Al21  1  0.55219293  0.53694772  0.57628746  1
  Al  Al22  1  0.10119331  0.77075725  0.38857099  1
  Al  Al23  1  0.24164274  0.86983791  0.06226917  1
  Al  Al24  1  0.76746417  0.76025271  0.89476543  1
  Al  Al25  1  0.44513737  0.76235371  0.31611222  1
  Al  Al26  1  0.11119567  0.75653644  0.88658484  1
  Al  Al27  1  0.21727592  0.87459109  0.58509988  1
  Al  Al28  1  0.77616030  0.77414650  0.38543811  1
  Al  Al29  1  0.88327855  0.87900428  0.12795254  1
  Al  Al30  1  0.56043115  0.87626304  0.64510269  1
  B  B31  1  0.89543998  0.19188671  0.64793780  1
  B  B32  1  0.78105529  0.09434660  0.34716266  1
  B  B33  1  0.88975014  0.88239733  0.62123713  1
  B  B34  1  0.56065386  0.87523502  0.14738023  1
  B  B35  1  0.44110859  0.75689294  0.80977460  1
  N  N36  1  0.21858001  0.20690739  0.32770759  1
  N  N37  1  0.10772564  0.10138273  0.07016089  1
  N  N38  1  0.89014695  0.20483037  0.80639410  1
  N  N39  1  0.80623991  0.07439290  0.61414371  1
  N  N40  1  0.59208730  0.19113862  0.37274400  1
  N  N41  1  0.45522934  0.06592386  0.08768412  1
  N  N42  1  0.22335327  0.20664709  0.82551741  1
  N  N43  1  0.08214698  0.11167844  0.58905194  1
  N  N44  1  0.87540260  0.19294345  0.32451983  1
  N  N45  1  0.78552610  0.09459380  0.06521311  1
  N  N46  1  0.54558418  0.20862132  0.87620443  1
  N  N47  1  0.44036858  0.09001143  0.57068631  1
  N  N48  1  0.21915666  0.54491491  0.33173582  1
  N  N49  1  0.11125528  0.42863197  0.07908499  1
  N  N50  1  0.88827219  0.54023774  0.82556178  1
  N  N51  1  0.79207960  0.39780722  0.58672901  1
  N  N52  1  0.55292775  0.54739528  0.38733930  1
  N  N53  1  0.45457623  0.42628390  0.13174299  1
  N  N54  1  0.21620208  0.54067002  0.82465095  1
  N  N55  1  0.10781500  0.42814387  0.57508379  1
  N  N56  1  0.88584425  0.54127417  0.33032938  1
  N  N57  1  0.78267095  0.42504214  0.06896872  1
  N  N58  1  0.53799089  0.56457756  0.86910195  1
  N  N59  1  0.44649083  0.41862459  0.62405507  1
  N  N60  1  0.23300111  0.87176105  0.39046650  1
  N  N61  1  0.11389942  0.76052321  0.07919894  1
  N  N62  1  0.88929617  0.86103590  0.83721256  1
  N  N63  1  0.78596947  0.78110700  0.57734206  1
  N  N64  1  0.56429629  0.87939930  0.30900732  1
  N  N65  1  0.45705207  0.77029584  0.13042114  1
  N  N66  1  0.25181389  0.85784294  0.86724888  1
  N  N67  1  0.07762292  0.77511067  0.58202323  1
  N  N68  1  0.87722528  0.90439403  0.32209184  1
  N  N69  1  0.75153931  0.77356058  0.08793947  1
  N  N70  1  0.54623480  0.85831488  0.82962231  1
  N  N71  1  0.43893491  0.75433200  0.64870887  1
