# generated using pymatgen
data_Al31B5N36
_symmetry_space_group_name_H-M   'P 1'
_cell_length_a   9.16037548
_cell_length_b   9.20496117
_cell_length_c   10.16403483
_cell_angle_alpha   89.63771001
_cell_angle_beta   89.45463143
_cell_angle_gamma   60.06809209
_symmetry_Int_Tables_number   1
_chemical_formula_structural   Al31B5N36
_chemical_formula_sum   'Al31 B5 N36'
_cell_volume   742.69277860
_cell_formula_units_Z   1
loop_
 _symmetry_equiv_pos_site_id
 _symmetry_equiv_pos_as_xyz
  1  'x, y, z'
loop_
 _atom_site_type_symbol
 _atom_site_label
 _atom_site_symmetry_multiplicity
 _atom_site_fract_x
 _atom_site_fract_y
 _atom_site_fract_z
 _atom_site_occupancy
  Al  Al0  1  0.09659842  0.10441099  0.39349061  1
  Al  Al1  1  0.22226854  0.19683932  0.13608809  1
  Al  Al2  1  0.77790833  0.08486938  0.80889216  1
  Al  Al3  1  0.44617681  0.09049375  0.37399074  1
  Al  Al4  1  0.55931844  0.20340963  0.07415256  1
  Al  Al5  1  0.11214538  0.09659922  0.87583288  1
  Al  Al6  1  0.22603742  0.20531455  0.63761915  1
  Al  Al7  1  0.88695387  0.20790027  0.13954802  1
  Al  Al8  1  0.44542642  0.07998211  0.89364535  1
  Al  Al9  1  0.57568128  0.18758813  0.55845090  1
  Al  Al10  1  0.11076106  0.42729395  0.38506686  1
  Al  Al11  1  0.22269177  0.53973422  0.10956192  1
  Al  Al12  1  0.77811370  0.43273151  0.87735545  1
  Al  Al13  1  0.89478221  0.54220719  0.63915742  1
  Al  Al14  1  0.45924355  0.42405435  0.32132968  1
  Al  Al15  1  0.54672903  0.55463839  0.05964786  1
  Al  Al16  1  0.11269567  0.42854319  0.88842583  1
  Al  Al17  1  0.22223995  0.54064062  0.58916618  1
  Al  Al18  1  0.78805593  0.41690590  0.39245685  1
  Al  Al19  1  0.87851682  0.54181072  0.13937835  1
  Al  Al20  1  0.44848922  0.42657397  0.81599167  1
  Al  Al21  1  0.55446602  0.53656910  0.57761355  1
  Al  Al22  1  0.10590407  0.77701374  0.32162995  1
  Al  Al23  1  0.23568961  0.86594841  0.05813658  1
  Al  Al24  1  0.76459441  0.76274084  0.89694695  1
  Al  Al25  1  0.44421630  0.76272150  0.31771393  1
  Al  Al26  1  0.10684002  0.76395277  0.82075306  1
  Al  Al27  1  0.20719626  0.87557538  0.58024637  1
  Al  Al28  1  0.78032346  0.77199015  0.37930650  1
  Al  Al29  1  0.88465819  0.87689177  0.08655493  1
  Al  Al30  1  0.55995917  0.87444723  0.63962564  1
  B  B31  1  0.91519095  0.23562803  0.65179591  1
  B  B32  1  0.77501873  0.08913568  0.30681154  1
  B  B33  1  0.88022337  0.86661475  0.59640123  1
  B  B34  1  0.55893813  0.87274840  0.14628842  1
  B  B35  1  0.43926950  0.75758036  0.80678776  1
  N  N36  1  0.21764516  0.20542582  0.32235421  1
  N  N37  1  0.10219076  0.09953227  0.06426965  1
  N  N38  1  0.89246514  0.21517968  0.79839573  1
  N  N39  1  0.77700446  0.04082180  0.63307388  1
  N  N40  1  0.58526726  0.19469883  0.36938503  1
  N  N41  1  0.45319476  0.06554116  0.08481769  1
  N  N42  1  0.22795547  0.20623587  0.82401931  1
  N  N43  1  0.08092354  0.11806187  0.58775243  1
  N  N44  1  0.88021724  0.20025784  0.32554491  1
  N  N45  1  0.76828793  0.09402333  0.14734164  1
  N  N46  1  0.56225125  0.20690930  0.88548561  1
  N  N47  1  0.43783706  0.08437199  0.56232968  1
  N  N48  1  0.22619263  0.54396156  0.36405926  1
  N  N49  1  0.10813719  0.42579372  0.07843438  1
  N  N50  1  0.89008100  0.54588120  0.82497998  1
  N  N51  1  0.79912012  0.40352333  0.58738255  1
  N  N52  1  0.55509526  0.54692265  0.38957546  1
  N  N53  1  0.45210330  0.42870528  0.13194422  1
  N  N54  1  0.22411620  0.54014704  0.85185969  1
  N  N55  1  0.11154195  0.42222068  0.57340673  1
  N  N56  1  0.88727088  0.54056882  0.32628497  1
  N  N57  1  0.78113661  0.42243554  0.06622280  1
  N  N58  1  0.53888474  0.56851576  0.86689659  1
  N  N59  1  0.45568799  0.41054832  0.62725739  1
  N  N60  1  0.22802842  0.87221298  0.39257081  1
  N  N61  1  0.11646969  0.76714585  0.13116570  1
  N  N62  1  0.89124049  0.87865159  0.89604884  1
  N  N63  1  0.78792079  0.76260651  0.57176217  1
  N  N64  1  0.56423963  0.87737488  0.30572363  1
  N  N65  1  0.45180402  0.77133173  0.13000912  1
  N  N66  1  0.24836612  0.85764116  0.86462312  1
  N  N67  1  0.07379123  0.77455166  0.62760080  1
  N  N68  1  0.87740114  0.90344576  0.35108369  1
  N  N69  1  0.74742789  0.76943152  0.08615141  1
  N  N70  1  0.54715365  0.86241516  0.82475783  1
  N  N71  1  0.43355451  0.75532307  0.64726347  1
