# generated using pymatgen
data_Al31B5N36
_symmetry_space_group_name_H-M   'P 1'
_cell_length_a   9.17597110
_cell_length_b   9.17245650
_cell_length_c   10.03221352
_cell_angle_alpha   89.49488057
_cell_angle_beta   89.29793263
_cell_angle_gamma   60.02557741
_symmetry_Int_Tables_number   1
_chemical_formula_structural   Al31B5N36
_chemical_formula_sum   'Al31 B5 N36'
_cell_volume   731.37862940
_cell_formula_units_Z   1
loop_
 _symmetry_equiv_pos_site_id
 _symmetry_equiv_pos_as_xyz
  1  'x, y, z'
loop_
 _atom_site_type_symbol
 _atom_site_label
 _atom_site_symmetry_multiplicity
 _atom_site_fract_x
 _atom_site_fract_y
 _atom_site_fract_z
 _atom_site_occupancy
  Al  Al0  1  0.10034178  0.09436228  0.40317387  1
  Al  Al1  1  0.22603376  0.19885189  0.14795742  1
  Al  Al2  1  0.78117087  0.09060810  0.85887307  1
  Al  Al3  1  0.44865997  0.09123430  0.39187049  1
  Al  Al4  1  0.55800870  0.20374048  0.07007626  1
  Al  Al5  1  0.11500724  0.08989427  0.89335527  1
  Al  Al6  1  0.21862974  0.20706565  0.64652237  1
  Al  Al7  1  0.88567416  0.20294840  0.13822213  1
  Al  Al8  1  0.43891606  0.07863801  0.89922968  1
  Al  Al9  1  0.57982924  0.19724706  0.58218929  1
  Al  Al10  1  0.11064912  0.42905506  0.39761985  1
  Al  Al11  1  0.21525448  0.54288961  0.14749373  1
  Al  Al12  1  0.78055115  0.42717670  0.88765722  1
  Al  Al13  1  0.88674851  0.53962138  0.64578642  1
  Al  Al14  1  0.46010999  0.41975201  0.32405362  1
  Al  Al15  1  0.54658728  0.55723741  0.07875803  1
  Al  Al16  1  0.11069067  0.42652861  0.89813543  1
  Al  Al17  1  0.20839403  0.54675336  0.64545795  1
  Al  Al18  1  0.78896673  0.41163336  0.39864758  1
  Al  Al19  1  0.87891976  0.54440984  0.14760789  1
  Al  Al20  1  0.44695747  0.42925459  0.82230221  1
  Al  Al21  1  0.55365537  0.53746276  0.57320983  1
  Al  Al22  1  0.09949829  0.77269847  0.40251589  1
  Al  Al23  1  0.22422762  0.87540135  0.14963492  1
  Al  Al24  1  0.76947560  0.76030371  0.89625250  1
  Al  Al25  1  0.44685964  0.76591175  0.36488207  1
  Al  Al26  1  0.11513814  0.75791449  0.89447033  1
  Al  Al27  1  0.21852808  0.87518759  0.64220598  1
  Al  Al28  1  0.77595535  0.77386637  0.39802785  1
  Al  Al29  1  0.87995186  0.87965032  0.14049901  1
  Al  Al30  1  0.55626699  0.87333743  0.64241983  1
  B  B31  1  0.89658719  0.19473440  0.65614687  1
  B  B32  1  0.78015854  0.09392885  0.35679172  1
  B  B33  1  0.89518755  0.87912857  0.65724085  1
  B  B34  1  0.55526714  0.87351804  0.15528685  1
  B  B35  1  0.44277332  0.75948833  0.85532700  1
  N  N36  1  0.21948697  0.20450764  0.33810071  1
  N  N37  1  0.11066823  0.09462800  0.08206218  1
  N  N38  1  0.89642312  0.20714592  0.81740581  1
  N  N39  1  0.80477081  0.08063427  0.63344371  1
  N  N40  1  0.59192457  0.19070632  0.38079493  1
  N  N41  1  0.45592167  0.06673872  0.09379578  1
  N  N42  1  0.22247543  0.20442829  0.83539121  1
  N  N43  1  0.08677723  0.10614452  0.59483365  1
  N  N44  1  0.87566627  0.18950694  0.33216696  1
  N  N45  1  0.78901556  0.08927689  0.06545068  1
  N  N46  1  0.54583975  0.20765777  0.87820521  1
  N  N47  1  0.44314851  0.09559402  0.58308731  1
  N  N48  1  0.21772939  0.54562605  0.34034436  1
  N  N49  1  0.10968327  0.42693930  0.08791988  1
  N  N50  1  0.88880069  0.54020301  0.83422897  1
  N  N51  1  0.79394003  0.39699387  0.59336869  1
  N  N52  1  0.56057876  0.53403956  0.38169853  1
  N  N53  1  0.45130544  0.42490745  0.13350308  1
  N  N54  1  0.21581961  0.54043491  0.83566149  1
  N  N55  1  0.10887080  0.42829613  0.58450481  1
  N  N56  1  0.88600993  0.54200698  0.33869711  1
  N  N57  1  0.78092511  0.42477968  0.07957480  1
  N  N58  1  0.53538047  0.57058126  0.87843822  1
  N  N59  1  0.44726506  0.42513602  0.63234164  1
  N  N60  1  0.21379252  0.87729251  0.33969926  1
  N  N61  1  0.11087687  0.76317335  0.08396104  1
  N  N62  1  0.89361309  0.85992867  0.82004035  1
  N  N63  1  0.78674849  0.77725622  0.59074171  1
  N  N64  1  0.56416061  0.87886080  0.31846075  1
  N  N65  1  0.45740227  0.77551688  0.13327856  1
  N  N66  1  0.25079289  0.85616054  0.83614282  1
  N  N67  1  0.08477902  0.77745835  0.59468761  1
  N  N68  1  0.87427353  0.90394830  0.33409967  1
  N  N69  1  0.75370298  0.77428555  0.09028650  1
  N  N70  1  0.54023639  0.85340159  0.83445783  1
  N  N71  1  0.44001277  0.77239467  0.57414906  1
