# generated using pymatgen
data_Al31B5N36
_symmetry_space_group_name_H-M   'P 1'
_cell_length_a   9.20788472
_cell_length_b   9.26271622
_cell_length_c   9.91828552
_cell_angle_alpha   89.73728559
_cell_angle_beta   89.67103731
_cell_angle_gamma   60.02041503
_symmetry_Int_Tables_number   1
_chemical_formula_structural   Al31B5N36
_chemical_formula_sum   'Al31 B5 N36'
_cell_volume   732.73470858
_cell_formula_units_Z   1
loop_
 _symmetry_equiv_pos_site_id
 _symmetry_equiv_pos_as_xyz
  1  'x, y, z'
loop_
 _atom_site_type_symbol
 _atom_site_label
 _atom_site_symmetry_multiplicity
 _atom_site_fract_x
 _atom_site_fract_y
 _atom_site_fract_z
 _atom_site_occupancy
  Al  Al0  1  0.10856179  0.08892236  0.32318522  1
  Al  Al1  1  0.22718673  0.19396956  0.07927177  1
  Al  Al2  1  0.78215554  0.08885328  0.82551166  1
  Al  Al3  1  0.45620785  0.08236331  0.32990810  1
  Al  Al4  1  0.56099648  0.20018717  0.07652002  1
  Al  Al5  1  0.10579461  0.09372327  0.81878964  1
  Al  Al6  1  0.21766858  0.19955773  0.56951641  1
  Al  Al7  1  0.88303712  0.21451158  0.07577023  1
  Al  Al8  1  0.43985356  0.09317166  0.81976152  1
  Al  Al9  1  0.57012389  0.19613327  0.56582231  1
  Al  Al10  1  0.11092498  0.43115968  0.38587628  1
  Al  Al11  1  0.22731403  0.54208234  0.07399253  1
  Al  Al12  1  0.76779330  0.43329665  0.80951448  1
  Al  Al13  1  0.89572729  0.55521345  0.64356423  1
  Al  Al14  1  0.45612416  0.42287199  0.31897096  1
  Al  Al15  1  0.56204249  0.54849325  0.06841188  1
  Al  Al16  1  0.10090412  0.43088922  0.89392513  1
  Al  Al17  1  0.22560104  0.54097628  0.57633955  1
  Al  Al18  1  0.78382529  0.42032165  0.38818571  1
  Al  Al19  1  0.87887700  0.54556524  0.15509059  1
  Al  Al20  1  0.44488438  0.43000126  0.82382191  1
  Al  Al21  1  0.54581902  0.54780083  0.57896676  1
  Al  Al22  1  0.11138145  0.76542698  0.31767447  1
  Al  Al23  1  0.23359084  0.87367979  0.06609924  1
  Al  Al24  1  0.75805182  0.76523450  0.89794393  1
  Al  Al25  1  0.45189329  0.76055438  0.32940329  1
  Al  Al26  1  0.10811930  0.76304220  0.83179361  1
  Al  Al27  1  0.21324341  0.87055545  0.57347833  1
  Al  Al28  1  0.78281144  0.77519804  0.40063676  1
  Al  Al29  1  0.88284809  0.88059161  0.10516081  1
  Al  Al30  1  0.55465548  0.87216975  0.61028299  1
  B  B31  1  0.91727757  0.13526250  0.55325210  1
  B  B32  1  0.77554420  0.08790153  0.31367668  1
  B  B33  1  0.89765768  0.87073742  0.61205005  1
  B  B34  1  0.55522195  0.87137813  0.11469820  1
  B  B35  1  0.43845467  0.76509271  0.81077685  1
  N  N36  1  0.22536627  0.19870364  0.37488346  1
  N  N37  1  0.10765368  0.09188208  0.13332323  1
  N  N38  1  0.88161418  0.21150839  0.88086604  1
  N  N39  1  0.81079267  0.06561643  0.62319321  1
  N  N40  1  0.58314868  0.18958970  0.37292255  1
  N  N41  1  0.46195730  0.06293503  0.13189672  1
  N  N42  1  0.21993748  0.19926592  0.88245890  1
  N  N43  1  0.08105381  0.10017956  0.62105618  1
  N  N44  1  0.88689510  0.17776416  0.40351126  1
  N  N45  1  0.77406219  0.10808345  0.15259463  1
  N  N46  1  0.55694154  0.20170712  0.88314655  1
  N  N47  1  0.43908664  0.10522864  0.62889623  1
  N  N48  1  0.23023153  0.54333604  0.38072954  1
  N  N49  1  0.10569136  0.43058090  0.09461536  1
  N  N50  1  0.88542992  0.54786724  0.83481308  1
  N  N51  1  0.77144657  0.44908815  0.61225364  1
  N  N52  1  0.55169661  0.54141277  0.38860438  1
  N  N53  1  0.44916622  0.42811659  0.12801120  1
  N  N54  1  0.22349991  0.54006443  0.87949850  1
  N  N55  1  0.11080735  0.42697019  0.58590513  1
  N  N56  1  0.88659165  0.55027599  0.34662739  1
  N  N57  1  0.77343894  0.42690406  0.13724083  1
  N  N58  1  0.54070476  0.56691156  0.87267591  1
  N  N59  1  0.45138640  0.41937485  0.63291490  1
  N  N60  1  0.22583140  0.86867414  0.38455263  1
  N  N61  1  0.12193815  0.76161707  0.12734716  1
  N  N62  1  0.88647408  0.87618099  0.89868366  1
  N  N63  1  0.79969136  0.78534020  0.59667677  1
  N  N64  1  0.55265723  0.87042636  0.40459043  1
  N  N65  1  0.45905189  0.77853089  0.13369001  1
  N  N66  1  0.24228854  0.86394568  0.87257537  1
  N  N67  1  0.08525882  0.77177765  0.63358719  1
  N  N68  1  0.87671744  0.89547365  0.33358670  1
  N  N69  1  0.74183952  0.77568812  0.09550757  1
  N  N70  1  0.54174241  0.85954126  0.82998569  1
  N  N71  1  0.42533145  0.76354107  0.64921261  1
