# generated using pymatgen
data_Al31B5N36
_symmetry_space_group_name_H-M   'P 1'
_cell_length_a   9.18185589
_cell_length_b   9.17744900
_cell_length_c   10.05802171
_cell_angle_alpha   89.57364648
_cell_angle_beta   89.41641411
_cell_angle_gamma   60.05642238
_symmetry_Int_Tables_number   1
_chemical_formula_structural   Al31B5N36
_chemical_formula_sum   'Al31 B5 N36'
_cell_volume   734.37545742
_cell_formula_units_Z   1
loop_
 _symmetry_equiv_pos_site_id
 _symmetry_equiv_pos_as_xyz
  1  'x, y, z'
loop_
 _atom_site_type_symbol
 _atom_site_label
 _atom_site_symmetry_multiplicity
 _atom_site_fract_x
 _atom_site_fract_y
 _atom_site_fract_z
 _atom_site_occupancy
  Al  Al0  1  0.10231873  0.09434224  0.39667342  1
  Al  Al1  1  0.22593368  0.20032150  0.14074876  1
  Al  Al2  1  0.77959543  0.09136446  0.85190918  1
  Al  Al3  1  0.44813422  0.08996764  0.38173309  1
  Al  Al4  1  0.55853987  0.20541271  0.06391907  1
  Al  Al5  1  0.11119540  0.09538907  0.88085939  1
  Al  Al6  1  0.21920331  0.20650500  0.63825926  1
  Al  Al7  1  0.88539765  0.20480586  0.13081127  1
  Al  Al8  1  0.43941937  0.07841584  0.89283056  1
  Al  Al9  1  0.57964661  0.19350209  0.57222332  1
  Al  Al10  1  0.11037399  0.42961677  0.38932251  1
  Al  Al11  1  0.21692561  0.54288210  0.14124123  1
  Al  Al12  1  0.77896148  0.42829445  0.87708638  1
  Al  Al13  1  0.88673994  0.53874615  0.63832367  1
  Al  Al14  1  0.46017902  0.42349387  0.32061819  1
  Al  Al15  1  0.54681429  0.55506610  0.05950299  1
  Al  Al16  1  0.11094956  0.42727373  0.89013803  1
  Al  Al17  1  0.20805119  0.54473829  0.63714674  1
  Al  Al18  1  0.78695874  0.41420450  0.39356034  1
  Al  Al19  1  0.87981443  0.54393172  0.13928385  1
  Al  Al20  1  0.44778984  0.42701250  0.81252113  1
  Al  Al21  1  0.55314417  0.53547916  0.57337425  1
  Al  Al22  1  0.10241199  0.77332316  0.39669235  1
  Al  Al23  1  0.22769711  0.87457028  0.10548099  1
  Al  Al24  1  0.76764148  0.76162030  0.88923980  1
  Al  Al25  1  0.44924474  0.76088581  0.31538531  1
  Al  Al26  1  0.11171717  0.75785748  0.88285394  1
  Al  Al27  1  0.20833056  0.87829213  0.63820449  1
  Al  Al28  1  0.77742255  0.77296009  0.38986922  1
  Al  Al29  1  0.88138483  0.88049641  0.13405714  1
  Al  Al30  1  0.56105263  0.87424638  0.64188187  1
  B  B31  1  0.89425928  0.19687372  0.64860337  1
  B  B32  1  0.78104378  0.09459141  0.34913356  1
  B  B33  1  0.89372442  0.87925283  0.65048834  1
  B  B34  1  0.56123845  0.87657068  0.14482108  1
  B  B35  1  0.44497445  0.75477338  0.80492277  1
  N  N36  1  0.21921667  0.20576567  0.32942140  1
  N  N37  1  0.10878295  0.10044597  0.07099486  1
  N  N38  1  0.89297678  0.20896231  0.80862438  1
  N  N39  1  0.80334838  0.07958503  0.62543597  1
  N  N40  1  0.59226733  0.19134712  0.37250219  1
  N  N41  1  0.45657836  0.06714001  0.08767290  1
  N  N42  1  0.22345826  0.20596573  0.82648093  1
  N  N43  1  0.08504290  0.10802651  0.58855826  1
  N  N44  1  0.87531983  0.19161553  0.32468790  1
  N  N45  1  0.78983560  0.08957637  0.05873392  1
  N  N46  1  0.54506111  0.20859342  0.87331796  1
  N  N47  1  0.44253259  0.08989427  0.57148197  1
  N  N48  1  0.21756341  0.54667581  0.33320717  1
  N  N49  1  0.11093519  0.42778907  0.08003081  1
  N  N50  1  0.88883307  0.54087859  0.82650488  1
  N  N51  1  0.79357471  0.39519787  0.58642732  1
  N  N52  1  0.55493868  0.54567919  0.38401790  1
  N  N53  1  0.45349725  0.42661188  0.12945132  1
  N  N54  1  0.21622866  0.53979751  0.82619979  1
  N  N55  1  0.10805642  0.42716818  0.57560482  1
  N  N56  1  0.88569642  0.54157796  0.33008141  1
  N  N57  1  0.78090600  0.42582499  0.07028160  1
  N  N58  1  0.53641740  0.56667559  0.86715626  1
  N  N59  1  0.44650875  0.41917766  0.62235403  1
  N  N60  1  0.22433553  0.87390787  0.35030143  1
  N  N61  1  0.10950909  0.76112010  0.07355999  1
  N  N62  1  0.89031205  0.86106536  0.81200223  1
  N  N63  1  0.78567588  0.77423066  0.58079786  1
  N  N64  1  0.56686595  0.87816548  0.30841960  1
  N  N65  1  0.45924158  0.77182742  0.12509790  1
  N  N66  1  0.23978142  0.86302030  0.83606967  1
  N  N67  1  0.08126810  0.77596102  0.58866060  1
  N  N68  1  0.87640016  0.90435544  0.32696485  1
  N  N69  1  0.75452275  0.77531255  0.08364448  1
  N  N70  1  0.54428076  0.85887660  0.82904719  1
  N  N71  1  0.44558027  0.75142057  0.64176949  1
