# generated using pymatgen
data_Al31B5N36
_symmetry_space_group_name_H-M   'P 1'
_cell_length_a   9.17415294
_cell_length_b   9.20882811
_cell_length_c   10.18696491
_cell_angle_alpha   89.52768836
_cell_angle_beta   89.22327696
_cell_angle_gamma   59.88378526
_symmetry_Int_Tables_number   1
_chemical_formula_structural   Al31B5N36
_chemical_formula_sum   'Al31 B5 N36'
_cell_volume   744.38137496
_cell_formula_units_Z   1
loop_
 _symmetry_equiv_pos_site_id
 _symmetry_equiv_pos_as_xyz
  1  'x, y, z'
loop_
 _atom_site_type_symbol
 _atom_site_label
 _atom_site_symmetry_multiplicity
 _atom_site_fract_x
 _atom_site_fract_y
 _atom_site_fract_z
 _atom_site_occupancy
  Al  Al0  1  0.09649665  0.10152941  0.39279938  1
  Al  Al1  1  0.22232887  0.19684454  0.13674637  1
  Al  Al2  1  0.78105852  0.08562491  0.81023981  1
  Al  Al3  1  0.44618310  0.08815702  0.38746889  1
  Al  Al4  1  0.55771263  0.20439156  0.06878433  1
  Al  Al5  1  0.11161759  0.09751123  0.87705873  1
  Al  Al6  1  0.22263288  0.21005150  0.63983928  1
  Al  Al7  1  0.88595838  0.20946896  0.13985498  1
  Al  Al8  1  0.44654593  0.08153473  0.88102773  1
  Al  Al9  1  0.57839058  0.19135794  0.56227475  1
  Al  Al10  1  0.11051910  0.42407092  0.38400288  1
  Al  Al11  1  0.22614318  0.54266513  0.06991362  1
  Al  Al12  1  0.77736309  0.43450043  0.87826628  1
  Al  Al13  1  0.89652201  0.54148731  0.64040609  1
  Al  Al14  1  0.45489002  0.42159693  0.31772295  1
  Al  Al15  1  0.54679044  0.55405987  0.06162664  1
  Al  Al16  1  0.10937209  0.42697787  0.89067260  1
  Al  Al17  1  0.22354211  0.54288815  0.56687413  1
  Al  Al18  1  0.78645781  0.41510717  0.39161843  1
  Al  Al19  1  0.87747099  0.54247081  0.14073805  1
  Al  Al20  1  0.44636142  0.43090348  0.81551997  1
  Al  Al21  1  0.55244651  0.53830636  0.57520656  1
  Al  Al22  1  0.10800884  0.77013367  0.31575251  1
  Al  Al23  1  0.23449885  0.86817651  0.05920706  1
  Al  Al24  1  0.76645110  0.76576134  0.89015218  1
  Al  Al25  1  0.44602126  0.76265571  0.32469349  1
  Al  Al26  1  0.11067626  0.76276574  0.82449967  1
  Al  Al27  1  0.20724420  0.87502161  0.58024096  1
  Al  Al28  1  0.78302446  0.76866606  0.38862451  1
  Al  Al29  1  0.88301771  0.87701903  0.09700545  1
  Al  Al30  1  0.55853246  0.87366870  0.62155062  1
  B  B31  1  0.91459080  0.23500788  0.65139290  1
  B  B32  1  0.77094403  0.08802284  0.30167980  1
  B  B33  1  0.88644357  0.86346865  0.61019870  1
  B  B34  1  0.55199110  0.87105477  0.10565794  1
  B  B35  1  0.44157178  0.76011855  0.80463767  1
  N  N36  1  0.22168064  0.20073076  0.32302386  1
  N  N37  1  0.10160482  0.10081060  0.06530263  1
  N  N38  1  0.89291946  0.21700612  0.79935085  1
  N  N39  1  0.78559554  0.04292249  0.63273999  1
  N  N40  1  0.58549308  0.19147546  0.37006383  1
  N  N41  1  0.45403088  0.06056861  0.07749003  1
  N  N42  1  0.22473697  0.20892371  0.82510564  1
  N  N43  1  0.08206113  0.11811572  0.58762187  1
  N  N44  1  0.88047552  0.19747467  0.32493465  1
  N  N45  1  0.76364449  0.10067450  0.14299259  1
  N  N46  1  0.56129624  0.20847065  0.88141913  1
  N  N47  1  0.43657759  0.09945021  0.57594703  1
  N  N48  1  0.22657360  0.54341621  0.37707173  1
  N  N49  1  0.10669598  0.42584946  0.08013240  1
  N  N50  1  0.89106953  0.54572190  0.82562009  1
  N  N51  1  0.79779912  0.40457175  0.58713686  1
  N  N52  1  0.55321370  0.54043665  0.38627116  1
  N  N53  1  0.44719278  0.42952368  0.12963280  1
  N  N54  1  0.22730457  0.54162702  0.88015985  1
  N  N55  1  0.11067127  0.42389344  0.57349388  1
  N  N56  1  0.88709191  0.53916114  0.32702775  1
  N  N57  1  0.78020790  0.42428356  0.06717564  1
  N  N58  1  0.53858339  0.57051549  0.86834956  1
  N  N59  1  0.44991001  0.41768171  0.62961716  1
  N  N60  1  0.22284914  0.86882204  0.39141402  1
  N  N61  1  0.12197646  0.76199285  0.12797952  1
  N  N62  1  0.89278333  0.87917422  0.89874067  1
  N  N63  1  0.79951175  0.76337688  0.58133881  1
  N  N64  1  0.55839616  0.86398394  0.37455402  1
  N  N65  1  0.45452848  0.77709449  0.13063824  1
  N  N66  1  0.25029919  0.85891477  0.86608526  1
  N  N67  1  0.08081182  0.76947323  0.63442240  1
  N  N68  1  0.87494548  0.89530875  0.32819847  1
  N  N69  1  0.74050702  0.77166173  0.08252800  1
  N  N70  1  0.54937473  0.86206364  0.81732044  1
  N  N71  1  0.43303802  0.75626436  0.64627211  1
