# generated using pymatgen
data_Al31B5N36
_symmetry_space_group_name_H-M   'P 1'
_cell_length_a   9.18637771
_cell_length_b   9.18349253
_cell_length_c   9.96567403
_cell_angle_alpha   89.83114751
_cell_angle_beta   89.39312930
_cell_angle_gamma   59.94318379
_symmetry_Int_Tables_number   1
_chemical_formula_structural   Al31B5N36
_chemical_formula_sum   'Al31 B5 N36'
_cell_volume   727.63668169
_cell_formula_units_Z   1
loop_
 _symmetry_equiv_pos_site_id
 _symmetry_equiv_pos_as_xyz
  1  'x, y, z'
loop_
 _atom_site_type_symbol
 _atom_site_label
 _atom_site_symmetry_multiplicity
 _atom_site_fract_x
 _atom_site_fract_y
 _atom_site_fract_z
 _atom_site_occupancy
  Al  Al0  1  0.09933037  0.09493065  0.40510205  1
  Al  Al1  1  0.22592760  0.19945665  0.15124030  1
  Al  Al2  1  0.78189830  0.09101913  0.86317140  1
  Al  Al3  1  0.44825930  0.08835677  0.39188095  1
  Al  Al4  1  0.55822170  0.20376764  0.07438460  1
  Al  Al5  1  0.11411957  0.09105432  0.89745370  1
  Al  Al6  1  0.21882842  0.20658062  0.64973000  1
  Al  Al7  1  0.88643663  0.20250986  0.14301787  1
  Al  Al8  1  0.43910035  0.07883029  0.90248122  1
  Al  Al9  1  0.57974928  0.19649260  0.58499446  1
  Al  Al10  1  0.10770013  0.42949048  0.40148840  1
  Al  Al11  1  0.21574404  0.54292928  0.15095425  1
  Al  Al12  1  0.77410482  0.43151988  0.89483466  1
  Al  Al13  1  0.88810834  0.54085701  0.65013835  1
  Al  Al14  1  0.45348444  0.41893219  0.33568726  1
  Al  Al15  1  0.55938314  0.54936213  0.14598323  1
  Al  Al16  1  0.10965980  0.42705470  0.90123511  1
  Al  Al17  1  0.20958654  0.54670062  0.64663404  1
  Al  Al18  1  0.77777658  0.41812135  0.40542223  1
  Al  Al19  1  0.88135953  0.54416280  0.15099042  1
  Al  Al20  1  0.44402933  0.42620731  0.82895518  1
  Al  Al21  1  0.56073277  0.54273461  0.64281382  1
  Al  Al22  1  0.09864565  0.77467014  0.40503214  1
  Al  Al23  1  0.22900139  0.87291746  0.14731349  1
  Al  Al24  1  0.77030021  0.76155877  0.89943183  1
  Al  Al25  1  0.44502643  0.76487121  0.39024845  1
  Al  Al26  1  0.11586501  0.75881681  0.89834581  1
  Al  Al27  1  0.21912094  0.87476990  0.65024619  1
  Al  Al28  1  0.77341193  0.77358860  0.39879677  1
  Al  Al29  1  0.88013401  0.88040757  0.14375488  1
  Al  Al30  1  0.55797927  0.87427869  0.64847794  1
  B  B31  1  0.89741190  0.19247339  0.66099891  1
  B  B32  1  0.77945954  0.09437549  0.36114513  1
  B  B33  1  0.89612203  0.87949310  0.66068668  1
  B  B34  1  0.55398991  0.87213251  0.14937888  1
  B  B35  1  0.44694050  0.76030157  0.87849465  1
  N  N36  1  0.21850034  0.20501743  0.34185903  1
  N  N37  1  0.11042338  0.09527983  0.08711517  1
  N  N38  1  0.89518662  0.20920393  0.82189752  1
  N  N39  1  0.80517129  0.08099208  0.63639469  1
  N  N40  1  0.59111698  0.18910015  0.38411423  1
  N  N41  1  0.45616018  0.06712691  0.09751713  1
  N  N42  1  0.22246083  0.20451888  0.83929823  1
  N  N43  1  0.08729637  0.10498964  0.59850684  1
  N  N44  1  0.87323438  0.19110817  0.33812672  1
  N  N45  1  0.78914716  0.08977897  0.06914891  1
  N  N46  1  0.54669140  0.20561428  0.88081477  1
  N  N47  1  0.44321997  0.09356047  0.58489761  1
  N  N48  1  0.21406834  0.54704293  0.34615963  1
  N  N49  1  0.11018080  0.42692807  0.09188146  1
  N  N50  1  0.88798517  0.54014894  0.83968571  1
  N  N51  1  0.79072880  0.40109215  0.59684662  1
  N  N52  1  0.56163995  0.54104434  0.34170422  1
  N  N53  1  0.44890549  0.42207025  0.13811624  1
  N  N54  1  0.21467352  0.54091457  0.83883854  1
  N  N55  1  0.10909550  0.42762164  0.58896284  1
  N  N56  1  0.88408567  0.54151592  0.34338293  1
  N  N57  1  0.78016613  0.42539278  0.08514953  1
  N  N58  1  0.54277164  0.56775195  0.84272200  1
  N  N59  1  0.44714593  0.42457730  0.63005541  1
  N  N60  1  0.21878784  0.87494555  0.34052751  1
  N  N61  1  0.11019011  0.76312949  0.08861059  1
  N  N62  1  0.89468706  0.86039581  0.82329940  1
  N  N63  1  0.78710667  0.77765240  0.59323579  1
  N  N64  1  0.55779549  0.87278369  0.31738685  1
  N  N65  1  0.45800887  0.77590882  0.09600326  1
  N  N66  1  0.25078467  0.85730491  0.84351586  1
  N  N67  1  0.08572383  0.77822079  0.59807993  1
  N  N68  1  0.87264453  0.90465082  0.33801304  1
  N  N69  1  0.75472067  0.77447851  0.09390882  1
  N  N70  1  0.54276500  0.85574592  0.83862545  1
  N  N71  1  0.44480268  0.76564555  0.58055643  1
