# generated using pymatgen
data_Al31B5N36
_symmetry_space_group_name_H-M   'P 1'
_cell_length_a   9.20611384
_cell_length_b   9.25518748
_cell_length_c   9.92235515
_cell_angle_alpha   89.75192363
_cell_angle_beta   89.70451819
_cell_angle_gamma   60.00901646
_symmetry_Int_Tables_number   1
_chemical_formula_structural   Al31B5N36
_chemical_formula_sum   'Al31 B5 N36'
_cell_volume   732.21689892
_cell_formula_units_Z   1
loop_
 _symmetry_equiv_pos_site_id
 _symmetry_equiv_pos_as_xyz
  1  'x, y, z'
loop_
 _atom_site_type_symbol
 _atom_site_label
 _atom_site_symmetry_multiplicity
 _atom_site_fract_x
 _atom_site_fract_y
 _atom_site_fract_z
 _atom_site_occupancy
  Al  Al0  1  0.10891223  0.08850706  0.32384392  1
  Al  Al1  1  0.22758727  0.19372204  0.07896352  1
  Al  Al2  1  0.78208335  0.08971160  0.82555487  1
  Al  Al3  1  0.45601518  0.08257638  0.33026721  1
  Al  Al4  1  0.56096540  0.19992276  0.07653635  1
  Al  Al5  1  0.10546779  0.09435062  0.81865403  1
  Al  Al6  1  0.21748352  0.19965381  0.56989246  1
  Al  Al7  1  0.88396505  0.21323746  0.07667508  1
  Al  Al8  1  0.43998047  0.09330842  0.81956609  1
  Al  Al9  1  0.57014494  0.19640976  0.56614844  1
  Al  Al10  1  0.10960622  0.43142983  0.38737474  1
  Al  Al11  1  0.22760821  0.54211690  0.07355469  1
  Al  Al12  1  0.76743103  0.43357175  0.81034551  1
  Al  Al13  1  0.89468053  0.55316207  0.64347273  1
  Al  Al14  1  0.45390453  0.42299803  0.31979087  1
  Al  Al15  1  0.56192533  0.54809645  0.07041031  1
  Al  Al16  1  0.10164970  0.43086531  0.89299511  1
  Al  Al17  1  0.22558979  0.54131288  0.57690608  1
  Al  Al18  1  0.78064680  0.41863131  0.36144859  1
  Al  Al19  1  0.88083612  0.54720936  0.15391423  1
  Al  Al20  1  0.44554653  0.43037886  0.82360006  1
  Al  Al21  1  0.55069031  0.54447759  0.57734400  1
  Al  Al22  1  0.11097060  0.76549351  0.31799535  1
  Al  Al23  1  0.23383600  0.87343110  0.06590421  1
  Al  Al24  1  0.75825064  0.76578898  0.89725084  1
  Al  Al25  1  0.45086534  0.76143375  0.32998718  1
  Al  Al26  1  0.10807853  0.76331280  0.83150649  1
  Al  Al27  1  0.21343858  0.87060419  0.57415529  1
  Al  Al28  1  0.78262492  0.77509275  0.40108859  1
  Al  Al29  1  0.88295541  0.88073030  0.10509255  1
  Al  Al30  1  0.55464735  0.87190201  0.61052218  1
  B  B31  1  0.91431882  0.14129346  0.55342797  1
  B  B32  1  0.77596283  0.08807820  0.31429236  1
  B  B33  1  0.89746781  0.87122684  0.61204271  1
  B  B34  1  0.55518090  0.87135831  0.11471974  1
  B  B35  1  0.43913391  0.76475348  0.81105332  1
  N  N36  1  0.22516419  0.19890765  0.37514110  1
  N  N37  1  0.10824451  0.09167647  0.13375241  1
  N  N38  1  0.88156689  0.21229779  0.88318954  1
  N  N39  1  0.81034114  0.06680911  0.62327387  1
  N  N40  1  0.58285589  0.18974410  0.37317714  1
  N  N41  1  0.46207723  0.06281393  0.13204838  1
  N  N42  1  0.22028162  0.19912535  0.88246390  1
  N  N43  1  0.08105275  0.10065988  0.62096256  1
  N  N44  1  0.88569949  0.17907002  0.40162508  1
  N  N45  1  0.77392245  0.10820486  0.15276858  1
  N  N46  1  0.55692366  0.20193403  0.88335780  1
  N  N47  1  0.43910658  0.10521645  0.62894394  1
  N  N48  1  0.22907676  0.54355526  0.38120593  1
  N  N49  1  0.10600920  0.43037417  0.09364852  1
  N  N50  1  0.88556920  0.54804310  0.83626634  1
  N  N51  1  0.77286473  0.44407473  0.61834919  1
  N  N52  1  0.55120537  0.54139364  0.38736544  1
  N  N53  1  0.44925194  0.42780130  0.12871766  1
  N  N54  1  0.22409059  0.54021642  0.87936062  1
  N  N55  1  0.11065518  0.42725095  0.58661800  1
  N  N56  1  0.88632331  0.55098680  0.34544235  1
  N  N57  1  0.77406342  0.42523839  0.14649509  1
  N  N58  1  0.54146094  0.56653454  0.87566516  1
  N  N59  1  0.45155775  0.41982934  0.63272787  1
  N  N60  1  0.22548727  0.86857874  0.38510935  1
  N  N61  1  0.12205104  0.76156478  0.12757597  1
  N  N62  1  0.88658919  0.87678608  0.89881607  1
  N  N63  1  0.79977771  0.78491113  0.59698113  1
  N  N64  1  0.55241637  0.87053704  0.40476256  1
  N  N65  1  0.45937889  0.77822775  0.13422489  1
  N  N66  1  0.24236579  0.86413699  0.87245397  1
  N  N67  1  0.08504230  0.77219768  0.63376683  1
  N  N68  1  0.87641640  0.89542546  0.33359203  1
  N  N69  1  0.74174664  0.77553973  0.09479701  1
  N  N70  1  0.54170433  0.85968819  0.83013271  1
  N  N71  1  0.42680483  0.76149219  0.64920184  1
