# generated using pymatgen
data_Al31B5N36
_symmetry_space_group_name_H-M   'P 1'
_cell_length_a   9.16009072
_cell_length_b   9.20476367
_cell_length_c   10.16381166
_cell_angle_alpha   89.63543763
_cell_angle_beta   89.45319630
_cell_angle_gamma   60.06452423
_symmetry_Int_Tables_number   1
_chemical_formula_structural   Al31B5N36
_chemical_formula_sum   'Al31 B5 N36'
_cell_volume   742.61060393
_cell_formula_units_Z   1
loop_
 _symmetry_equiv_pos_site_id
 _symmetry_equiv_pos_as_xyz
  1  'x, y, z'
loop_
 _atom_site_type_symbol
 _atom_site_label
 _atom_site_symmetry_multiplicity
 _atom_site_fract_x
 _atom_site_fract_y
 _atom_site_fract_z
 _atom_site_occupancy
  Al  Al0  1  0.09659997  0.10437738  0.39351131  1
  Al  Al1  1  0.22225622  0.19684491  0.13612031  1
  Al  Al2  1  0.77793515  0.08486388  0.80892743  1
  Al  Al3  1  0.44620716  0.09049193  0.37401657  1
  Al  Al4  1  0.55930003  0.20341883  0.07420481  1
  Al  Al5  1  0.11215462  0.09655080  0.87582470  1
  Al  Al6  1  0.22603848  0.20537205  0.63761547  1
  Al  Al7  1  0.88695842  0.20790344  0.13955712  1
  Al  Al8  1  0.44546036  0.07997763  0.89365965  1
  Al  Al9  1  0.57561797  0.18765466  0.55853276  1
  Al  Al10  1  0.11065463  0.42717843  0.38496535  1
  Al  Al11  1  0.22303018  0.54005828  0.10489840  1
  Al  Al12  1  0.77807443  0.43273649  0.87734509  1
  Al  Al13  1  0.89485488  0.54219978  0.63915732  1
  Al  Al14  1  0.45886389  0.42426633  0.32129321  1
  Al  Al15  1  0.54675416  0.55463561  0.05969261  1
  Al  Al16  1  0.11248443  0.42831188  0.88843813  1
  Al  Al17  1  0.22248590  0.54097255  0.58527373  1
  Al  Al18  1  0.78801755  0.41690474  0.39247752  1
  Al  Al19  1  0.87852935  0.54179556  0.13941176  1
  Al  Al20  1  0.44817522  0.42672710  0.81600455  1
  Al  Al21  1  0.55444497  0.53655231  0.57769593  1
  Al  Al22  1  0.10609326  0.77667481  0.32158419  1
  Al  Al23  1  0.23567687  0.86595887  0.05818168  1
  Al  Al24  1  0.76459883  0.76277214  0.89696711  1
  Al  Al25  1  0.44421508  0.76272378  0.31774722  1
  Al  Al26  1  0.10698043  0.76366548  0.82070698  1
  Al  Al27  1  0.20718988  0.87558457  0.58032069  1
  Al  Al28  1  0.78032285  0.77201422  0.37931975  1
  Al  Al29  1  0.88467325  0.87686977  0.08662972  1
  Al  Al30  1  0.55996017  0.87444068  0.63963114  1
  B  B31  1  0.91519866  0.23563044  0.65180467  1
  B  B32  1  0.77504204  0.08914909  0.30684168  1
  B  B33  1  0.88026063  0.86652508  0.59649894  1
  B  B34  1  0.55893970  0.87275170  0.14629281  1
  B  B35  1  0.43927392  0.75757809  0.80679791  1
  N  N36  1  0.21768374  0.20539093  0.32236465  1
  N  N37  1  0.10219054  0.09949059  0.06427522  1
  N  N38  1  0.89247598  0.21518414  0.79840710  1
  N  N39  1  0.77705966  0.04078914  0.63308765  1
  N  N40  1  0.58522390  0.19478633  0.36942205  1
  N  N41  1  0.45319474  0.06554112  0.08482465  1
  N  N42  1  0.22798574  0.20621568  0.82400608  1
  N  N43  1  0.08092665  0.11803937  0.58777045  1
  N  N44  1  0.88022449  0.20025967  0.32555150  1
  N  N45  1  0.76828389  0.09403557  0.14736482  1
  N  N46  1  0.56224246  0.20695025  0.88549245  1
  N  N47  1  0.43785671  0.08437296  0.56234587  1
  N  N48  1  0.22641405  0.54422783  0.36688777  1
  N  N49  1  0.10792811  0.42559515  0.07861014  1
  N  N50  1  0.89007656  0.54591027  0.82496475  1
  N  N51  1  0.79907852  0.40351707  0.58740298  1
  N  N52  1  0.55507638  0.54689763  0.38959178  1
  N  N53  1  0.45176380  0.42885505  0.13213766  1
  N  N54  1  0.22444184  0.54040380  0.85547067  1
  N  N55  1  0.11149370  0.42217081  0.57356518  1
  N  N56  1  0.88723716  0.54060185  0.32629651  1
  N  N57  1  0.78110002  0.42243241  0.06622848  1
  N  N58  1  0.53889341  0.56851195  0.86688162  1
  N  N59  1  0.45515064  0.41085981  0.62748304  1
  N  N60  1  0.22800689  0.87220525  0.39258438  1
  N  N61  1  0.11662303  0.76683526  0.13139394  1
  N  N62  1  0.89130546  0.87862626  0.89607425  1
  N  N63  1  0.78793497  0.76260977  0.57177483  1
  N  N64  1  0.56424181  0.87737905  0.30573033  1
  N  N65  1  0.45180852  0.77133796  0.13002727  1
  N  N66  1  0.24836341  0.85763180  0.86460885  1
  N  N67  1  0.07405019  0.77412497  0.62785022  1
  N  N68  1  0.87748518  0.90339420  0.35107587  1
  N  N69  1  0.74743046  0.76942837  0.08616227  1
  N  N70  1  0.54716932  0.86242352  0.82476667  1
  N  N71  1  0.43358203  0.75534595  0.64726504  1
