# generated using pymatgen
data_Al31B5N36
_symmetry_space_group_name_H-M   'P 1'
_cell_length_a   9.18808655
_cell_length_b   9.19127417
_cell_length_c   9.86352501
_cell_angle_alpha   90.01547858
_cell_angle_beta   89.54081830
_cell_angle_gamma   59.98926374
_symmetry_Int_Tables_number   1
_chemical_formula_structural   Al31B5N36
_chemical_formula_sum   'Al31 B5 N36'
_cell_volume   721.26911758
_cell_formula_units_Z   1
loop_
 _symmetry_equiv_pos_site_id
 _symmetry_equiv_pos_as_xyz
  1  'x, y, z'
loop_
 _atom_site_type_symbol
 _atom_site_label
 _atom_site_symmetry_multiplicity
 _atom_site_fract_x
 _atom_site_fract_y
 _atom_site_fract_z
 _atom_site_occupancy
  Al  Al0  1  0.09962952  0.09362595  0.40368845  1
  Al  Al1  1  0.22489841  0.20032013  0.15028953  1
  Al  Al2  1  0.78235087  0.09180631  0.86152449  1
  Al  Al3  1  0.44952531  0.08788638  0.38888929  1
  Al  Al4  1  0.56081104  0.19854729  0.08022030  1
  Al  Al5  1  0.11424950  0.09174270  0.89709680  1
  Al  Al6  1  0.21846409  0.20622518  0.64811320  1
  Al  Al7  1  0.88615715  0.20256994  0.14380925  1
  Al  Al8  1  0.44067345  0.08158491  0.89775792  1
  Al  Al9  1  0.57711404  0.19388391  0.60014922  1
  Al  Al10  1  0.10810596  0.42917208  0.40019930  1
  Al  Al11  1  0.22017414  0.54106214  0.15144910  1
  Al  Al12  1  0.77709206  0.43023259  0.89401865  1
  Al  Al13  1  0.88842211  0.54069658  0.64819790  1
  Al  Al14  1  0.44803364  0.42921385  0.39529988  1
  Al  Al15  1  0.55714342  0.54539464  0.14192382  1
  Al  Al16  1  0.11095386  0.42798950  0.89953525  1
  Al  Al17  1  0.21670404  0.54324278  0.64827319  1
  Al  Al18  1  0.77506170  0.41898892  0.40410480  1
  Al  Al19  1  0.88167553  0.54378584  0.15018363  1
  Al  Al20  1  0.43925856  0.43897811  0.89450225  1
  Al  Al21  1  0.55730274  0.53984414  0.65272157  1
  Al  Al22  1  0.09845058  0.77472937  0.40372385  1
  Al  Al23  1  0.22738915  0.87238195  0.14289245  1
  Al  Al24  1  0.77140633  0.76253306  0.89762394  1
  Al  Al25  1  0.44500691  0.76299871  0.39137094  1
  Al  Al26  1  0.11430102  0.76076662  0.89713450  1
  Al  Al27  1  0.22121793  0.87342404  0.65391298  1
  Al  Al28  1  0.77189037  0.77380369  0.39745458  1
  Al  Al29  1  0.88019567  0.87992264  0.14384996  1
  Al  Al30  1  0.55801638  0.87097083  0.65045983  1
  B  B31  1  0.89816886  0.19193532  0.65994858  1
  B  B32  1  0.77598559  0.09582056  0.36140948  1
  B  B33  1  0.89773817  0.87808175  0.65934632  1
  B  B34  1  0.55638332  0.87199483  0.14445795  1
  B  B35  1  0.44988855  0.76397209  0.90262203  1
  N  N36  1  0.21845388  0.20435735  0.34206939  1
  N  N37  1  0.10968736  0.09578926  0.08808057  1
  N  N38  1  0.89635700  0.20882132  0.82168227  1
  N  N39  1  0.80699793  0.07985811  0.63382996  1
  N  N40  1  0.58845258  0.18946540  0.37536990  1
  N  N41  1  0.45575169  0.06707711  0.09575154  1
  N  N42  1  0.22226658  0.20540726  0.83919661  1
  N  N43  1  0.08838049  0.10330369  0.59828945  1
  N  N44  1  0.87247504  0.19082122  0.33916094  1
  N  N45  1  0.78914969  0.08930676  0.06832451  1
  N  N46  1  0.54798346  0.20620263  0.86897964  1
  N  N47  1  0.44402459  0.09033505  0.58487226  1
  N  N48  1  0.21803620  0.54460653  0.34374811  1
  N  N49  1  0.11065062  0.42748680  0.09229041  1
  N  N50  1  0.88923643  0.54072548  0.83954967  1
  N  N51  1  0.78810734  0.40207266  0.59790925  1
  N  N52  1  0.55729234  0.54013679  0.33416772  1
  N  N53  1  0.44245779  0.43251925  0.09138586  1
  N  N54  1  0.22033968  0.53995453  0.83812219  1
  N  N55  1  0.11065991  0.42785599  0.58941444  1
  N  N56  1  0.88326414  0.54153220  0.34396974  1
  N  N57  1  0.78080137  0.42463832  0.08602963  1
  N  N58  1  0.54410242  0.56591161  0.84768694  1
  N  N59  1  0.44404438  0.43092976  0.59086296  1
  N  N60  1  0.22066442  0.87307237  0.33744172  1
  N  N61  1  0.10801606  0.76227948  0.08913942  1
  N  N62  1  0.89504448  0.86086903  0.82252278  1
  N  N63  1  0.78647553  0.77753224  0.59288661  1
  N  N64  1  0.55534257  0.87008070  0.31262451  1
  N  N65  1  0.45694721  0.77284177  0.07615597  1
  N  N66  1  0.24969571  0.85899662  0.84862439  1
  N  N67  1  0.08785653  0.77641377  0.59849864  1
  N  N68  1  0.87157251  0.90454605  0.33846349  1
  N  N69  1  0.75393150  0.77472426  0.09330953  1
  N  N70  1  0.54439731  0.85678708  0.84153558  1
  N  N71  1  0.44629548  0.76164299  0.58250152  1
