# generated using pymatgen
data_Al31B5N36
_symmetry_space_group_name_H-M   'P 1'
_cell_length_a   9.18147589
_cell_length_b   9.17403256
_cell_length_c   9.92314139
_cell_angle_alpha   90.09729208
_cell_angle_beta   89.86227120
_cell_angle_gamma   59.96208341
_symmetry_Int_Tables_number   1
_chemical_formula_structural   Al31B5N36
_chemical_formula_sum   'Al31 B5 N36'
_cell_volume   723.57380170
_cell_formula_units_Z   1
loop_
 _symmetry_equiv_pos_site_id
 _symmetry_equiv_pos_as_xyz
  1  'x, y, z'
loop_
 _atom_site_type_symbol
 _atom_site_label
 _atom_site_symmetry_multiplicity
 _atom_site_fract_x
 _atom_site_fract_y
 _atom_site_fract_z
 _atom_site_occupancy
  Al  Al0  1  0.10595382  0.09281216  0.31887517  1
  Al  Al1  1  0.22683624  0.19837819  0.06621037  1
  Al  Al2  1  0.78167402  0.09066053  0.81101129  1
  Al  Al3  1  0.45398868  0.08644188  0.32100604  1
  Al  Al4  1  0.56326854  0.19839071  0.07019101  1
  Al  Al5  1  0.10903605  0.09392503  0.80878665  1
  Al  Al6  1  0.21682453  0.20724019  0.56026053  1
  Al  Al7  1  0.88799603  0.20483899  0.06913874  1
  Al  Al8  1  0.44084709  0.09337876  0.81161580  1
  Al  Al9  1  0.56894902  0.19679958  0.55825899  1
  Al  Al10  1  0.10994960  0.43051327  0.31331365  1
  Al  Al11  1  0.22374203  0.54034915  0.06159228  1
  Al  Al12  1  0.77498407  0.42645823  0.80938495  1
  Al  Al13  1  0.89283006  0.53283588  0.56930222  1
  Al  Al14  1  0.44976959  0.42482003  0.31281949  1
  Al  Al15  1  0.55747317  0.54907926  0.05948968  1
  Al  Al16  1  0.10970273  0.42777281  0.81552211  1
  Al  Al17  1  0.21710543  0.54154595  0.56421638  1
  Al  Al18  1  0.77755272  0.42234086  0.32247291  1
  Al  Al19  1  0.88447517  0.53786749  0.06850762  1
  Al  Al20  1  0.44478528  0.43026255  0.81331973  1
  Al  Al21  1  0.55615286  0.53300540  0.56577344  1
  Al  Al22  1  0.10804457  0.76856905  0.31310495  1
  Al  Al23  1  0.23337164  0.87352635  0.05738397  1
  Al  Al24  1  0.75894790  0.76898984  0.87447158  1
  Al  Al25  1  0.44934795  0.76353306  0.31988975  1
  Al  Al26  1  0.10863171  0.76364230  0.81485675  1
  Al  Al27  1  0.21232160  0.87507846  0.56494762  1
  Al  Al28  1  0.77962279  0.77708126  0.38930618  1
  Al  Al29  1  0.88424347  0.88009909  0.08094327  1
  Al  Al30  1  0.55478204  0.87228631  0.59983729  1
  B  B31  1  0.89284527  0.18977945  0.55580980  1
  B  B32  1  0.78020670  0.09293000  0.31668245  1
  B  B33  1  0.89413242  0.87732793  0.58546033  1
  B  B34  1  0.55669689  0.87219608  0.10485554  1
  B  B35  1  0.44219448  0.76095021  0.80078511  1
  N  N36  1  0.22293972  0.20620243  0.36983329  1
  N  N37  1  0.11097060  0.09306310  0.12673524  1
  N  N38  1  0.88679400  0.20448562  0.87836926  1
  N  N39  1  0.80343045  0.07648814  0.61570865  1
  N  N40  1  0.58106303  0.19300256  0.36595075  1
  N  N41  1  0.46075841  0.06514280  0.12322550  1
  N  N42  1  0.22037648  0.20413548  0.87546732  1
  N  N43  1  0.08413910  0.10687463  0.61335919  1
  N  N44  1  0.87884345  0.19329455  0.38897149  1
  N  N45  1  0.77838401  0.10081896  0.14976408  1
  N  N46  1  0.55854306  0.20181273  0.87652999  1
  N  N47  1  0.43843105  0.10575261  0.62118802  1
  N  N48  1  0.22187907  0.54127110  0.37342866  1
  N  N49  1  0.11199288  0.42842048  0.12275617  1
  N  N50  1  0.88717971  0.53541476  0.87415544  1
  N  N51  1  0.78801781  0.39937276  0.61614907  1
  N  N52  1  0.55374370  0.54076168  0.37593649  1
  N  N53  1  0.44715259  0.42963513  0.12063098  1
  N  N54  1  0.22135627  0.53983414  0.87148532  1
  N  N55  1  0.11137131  0.42643460  0.62641018  1
  N  N56  1  0.88840125  0.53961922  0.37625704  1
  N  N57  1  0.77636535  0.42712272  0.12996302  1
  N  N58  1  0.54388863  0.56343794  0.86499351  1
  N  N59  1  0.44455362  0.42222713  0.62234231  1
  N  N60  1  0.22602750  0.87028873  0.37602510  1
  N  N61  1  0.11745396  0.76279875  0.12122065  1
  N  N62  1  0.88825695  0.87606873  0.88458188  1
  N  N63  1  0.79786127  0.77853197  0.59083846  1
  N  N64  1  0.55058286  0.87352741  0.39350071  1
  N  N65  1  0.46020553  0.77766589  0.12418080  1
  N  N66  1  0.24478548  0.86163924  0.86212748  1
  N  N67  1  0.08357016  0.77513348  0.61989567  1
  N  N68  1  0.88010853  0.90278215  0.35653894  1
  N  N69  1  0.74296715  0.77879268  0.08538967  1
  N  N70  1  0.54036005  0.85940772  0.82148923  1
  N  N71  1  0.43469507  0.75359875  0.63773970  1
