# generated using pymatgen
data_Al31B5N36
_symmetry_space_group_name_H-M   'P 1'
_cell_length_a   9.20097021
_cell_length_b   9.17454201
_cell_length_c   10.06204651
_cell_angle_alpha   89.92532331
_cell_angle_beta   89.90077808
_cell_angle_gamma   60.12920845
_symmetry_Int_Tables_number   1
_chemical_formula_structural   Al31B5N36
_chemical_formula_sum   'Al31 B5 N36'
_cell_volume   736.54322505
_cell_formula_units_Z   1
loop_
 _symmetry_equiv_pos_site_id
 _symmetry_equiv_pos_as_xyz
  1  'x, y, z'
loop_
 _atom_site_type_symbol
 _atom_site_label
 _atom_site_symmetry_multiplicity
 _atom_site_fract_x
 _atom_site_fract_y
 _atom_site_fract_z
 _atom_site_occupancy
  Al  Al0  1  0.10541674  0.08629430  0.32331485  1
  Al  Al1  1  0.23043379  0.20295135  0.14100029  1
  Al  Al2  1  0.78187407  0.08930994  0.81857489  1
  Al  Al3  1  0.44925233  0.08778661  0.39509607  1
  Al  Al4  1  0.56214844  0.20205275  0.07073026  1
  Al  Al5  1  0.10317292  0.09055629  0.81065892  1
  Al  Al6  1  0.21733399  0.21336499  0.63326717  1
  Al  Al7  1  0.88874774  0.20414270  0.07196428  1
  Al  Al8  1  0.44247539  0.08382515  0.86869762  1
  Al  Al9  1  0.57741263  0.20010502  0.56657755  1
  Al  Al10  1  0.10997040  0.42463452  0.38643214  1
  Al  Al11  1  0.22491388  0.54366852  0.06700581  1
  Al  Al12  1  0.77229887  0.43645791  0.88069540  1
  Al  Al13  1  0.89114202  0.53837804  0.64128199  1
  Al  Al14  1  0.45389940  0.41924244  0.31637557  1
  Al  Al15  1  0.54428930  0.55795545  0.06603638  1
  Al  Al16  1  0.10532178  0.42450843  0.88979645  1
  Al  Al17  1  0.22103191  0.54573233  0.56895537  1
  Al  Al18  1  0.78497648  0.41725407  0.39238688  1
  Al  Al19  1  0.87696117  0.54656744  0.14391829  1
  Al  Al20  1  0.44323390  0.43274044  0.81643282  1
  Al  Al21  1  0.55263854  0.53773198  0.57270597  1
  Al  Al22  1  0.11190514  0.76394342  0.31286097  1
  Al  Al23  1  0.23116843  0.87919512  0.06037280  1
  Al  Al24  1  0.76336266  0.76549004  0.89004649  1
  Al  Al25  1  0.45112358  0.76076337  0.32372408  1
  Al  Al26  1  0.10852197  0.76341960  0.82555683  1
  Al  Al27  1  0.21263979  0.87568057  0.56871543  1
  Al  Al28  1  0.78536546  0.76969196  0.39524674  1
  Al  Al29  1  0.88149362  0.88132486  0.10371569  1
  Al  Al30  1  0.55775403  0.87176286  0.61295863  1
  B  B31  1  0.90038240  0.18167414  0.55810195  1
  B  B32  1  0.77742075  0.08939698  0.31389010  1
  B  B33  1  0.89664343  0.87251983  0.60841636  1
  B  B34  1  0.55210556  0.87522461  0.10273159  1
  B  B35  1  0.44088569  0.76105722  0.80463586  1
  N  N36  1  0.22998922  0.20277054  0.33074849  1
  N  N37  1  0.10654961  0.09326900  0.13200444  1
  N  N38  1  0.88929286  0.20042818  0.88116397  1
  N  N39  1  0.80758503  0.07019000  0.62337979  1
  N  N40  1  0.58713894  0.18910004  0.37337219  1
  N  N41  1  0.45679847  0.06388676  0.08079672  1
  N  N42  1  0.21872896  0.20836260  0.82384900  1
  N  N43  1  0.08315571  0.10440629  0.61627189  1
  N  N44  1  0.88509072  0.17902753  0.39254622  1
  N  N45  1  0.77122075  0.11106641  0.15170205  1
  N  N46  1  0.55896214  0.20676038  0.87794491  1
  N  N47  1  0.44068786  0.10485830  0.58845499  1
  N  N48  1  0.22781692  0.54135737  0.37697459  1
  N  N49  1  0.10472333  0.42785419  0.08152620  1
  N  N50  1  0.88669135  0.54417948  0.82757416  1
  N  N51  1  0.79166021  0.40172252  0.58649613  1
  N  N52  1  0.55366089  0.53836344  0.37972892  1
  N  N53  1  0.44515587  0.42904763  0.12712456  1
  N  N54  1  0.22358686  0.54021218  0.87602548  1
  N  N55  1  0.10492301  0.42956114  0.57546525  1
  N  N56  1  0.88685277  0.54118392  0.33163766  1
  N  N57  1  0.77336793  0.43597874  0.07776860  1
  N  N58  1  0.53443899  0.57211473  0.87044221  1
  N  N59  1  0.44560756  0.42327156  0.62919815  1
  N  N60  1  0.22751045  0.86637003  0.38231951  1
  N  N61  1  0.12171743  0.76324751  0.12375078  1
  N  N62  1  0.88886360  0.87631836  0.89471710  1
  N  N63  1  0.80230513  0.77759746  0.59144403  1
  N  N64  1  0.55888569  0.85935393  0.39920977  1
  N  N65  1  0.45554516  0.78249945  0.13064771  1
  N  N66  1  0.24517491  0.86461607  0.86787549  1
  N  N67  1  0.08483759  0.77453697  0.63014537  1
  N  N68  1  0.87790588  0.89199715  0.32769539  1
  N  N69  1  0.73993625  0.77733122  0.08624601  1
  N  N70  1  0.54697348  0.85951299  0.81785056  1
  N  N71  1  0.43206533  0.75586742  0.64435547  1
