# generated using pymatgen
data_Al31B5N36
_symmetry_space_group_name_H-M   'P 1'
_cell_length_a   9.20908725
_cell_length_b   9.19762234
_cell_length_c   9.98517792
_cell_angle_alpha   90.00756738
_cell_angle_beta   89.94496303
_cell_angle_gamma   60.08152700
_symmetry_Int_Tables_number   1
_chemical_formula_structural   Al31B5N36
_chemical_formula_sum   'Al31 B5 N36'
_cell_volume   733.05150163
_cell_formula_units_Z   1
loop_
 _symmetry_equiv_pos_site_id
 _symmetry_equiv_pos_as_xyz
  1  'x, y, z'
loop_
 _atom_site_type_symbol
 _atom_site_label
 _atom_site_symmetry_multiplicity
 _atom_site_fract_x
 _atom_site_fract_y
 _atom_site_fract_z
 _atom_site_occupancy
  Al  Al0  1  0.10601883  0.08649458  0.32763442  1
  Al  Al1  1  0.22568555  0.20340248  0.11763902  1
  Al  Al2  1  0.78118989  0.08897372  0.82247818  1
  Al  Al3  1  0.46234287  0.08073880  0.33357643  1
  Al  Al4  1  0.56168841  0.20109565  0.07575274  1
  Al  Al5  1  0.10694837  0.09462828  0.81476582  1
  Al  Al6  1  0.21865227  0.20178381  0.58122665  1
  Al  Al7  1  0.88882392  0.20475311  0.07464555  1
  Al  Al8  1  0.43978285  0.09364032  0.81907582  1
  Al  Al9  1  0.57239011  0.19479233  0.56630639  1
  Al  Al10  1  0.10746338  0.43131331  0.38511307  1
  Al  Al11  1  0.22558767  0.54605058  0.07203131  1
  Al  Al12  1  0.77276459  0.43544782  0.88248490  1
  Al  Al13  1  0.89309166  0.53610664  0.64637934  1
  Al  Al14  1  0.45359129  0.42254156  0.32063523  1
  Al  Al15  1  0.54547240  0.55798880  0.06934950  1
  Al  Al16  1  0.10454739  0.42664410  0.89485042  1
  Al  Al17  1  0.22137662  0.54410177  0.57435039  1
  Al  Al18  1  0.78521336  0.41713403  0.39663363  1
  Al  Al19  1  0.87475051  0.54939504  0.14841883  1
  Al  Al20  1  0.44345112  0.43045751  0.82160485  1
  Al  Al21  1  0.55401519  0.53434141  0.57947827  1
  Al  Al22  1  0.11117403  0.76593485  0.31681013  1
  Al  Al23  1  0.23245614  0.87943709  0.06255652  1
  Al  Al24  1  0.75865670  0.76791643  0.89476778  1
  Al  Al25  1  0.45058365  0.76160127  0.33044119  1
  Al  Al26  1  0.10746975  0.76403630  0.82988798  1
  Al  Al27  1  0.21284780  0.87221635  0.57413796  1
  Al  Al28  1  0.78491085  0.77133073  0.40009279  1
  Al  Al29  1  0.88244125  0.88224466  0.10507074  1
  Al  Al30  1  0.55728292  0.87015341  0.60902462  1
  B  B31  1  0.89792054  0.18052751  0.56186422  1
  B  B32  1  0.77996582  0.09069777  0.31713566  1
  B  B33  1  0.89582117  0.87207052  0.61115595  1
  B  B34  1  0.55483598  0.87452553  0.11476695  1
  B  B35  1  0.44096745  0.76226451  0.80943621  1
  N  N36  1  0.22693115  0.20076999  0.35956024  1
  N  N37  1  0.10697330  0.09350928  0.13743599  1
  N  N38  1  0.88903120  0.19980074  0.88306990  1
  N  N39  1  0.80581585  0.06976227  0.62528458  1
  N  N40  1  0.58491515  0.19064915  0.37500820  1
  N  N41  1  0.46452996  0.06495261  0.13472607  1
  N  N42  1  0.21914916  0.20261946  0.86688176  1
  N  N43  1  0.08415957  0.10263746  0.61887299  1
  N  N44  1  0.88378931  0.17908828  0.39534592  1
  N  N45  1  0.77312114  0.11128007  0.15476088  1
  N  N46  1  0.55733076  0.20285135  0.88417077  1
  N  N47  1  0.44258302  0.10310454  0.62640579  1
  N  N48  1  0.22766456  0.54365347  0.38014252  1
  N  N49  1  0.10260292  0.43571889  0.09307226  1
  N  N50  1  0.88575729  0.54549434  0.83321016  1
  N  N51  1  0.79307136  0.39896570  0.59189587  1
  N  N52  1  0.55438812  0.53959916  0.38496792  1
  N  N53  1  0.44635419  0.42985440  0.13060970  1
  N  N54  1  0.22310067  0.54075186  0.87991433  1
  N  N55  1  0.10549150  0.42942647  0.57990340  1
  N  N56  1  0.88292563  0.54452954  0.33705029  1
  N  N57  1  0.77456227  0.43596427  0.08216353  1
  N  N58  1  0.53469284  0.57017340  0.87341961  1
  N  N59  1  0.44668612  0.41946192  0.63221572  1
  N  N60  1  0.22712430  0.86659987  0.38657406  1
  N  N61  1  0.12207138  0.76584751  0.12700362  1
  N  N62  1  0.88733849  0.87599382  0.89845623  1
  N  N63  1  0.80193974  0.77630218  0.59552085  1
  N  N64  1  0.55495038  0.86820007  0.40461975  1
  N  N65  1  0.45668997  0.78266182  0.13536434  1
  N  N66  1  0.24362625  0.86404267  0.86962222  1
  N  N67  1  0.08380411  0.77365650  0.63350497  1
  N  N68  1  0.87725212  0.89363937  0.33294542  1
  N  N69  1  0.74027550  0.77906334  0.09245337  1
  N  N70  1  0.54307812  0.85877119  0.82844461  1
  N  N71  1  0.43386188  0.75453622  0.64691204  1
