# generated using pymatgen
data_Al31B5N36
_symmetry_space_group_name_H-M   'P 1'
_cell_length_a   9.20063989
_cell_length_b   9.25154260
_cell_length_c   9.96493575
_cell_angle_alpha   89.78676801
_cell_angle_beta   89.73411090
_cell_angle_gamma   60.10320149
_symmetry_Int_Tables_number   1
_chemical_formula_structural   Al31B5N36
_chemical_formula_sum   'Al31 B5 N36'
_cell_volume   735.33081572
_cell_formula_units_Z   1
loop_
 _symmetry_equiv_pos_site_id
 _symmetry_equiv_pos_as_xyz
  1  'x, y, z'
loop_
 _atom_site_type_symbol
 _atom_site_label
 _atom_site_symmetry_multiplicity
 _atom_site_fract_x
 _atom_site_fract_y
 _atom_site_fract_z
 _atom_site_occupancy
  Al  Al0  1  0.10921710  0.08778571  0.32435983  1
  Al  Al1  1  0.22768974  0.19491742  0.07921990  1
  Al  Al2  1  0.78246785  0.08822862  0.82307082  1
  Al  Al3  1  0.45708513  0.08136972  0.32976742  1
  Al  Al4  1  0.56136831  0.20168641  0.07628209  1
  Al  Al5  1  0.10734473  0.09322607  0.81583707  1
  Al  Al6  1  0.21770273  0.19949558  0.56822284  1
  Al  Al7  1  0.88670330  0.20861269  0.07164312  1
  Al  Al8  1  0.43992585  0.09366050  0.81930489  1
  Al  Al9  1  0.56973135  0.19574425  0.56553488  1
  Al  Al10  1  0.10873923  0.43005698  0.38279595  1
  Al  Al11  1  0.22735614  0.54341110  0.07470008  1
  Al  Al12  1  0.77178840  0.43777613  0.86397244  1
  Al  Al13  1  0.89310215  0.55081561  0.64906951  1
  Al  Al14  1  0.45679877  0.42218375  0.32069758  1
  Al  Al15  1  0.54951490  0.55679291  0.06578482  1
  Al  Al16  1  0.10345566  0.43164271  0.89509001  1
  Al  Al17  1  0.22289519  0.54052301  0.57459036  1
  Al  Al18  1  0.78782424  0.41995296  0.41803211  1
  Al  Al19  1  0.87662555  0.54470384  0.14865615  1
  Al  Al20  1  0.44427965  0.43090163  0.82158588  1
  Al  Al21  1  0.54596437  0.54727604  0.58431216  1
  Al  Al22  1  0.11150155  0.76479860  0.31725775  1
  Al  Al23  1  0.23197925  0.87661892  0.06564951  1
  Al  Al24  1  0.75771497  0.76933145  0.89868564  1
  Al  Al25  1  0.45350454  0.75790264  0.33067494  1
  Al  Al26  1  0.10795408  0.76389036  0.83181799  1
  Al  Al27  1  0.21348733  0.86927784  0.57278926  1
  Al  Al28  1  0.78383846  0.77026849  0.39893703  1
  Al  Al29  1  0.88217674  0.88228066  0.10745485  1
  Al  Al30  1  0.55560351  0.87137390  0.60927390  1
  B  B31  1  0.91772172  0.13315200  0.55403028  1
  B  B32  1  0.77595290  0.08853905  0.31564451  1
  B  B33  1  0.89766531  0.86805897  0.61164931  1
  B  B34  1  0.55516982  0.87305333  0.11522194  1
  B  B35  1  0.43723790  0.76578692  0.81039238  1
  N  N36  1  0.22660055  0.19727998  0.37483740  1
  N  N37  1  0.10719741  0.09416004  0.13532117  1
  N  N38  1  0.88796113  0.20164889  0.87917328  1
  N  N39  1  0.81065161  0.06331270  0.62244496  1
  N  N40  1  0.58338894  0.18884862  0.37363906  1
  N  N41  1  0.46205619  0.06445469  0.13206392  1
  N  N42  1  0.22003290  0.20002835  0.88274274  1
  N  N43  1  0.08217570  0.09864605  0.61973148  1
  N  N44  1  0.88723792  0.17551076  0.40405203  1
  N  N45  1  0.77376521  0.11176873  0.15482046  1
  N  N46  1  0.55739295  0.20309824  0.88319721  1
  N  N47  1  0.43883501  0.10489334  0.62902467  1
  N  N48  1  0.22880686  0.54253737  0.37975451  1
  N  N49  1  0.10692218  0.43107482  0.09498546  1
  N  N50  1  0.88798783  0.55152987  0.83643542  1
  N  N51  1  0.77238568  0.44801757  0.60742776  1
  N  N52  1  0.55650362  0.53742562  0.38804915  1
  N  N53  1  0.44944874  0.42943927  0.13001857  1
  N  N54  1  0.22453934  0.54118438  0.88088672  1
  N  N55  1  0.10666260  0.42748551  0.58318987  1
  N  N56  1  0.88334414  0.54271519  0.33854148  1
  N  N57  1  0.77686662  0.43625651  0.07570042  1
  N  N58  1  0.53231231  0.57293891  0.87094859  1
  N  N59  1  0.44860813  0.41953188  0.63198528  1
  N  N60  1  0.22673321  0.86682680  0.38471905  1
  N  N61  1  0.12203874  0.76321004  0.12762130  1
  N  N62  1  0.88672786  0.87749992  0.89955519  1
  N  N63  1  0.80087042  0.78133207  0.59500930  1
  N  N64  1  0.55331719  0.86948471  0.40419536  1
  N  N65  1  0.45768978  0.78066880  0.13518407  1
  N  N66  1  0.24191217  0.86560645  0.87250483  1
  N  N67  1  0.08525816  0.77060182  0.63375992  1
  N  N68  1  0.87625604  0.89357108  0.33172104  1
  N  N69  1  0.74113029  0.77833888  0.09587725  1
  N  N70  1  0.54215458  0.86008787  0.83013213  1
  N  N71  1  0.42473606  0.76488251  0.64904813  1
