# generated using pymatgen
data_Al31B5N36
_symmetry_space_group_name_H-M   'P 1'
_cell_length_a   9.16978550
_cell_length_b   9.16822168
_cell_length_c   9.80038212
_cell_angle_alpha   90.11389467
_cell_angle_beta   90.03448040
_cell_angle_gamma   60.05093761
_symmetry_Int_Tables_number   1
_chemical_formula_structural   Al31B5N36
_chemical_formula_sum   'Al31 B5 N36'
_cell_volume   713.90382289
_cell_formula_units_Z   1
loop_
 _symmetry_equiv_pos_site_id
 _symmetry_equiv_pos_as_xyz
  1  'x, y, z'
loop_
 _atom_site_type_symbol
 _atom_site_label
 _atom_site_symmetry_multiplicity
 _atom_site_fract_x
 _atom_site_fract_y
 _atom_site_fract_z
 _atom_site_occupancy
  Al  Al0  1  0.10254833  0.09368241  0.41129476  1
  Al  Al1  1  0.22460563  0.20003621  0.15713056  1
  Al  Al2  1  0.77953851  0.09352992  0.89282412  1
  Al  Al3  1  0.45038580  0.08899003  0.40034303  1
  Al  Al4  1  0.56460376  0.19715716  0.16079310  1
  Al  Al5  1  0.11304024  0.09219322  0.90173268  1
  Al  Al6  1  0.21920548  0.20602825  0.65703750  1
  Al  Al7  1  0.88600650  0.20180789  0.15915231  1
  Al  Al8  1  0.44684623  0.08671999  0.91069576  1
  Al  Al9  1  0.56513809  0.19974972  0.64836422  1
  Al  Al10  1  0.10970688  0.42822702  0.40703909  1
  Al  Al11  1  0.22091796  0.54088177  0.15819468  1
  Al  Al12  1  0.77695413  0.42851719  0.90057831  1
  Al  Al13  1  0.88953901  0.54028781  0.65592148  1
  Al  Al14  1  0.44990853  0.42535095  0.40666917  1
  Al  Al15  1  0.55718083  0.54407874  0.14923449  1
  Al  Al16  1  0.11116966  0.42841058  0.90847268  1
  Al  Al17  1  0.21739153  0.54304732  0.65694700  1
  Al  Al18  1  0.77663976  0.41859869  0.41162154  1
  Al  Al19  1  0.88147627  0.54370813  0.15769263  1
  Al  Al20  1  0.44414559  0.43068693  0.90668021  1
  Al  Al21  1  0.55623792  0.54019694  0.66205471  1
  Al  Al22  1  0.10202905  0.77089547  0.41098034  1
  Al  Al23  1  0.22695289  0.87284137  0.14987025  1
  Al  Al24  1  0.77115744  0.76488206  0.90474835  1
  Al  Al25  1  0.44628451  0.76172124  0.39877254  1
  Al  Al26  1  0.11281544  0.76262814  0.90147468  1
  Al  Al27  1  0.22025767  0.87390520  0.66127522  1
  Al  Al28  1  0.77393008  0.77209689  0.40515113  1
  Al  Al29  1  0.88100974  0.88011243  0.15901774  1
  Al  Al30  1  0.55705156  0.87186004  0.65969852  1
  B  B31  1  0.89419831  0.19859342  0.65756515  1
  B  B32  1  0.78622144  0.09010356  0.41386911  1
  B  B33  1  0.89305765  0.87507122  0.65623041  1
  B  B34  1  0.55691395  0.87294939  0.15377240  1
  B  B35  1  0.44950893  0.76551976  0.91206085  1
  N  N36  1  0.22003204  0.20355340  0.34970366  1
  N  N37  1  0.10663765  0.09660021  0.09442293  1
  N  N38  1  0.88989842  0.20372762  0.82264729  1
  N  N39  1  0.80023417  0.08313540  0.59126780  1
  N  N40  1  0.58324922  0.19151739  0.35860836  1
  N  N41  1  0.45801863  0.07093823  0.10635308  1
  N  N42  1  0.22450527  0.20543446  0.84963708  1
  N  N43  1  0.08809958  0.10458269  0.60642621  1
  N  N44  1  0.87588287  0.19090807  0.35354336  1
  N  N45  1  0.77922081  0.09384165  0.08473449  1
  N  N46  1  0.55403482  0.20454295  0.84299845  1
  N  N47  1  0.44410213  0.09132073  0.59371267  1
  N  N48  1  0.22051012  0.54271158  0.35115088  1
  N  N49  1  0.10963542  0.42798580  0.10105779  1
  N  N50  1  0.88894375  0.54130181  0.84811133  1
  N  N51  1  0.78799522  0.40302066  0.60649612  1
  N  N52  1  0.55741957  0.53860091  0.34271572  1
  N  N53  1  0.44545408  0.42428356  0.10025209  1
  N  N54  1  0.22212715  0.53908046  0.84809569  1
  N  N55  1  0.11099125  0.42766588  0.59770540  1
  N  N56  1  0.88387947  0.54093837  0.35215823  1
  N  N57  1  0.78132744  0.42246423  0.09397825  1
  N  N58  1  0.54329250  0.56532034  0.85770625  1
  N  N59  1  0.44385617  0.43036211  0.59930529  1
  N  N60  1  0.22163642  0.87250725  0.34504970  1
  N  N61  1  0.10584792  0.76368479  0.09535197  1
  N  N62  1  0.88850939  0.87282732  0.82326798  1
  N  N63  1  0.78662562  0.77718170  0.60156285  1
  N  N64  1  0.55596088  0.87004946  0.32193726  1
  N  N65  1  0.45673795  0.77367741  0.08452109  1
  N  N66  1  0.24977430  0.85943800  0.85615180  1
  N  N67  1  0.08749345  0.77531908  0.60622767  1
  N  N68  1  0.87545200  0.90017964  0.35276011  1
  N  N69  1  0.75472174  0.77558307  0.10199078  1
  N  N70  1  0.54327513  0.86004736  0.85145079  1
  N  N71  1  0.44617025  0.76159152  0.59106571  1
