# generated using pymatgen
data_Al31B5N36
_symmetry_space_group_name_H-M   'P 1'
_cell_length_a   9.17739980
_cell_length_b   9.17393082
_cell_length_c   10.02813127
_cell_angle_alpha   89.50432926
_cell_angle_beta   89.29823590
_cell_angle_gamma   60.01806807
_symmetry_Int_Tables_number   1
_chemical_formula_structural   Al31B5N36
_chemical_formula_sum   'Al31 B5 N36'
_cell_volume   731.25755451
_cell_formula_units_Z   1
loop_
 _symmetry_equiv_pos_site_id
 _symmetry_equiv_pos_as_xyz
  1  'x, y, z'
loop_
 _atom_site_type_symbol
 _atom_site_label
 _atom_site_symmetry_multiplicity
 _atom_site_fract_x
 _atom_site_fract_y
 _atom_site_fract_z
 _atom_site_occupancy
  Al  Al0  1  0.10024779  0.09440451  0.40716315  1
  Al  Al1  1  0.22611071  0.19890897  0.15192471  1
  Al  Al2  1  0.78120111  0.09068261  0.86278020  1
  Al  Al3  1  0.44861580  0.09120144  0.39583432  1
  Al  Al4  1  0.55807393  0.20382728  0.07410862  1
  Al  Al5  1  0.11503704  0.08993271  0.89737117  1
  Al  Al6  1  0.21858759  0.20702552  0.65054209  1
  Al  Al7  1  0.88580992  0.20287470  0.14226333  1
  Al  Al8  1  0.43899933  0.07865678  0.90322794  1
  Al  Al9  1  0.57979885  0.19705668  0.58632594  1
  Al  Al10  1  0.11051583  0.42907324  0.40166764  1
  Al  Al11  1  0.21537205  0.54293010  0.15160366  1
  Al  Al12  1  0.78043139  0.42730001  0.89186025  1
  Al  Al13  1  0.88666982  0.53960156  0.64985515  1
  Al  Al14  1  0.45989681  0.41975815  0.32848808  1
  Al  Al15  1  0.54684874  0.55706950  0.08350504  1
  Al  Al16  1  0.11076278  0.42655453  0.90208876  1
  Al  Al17  1  0.20831389  0.54675785  0.64932993  1
  Al  Al18  1  0.78888522  0.41171489  0.40247751  1
  Al  Al19  1  0.87913721  0.54448111  0.15158769  1
  Al  Al20  1  0.44698143  0.42932859  0.82621498  1
  Al  Al21  1  0.55377121  0.53730251  0.57729191  1
  Al  Al22  1  0.09935229  0.77285209  0.40650205  1
  Al  Al23  1  0.22448101  0.87539889  0.15351783  1
  Al  Al24  1  0.76952611  0.76033845  0.90028621  1
  Al  Al25  1  0.44661279  0.76618223  0.36986146  1
  Al  Al26  1  0.11525900  0.75787764  0.89850442  1
  Al  Al27  1  0.21847554  0.87518240  0.64636736  1
  Al  Al28  1  0.77586788  0.77388021  0.40198683  1
  Al  Al29  1  0.88003202  0.87972765  0.14444129  1
  Al  Al30  1  0.55627327  0.87325065  0.64653770  1
  B  B31  1  0.89656451  0.19481582  0.66020978  1
  B  B32  1  0.78006969  0.09394092  0.36083194  1
  B  B33  1  0.89525781  0.87914664  0.66136828  1
  B  B34  1  0.55521814  0.87354698  0.15918581  1
  B  B35  1  0.44290745  0.75938190  0.85978824  1
  N  N36  1  0.21941770  0.20452928  0.34214495  1
  N  N37  1  0.11073930  0.09469026  0.08611733  1
  N  N38  1  0.89641042  0.20728570  0.82148489  1
  N  N39  1  0.80473090  0.08064929  0.63761316  1
  N  N40  1  0.59188098  0.19063090  0.38491795  1
  N  N41  1  0.45603203  0.06687028  0.09786201  1
  N  N42  1  0.22253169  0.20440938  0.83944485  1
  N  N43  1  0.08675116  0.10610204  0.59889319  1
  N  N44  1  0.87558304  0.18947714  0.33622785  1
  N  N45  1  0.78907239  0.08935237  0.06940948  1
  N  N46  1  0.54584450  0.20773262  0.88211972  1
  N  N47  1  0.44310954  0.09545999  0.58714614  1
  N  N48  1  0.21756342  0.54570321  0.34456552  1
  N  N49  1  0.10986706  0.42698732  0.09194317  1
  N  N50  1  0.88879372  0.54018649  0.83836705  1
  N  N51  1  0.79393299  0.39696519  0.59730804  1
  N  N52  1  0.56050595  0.53419617  0.38552205  1
  N  N53  1  0.45138901  0.42484194  0.13783882  1
  N  N54  1  0.21585951  0.54044477  0.83958369  1
  N  N55  1  0.10877701  0.42824604  0.58859393  1
  N  N56  1  0.88597750  0.54204462  0.34270775  1
  N  N57  1  0.78110390  0.42477240  0.08387072  1
  N  N58  1  0.53550015  0.57041279  0.88247115  1
  N  N59  1  0.44717192  0.42510081  0.63608479  1
  N  N60  1  0.21382185  0.87728888  0.34367751  1
  N  N61  1  0.11101264  0.76318314  0.08804750  1
  N  N62  1  0.89369479  0.85991902  0.82411464  1
  N  N63  1  0.78668945  0.77717107  0.59476656  1
  N  N64  1  0.56397648  0.87873525  0.32249043  1
  N  N65  1  0.45739964  0.77588257  0.13642173  1
  N  N66  1  0.25088387  0.85611904  0.84025684  1
  N  N67  1  0.08472431  0.77752449  0.59872325  1
  N  N68  1  0.87416151  0.90400111  0.33812151  1
  N  N69  1  0.75384257  0.77434190  0.09433287  1
  N  N70  1  0.54030531  0.85334672  0.83855123  1
  N  N71  1  0.43997467  0.77232850  0.57817504  1
