# generated using pymatgen
data_Al31B5N36
_symmetry_space_group_name_H-M   'P 1'
_cell_length_a   9.20167243
_cell_length_b   9.18724898
_cell_length_c   9.89900815
_cell_angle_alpha   90.23096854
_cell_angle_beta   89.89833973
_cell_angle_gamma   59.95301194
_symmetry_Int_Tables_number   1
_chemical_formula_structural   Al31B5N36
_chemical_formula_sum   'Al31 B5 N36'
_cell_volume   724.37098319
_cell_formula_units_Z   1
loop_
 _symmetry_equiv_pos_site_id
 _symmetry_equiv_pos_as_xyz
  1  'x, y, z'
loop_
 _atom_site_type_symbol
 _atom_site_label
 _atom_site_symmetry_multiplicity
 _atom_site_fract_x
 _atom_site_fract_y
 _atom_site_fract_z
 _atom_site_occupancy
  Al  Al0  1  0.10621421  0.09143293  0.31948290  1
  Al  Al1  1  0.22485858  0.20047280  0.06708027  1
  Al  Al2  1  0.78168700  0.08932259  0.81604681  1
  Al  Al3  1  0.45543205  0.08430453  0.32161167  1
  Al  Al4  1  0.56096212  0.20063695  0.06881755  1
  Al  Al5  1  0.10860170  0.09498265  0.80961815  1
  Al  Al6  1  0.21818976  0.20537368  0.56060047  1
  Al  Al7  1  0.88752785  0.20836807  0.06819214  1
  Al  Al8  1  0.44083816  0.09299654  0.81273091  1
  Al  Al9  1  0.57051048  0.19462321  0.55929449  1
  Al  Al10  1  0.11351767  0.42834734  0.31850181  1
  Al  Al11  1  0.22384918  0.54065145  0.06178534  1
  Al  Al12  1  0.77414735  0.42666897  0.80897578  1
  Al  Al13  1  0.89215452  0.53506717  0.57945112  1
  Al  Al14  1  0.45064543  0.42363172  0.31311142  1
  Al  Al15  1  0.55661772  0.54976420  0.06033695  1
  Al  Al16  1  0.10964897  0.42812641  0.81494529  1
  Al  Al17  1  0.21876461  0.54127471  0.56580065  1
  Al  Al18  1  0.77752049  0.41952594  0.32749458  1
  Al  Al19  1  0.88075158  0.54508861  0.09422131  1
  Al  Al20  1  0.44468822  0.43032722  0.81385276  1
  Al  Al21  1  0.55614376  0.53205581  0.56658407  1
  Al  Al22  1  0.11044365  0.76670531  0.31084348  1
  Al  Al23  1  0.23366234  0.87481733  0.05741410  1
  Al  Al24  1  0.75927174  0.76748927  0.88269115  1
  Al  Al25  1  0.44935021  0.76289844  0.32171675  1
  Al  Al26  1  0.10780260  0.76419395  0.82201009  1
  Al  Al27  1  0.21224241  0.87455684  0.56761137  1
  Al  Al28  1  0.78184334  0.77716726  0.38958797  1
  Al  Al29  1  0.88293095  0.88237367  0.09702330  1
  Al  Al30  1  0.55515657  0.87219239  0.60075295  1
  B  B31  1  0.89417179  0.18881874  0.55613487  1
  B  B32  1  0.77781495  0.09296091  0.30966570  1
  B  B33  1  0.89494623  0.87513118  0.60326377  1
  B  B34  1  0.55343036  0.87400733  0.10565383  1
  B  B35  1  0.44307223  0.76121268  0.80185744  1
  N  N36  1  0.22480779  0.20326546  0.37019808  1
  N  N37  1  0.10986571  0.09447003  0.12707686  1
  N  N38  1  0.88643484  0.20558983  0.87797212  1
  N  N39  1  0.80474529  0.07228976  0.61817823  1
  N  N40  1  0.58213686  0.19106825  0.36594902  1
  N  N41  1  0.45942704  0.06628360  0.12308522  1
  N  N42  1  0.21997390  0.20515549  0.87604114  1
  N  N43  1  0.08451101  0.10656905  0.61395795  1
  N  N44  1  0.88006515  0.18946685  0.38951464  1
  N  N45  1  0.77325708  0.11091017  0.14609713  1
  N  N46  1  0.55732846  0.20267769  0.87611617  1
  N  N47  1  0.43901282  0.10486579  0.62183236  1
  N  N48  1  0.22354088  0.54153147  0.37491475  1
  N  N49  1  0.11222073  0.42992238  0.12611968  1
  N  N50  1  0.88504661  0.53920224  0.85935092  1
  N  N51  1  0.78831367  0.39619015  0.61412475  1
  N  N52  1  0.55319328  0.54021356  0.37694800  1
  N  N53  1  0.44610074  0.43041790  0.12096143  1
  N  N54  1  0.22197156  0.53874485  0.87182544  1
  N  N55  1  0.11460385  0.42470668  0.62407486  1
  N  N56  1  0.88846329  0.54026132  0.37351119  1
  N  N57  1  0.77399130  0.42844852  0.13316229  1
  N  N58  1  0.54340652  0.56357615  0.86566533  1
  N  N59  1  0.44587699  0.42075487  0.62273796  1
  N  N60  1  0.22547998  0.86938446  0.37793324  1
  N  N61  1  0.12202951  0.76210254  0.11912652  1
  N  N62  1  0.88740961  0.87632639  0.89084468  1
  N  N63  1  0.79944928  0.78129611  0.58951404  1
  N  N64  1  0.55242906  0.87159257  0.39482816  1
  N  N65  1  0.45888448  0.77882419  0.12547573  1
  N  N66  1  0.24506821  0.86286394  0.86244570  1
  N  N67  1  0.08364776  0.77469996  0.62463723  1
  N  N68  1  0.87734560  0.89711670  0.32704660  1
  N  N69  1  0.73983153  0.78047448  0.08765226  1
  N  N70  1  0.54144190  0.85935191  0.82320441  1
  N  N71  1  0.43582421  0.75292491  0.63859839  1
