# generated using pymatgen
data_Al31B5N36
_symmetry_space_group_name_H-M   'P 1'
_cell_length_a   9.17291769
_cell_length_b   9.16719145
_cell_length_c   10.06822469
_cell_angle_alpha   89.44619360
_cell_angle_beta   89.30061203
_cell_angle_gamma   59.98986415
_symmetry_Int_Tables_number   1
_chemical_formula_structural   Al31B5N36
_chemical_formula_sum   'Al31 B5 N36'
_cell_volume   733.07251120
_cell_formula_units_Z   1
loop_
 _symmetry_equiv_pos_site_id
 _symmetry_equiv_pos_as_xyz
  1  'x, y, z'
loop_
 _atom_site_type_symbol
 _atom_site_label
 _atom_site_symmetry_multiplicity
 _atom_site_fract_x
 _atom_site_fract_y
 _atom_site_fract_z
 _atom_site_occupancy
  Al  Al0  1  0.10213223  0.09322563  0.39536228  1
  Al  Al1  1  0.22567596  0.19972866  0.14056330  1
  Al  Al2  1  0.78094694  0.09070742  0.85078036  1
  Al  Al3  1  0.44843296  0.09076440  0.38411978  1
  Al  Al4  1  0.55784171  0.20523516  0.06225276  1
  Al  Al5  1  0.11427114  0.09051814  0.88587030  1
  Al  Al6  1  0.21896170  0.20586641  0.63891199  1
  Al  Al7  1  0.88375522  0.20545891  0.13038521  1
  Al  Al8  1  0.43904441  0.07871240  0.89208088  1
  Al  Al9  1  0.57998209  0.19563247  0.57326390  1
  Al  Al10  1  0.11067167  0.42874554  0.39008851  1
  Al  Al11  1  0.21531711  0.54273778  0.14047906  1
  Al  Al12  1  0.77996182  0.42742346  0.87758837  1
  Al  Al13  1  0.88680343  0.53908391  0.63832173  1
  Al  Al14  1  0.46060154  0.42089461  0.31737762  1
  Al  Al15  1  0.54399362  0.55882793  0.06208627  1
  Al  Al16  1  0.11073501  0.42693062  0.89000371  1
  Al  Al17  1  0.20829568  0.54593522  0.63758909  1
  Al  Al18  1  0.78851093  0.41214696  0.39299394  1
  Al  Al19  1  0.87840472  0.54426588  0.13940597  1
  Al  Al20  1  0.44737310  0.42845309  0.81258354  1
  Al  Al21  1  0.55283127  0.53710890  0.56905523  1
  Al  Al22  1  0.10166199  0.77210419  0.39527704  1
  Al  Al23  1  0.21944716  0.87784825  0.13869666  1
  Al  Al24  1  0.76869226  0.76120110  0.88839193  1
  Al  Al25  1  0.45318320  0.75902021  0.32348397  1
  Al  Al26  1  0.11475014  0.75840669  0.88684069  1
  Al  Al27  1  0.21329356  0.87636032  0.63940022  1
  Al  Al28  1  0.77754942  0.77328775  0.39106746  1
  Al  Al29  1  0.87942928  0.88033445  0.13343498  1
  Al  Al30  1  0.55915164  0.87395319  0.63851711  1
  B  B31  1  0.89623750  0.19488901  0.64783983  1
  B  B32  1  0.78068459  0.09409791  0.34886059  1
  B  B33  1  0.89500202  0.87846949  0.64916700  1
  B  B34  1  0.55845291  0.87603993  0.14544114  1
  B  B35  1  0.44318506  0.75863575  0.82179728  1
  N  N36  1  0.21979800  0.20449297  0.32982040  1
  N  N37  1  0.10920260  0.09708142  0.07451746  1
  N  N38  1  0.89625687  0.20701497  0.80888086  1
  N  N39  1  0.80453484  0.07997812  0.62541232  1
  N  N40  1  0.59224092  0.19093631  0.37272233  1
  N  N41  1  0.45601703  0.06708946  0.08652540  1
  N  N42  1  0.22246283  0.20466666  0.82749900  1
  N  N43  1  0.08706034  0.10544428  0.58611867  1
  N  N44  1  0.87563215  0.19041381  0.32427475  1
  N  N45  1  0.78900886  0.08976650  0.05817217  1
  N  N46  1  0.54562082  0.20829379  0.87167908  1
  N  N47  1  0.44306463  0.09342455  0.57367473  1
  N  N48  1  0.21796842  0.54528564  0.33254910  1
  N  N49  1  0.10952269  0.42751888  0.07974023  1
  N  N50  1  0.88871986  0.54068661  0.82610032  1
  N  N51  1  0.79424664  0.39548030  0.58590511  1
  N  N52  1  0.55771727  0.53902218  0.37930442  1
  N  N53  1  0.45187215  0.42654904  0.12683905  1
  N  N54  1  0.21587095  0.54076650  0.82725709  1
  N  N55  1  0.10874226  0.42741846  0.57637441  1
  N  N56  1  0.88567482  0.54165588  0.33042233  1
  N  N57  1  0.77902124  0.42669874  0.06981973  1
  N  N58  1  0.53500664  0.57050601  0.86732996  1
  N  N59  1  0.44704003  0.42184204  0.62348792  1
  N  N60  1  0.21777978  0.87547772  0.33173752  1
  N  N61  1  0.10953108  0.76286237  0.07635578  1
  N  N62  1  0.89333331  0.85995105  0.81215556  1
  N  N63  1  0.78764787  0.77647876  0.58243915  1
  N  N64  1  0.56671870  0.87927602  0.31033077  1
  N  N65  1  0.45746689  0.77354087  0.12942244  1
  N  N66  1  0.24458803  0.86017281  0.83043368  1
  N  N67  1  0.08417370  0.77672316  0.58634188  1
  N  N68  1  0.87573304  0.90384608  0.32651676  1
  N  N69  1  0.75296904  0.77525080  0.08277416  1
  N  N70  1  0.54226793  0.85691790  0.82780544  1
  N  N71  1  0.44380200  0.76073471  0.60925729  1
