# generated using pymatgen
data_Al31B5N36
_symmetry_space_group_name_H-M   'P 1'
_cell_length_a   9.18911014
_cell_length_b   9.13785845
_cell_length_c   10.17703846
_cell_angle_alpha   89.48321769
_cell_angle_beta   89.62268324
_cell_angle_gamma   60.16410421
_symmetry_Int_Tables_number   1
_chemical_formula_structural   Al31B5N36
_chemical_formula_sum   'Al31 B5 N36'
_cell_volume   741.25354097
_cell_formula_units_Z   1
loop_
 _symmetry_equiv_pos_site_id
 _symmetry_equiv_pos_as_xyz
  1  'x, y, z'
loop_
 _atom_site_type_symbol
 _atom_site_label
 _atom_site_symmetry_multiplicity
 _atom_site_fract_x
 _atom_site_fract_y
 _atom_site_fract_z
 _atom_site_occupancy
  Al  Al0  1  0.10336280  0.08680748  0.31281871  1
  Al  Al1  1  0.23032422  0.20392792  0.13823396  1
  Al  Al2  1  0.78021721  0.08948200  0.82567812  1
  Al  Al3  1  0.44747173  0.08973178  0.39364127  1
  Al  Al4  1  0.55867845  0.20367436  0.06829464  1
  Al  Al5  1  0.10709383  0.08960505  0.82209372  1
  Al  Al6  1  0.22112077  0.21510715  0.64056852  1
  Al  Al7  1  0.88735440  0.20362754  0.08256427  1
  Al  Al8  1  0.44253952  0.08031263  0.88020057  1
  Al  Al9  1  0.57859765  0.20176687  0.56222928  1
  Al  Al10  1  0.10992255  0.42323550  0.38678788  1
  Al  Al11  1  0.22441763  0.54421999  0.06623152  1
  Al  Al12  1  0.77400343  0.43392700  0.88602932  1
  Al  Al13  1  0.89241295  0.53924177  0.64074589  1
  Al  Al14  1  0.45356977  0.42023489  0.31646640  1
  Al  Al15  1  0.54397663  0.55672088  0.06523493  1
  Al  Al16  1  0.10435328  0.42596721  0.89109018  1
  Al  Al17  1  0.22089346  0.54695699  0.56658863  1
  Al  Al18  1  0.78634575  0.40742394  0.38797269  1
  Al  Al19  1  0.87578904  0.54559281  0.14701455  1
  Al  Al20  1  0.44326715  0.43159223  0.81503368  1
  Al  Al21  1  0.55188208  0.53775571  0.57203044  1
  Al  Al22  1  0.11027480  0.76605712  0.31202717  1
  Al  Al23  1  0.23393644  0.87500442  0.05881034  1
  Al  Al24  1  0.76386164  0.76231316  0.88863658  1
  Al  Al25  1  0.45090792  0.76170482  0.32484503  1
  Al  Al26  1  0.11037927  0.76248398  0.82395558  1
  Al  Al27  1  0.21152885  0.88022028  0.56857130  1
  Al  Al28  1  0.78519368  0.77192696  0.39439433  1
  Al  Al29  1  0.88193231  0.87678301  0.09887086  1
  Al  Al30  1  0.55738506  0.87547418  0.61500111  1
  B  B31  1  0.89759196  0.19393190  0.60352942  1
  B  B32  1  0.77926835  0.09293540  0.30210489  1
  B  B33  1  0.89869982  0.87539932  0.61053264  1
  B  B34  1  0.55256387  0.87190451  0.10179809  1
  B  B35  1  0.44254177  0.75939913  0.80471450  1
  N  N36  1  0.22900122  0.20345584  0.32551279  1
  N  N37  1  0.11319510  0.08983143  0.12242170  1
  N  N38  1  0.89025756  0.19839572  0.88595469  1
  N  N39  1  0.80868115  0.07851712  0.62863762  1
  N  N40  1  0.58656936  0.19035799  0.37106995  1
  N  N41  1  0.45567013  0.06180589  0.07694959  1
  N  N42  1  0.22184312  0.20864161  0.82775278  1
  N  N43  1  0.08288641  0.10721155  0.62790964  1
  N  N44  1  0.87701018  0.18704035  0.34239560  1
  N  N45  1  0.76617220  0.10363161  0.14106980  1
  N  N46  1  0.55652481  0.20691240  0.87886797  1
  N  N47  1  0.43925967  0.10722601  0.58375472  1
  N  N48  1  0.22694369  0.54256159  0.37750208  1
  N  N49  1  0.10198273  0.43013110  0.08017990  1
  N  N50  1  0.88688167  0.54129111  0.82456975  1
  N  N51  1  0.79518450  0.38985273  0.58829238  1
  N  N52  1  0.55338782  0.53911842  0.38364652  1
  N  N53  1  0.44384793  0.42934696  0.12839093  1
  N  N54  1  0.22449265  0.53992916  0.87678186  1
  N  N55  1  0.10523741  0.42884103  0.57496921  1
  N  N56  1  0.88562859  0.54027141  0.33410469  1
  N  N57  1  0.77276528  0.43661360  0.07720499  1
  N  N58  1  0.53611310  0.56975359  0.87018293  1
  N  N59  1  0.44439908  0.42376828  0.62946220  1
  N  N60  1  0.22524806  0.87034496  0.38335865  1
  N  N61  1  0.12149704  0.76292057  0.12379108  1
  N  N62  1  0.89092103  0.87150436  0.89224628  1
  N  N63  1  0.80187982  0.78253066  0.59126761  1
  N  N64  1  0.55908708  0.86049064  0.39747223  1
  N  N65  1  0.45625859  0.77937055  0.13175329  1
  N  N66  1  0.24872441  0.86070879  0.86853527  1
  N  N67  1  0.08591508  0.77617615  0.63046974  1
  N  N68  1  0.87785234  0.89291441  0.32481546  1
  N  N69  1  0.73972926  0.77418572  0.08344028  1
  N  N70  1  0.54690228  0.86008686  0.81768950  1
  N  N71  1  0.43364356  0.75631197  0.64471592  1
