# generated using pymatgen
data_Al31B5N36
_symmetry_space_group_name_H-M   'P 1'
_cell_length_a   9.14382927
_cell_length_b   9.19018174
_cell_length_c   10.20322106
_cell_angle_alpha   89.56857160
_cell_angle_beta   89.33916992
_cell_angle_gamma   59.99418586
_symmetry_Int_Tables_number   1
_chemical_formula_structural   Al31B5N36
_chemical_formula_sum   'Al31 B5 N36'
_cell_volume   742.44605404
_cell_formula_units_Z   1
loop_
 _symmetry_equiv_pos_site_id
 _symmetry_equiv_pos_as_xyz
  1  'x, y, z'
loop_
 _atom_site_type_symbol
 _atom_site_label
 _atom_site_symmetry_multiplicity
 _atom_site_fract_x
 _atom_site_fract_y
 _atom_site_fract_z
 _atom_site_occupancy
  Al  Al0  1  0.09666682  0.10325295  0.39219225  1
  Al  Al1  1  0.22234276  0.19810235  0.13482855  1
  Al  Al2  1  0.77846939  0.08487348  0.80853464  1
  Al  Al3  1  0.44678925  0.09060272  0.37306193  1
  Al  Al4  1  0.55851984  0.20472587  0.07270007  1
  Al  Al5  1  0.11256820  0.09612857  0.87448551  1
  Al  Al6  1  0.22605939  0.20549186  0.63532148  1
  Al  Al7  1  0.88728609  0.20863662  0.13787632  1
  Al  Al8  1  0.44597550  0.07988034  0.89266173  1
  Al  Al9  1  0.57489138  0.18863361  0.55793692  1
  Al  Al10  1  0.10982403  0.42626540  0.38203964  1
  Al  Al11  1  0.22616521  0.54305748  0.06864835  1
  Al  Al12  1  0.77778101  0.43321776  0.87604243  1
  Al  Al13  1  0.89520419  0.54155865  0.63698007  1
  Al  Al14  1  0.45490152  0.42617569  0.31680365  1
  Al  Al15  1  0.54716792  0.55474016  0.05927213  1
  Al  Al16  1  0.11005838  0.42551612  0.88754432  1
  Al  Al17  1  0.22276450  0.54268537  0.56554345  1
  Al  Al18  1  0.78691025  0.41670513  0.39112597  1
  Al  Al19  1  0.87992252  0.54171610  0.13821435  1
  Al  Al20  1  0.44636465  0.42801240  0.81534271  1
  Al  Al21  1  0.55280495  0.53646497  0.57661532  1
  Al  Al22  1  0.10858568  0.77282986  0.31624840  1
  Al  Al23  1  0.23598061  0.86647193  0.05753392  1
  Al  Al24  1  0.76501032  0.76338018  0.89667564  1
  Al  Al25  1  0.44423403  0.76273775  0.31679243  1
  Al  Al26  1  0.10830840  0.76204853  0.82068778  1
  Al  Al27  1  0.20668746  0.87465446  0.57944930  1
  Al  Al28  1  0.78080059  0.77251038  0.37772560  1
  Al  Al29  1  0.88549920  0.87654855  0.08811778  1
  Al  Al30  1  0.56009419  0.87441338  0.63864370  1
  B  B31  1  0.91509264  0.23545171  0.65040831  1
  B  B32  1  0.77533142  0.08968155  0.30423067  1
  B  B33  1  0.88064073  0.86408200  0.59999114  1
  B  B34  1  0.55918633  0.87281479  0.14504729  1
  B  B35  1  0.43962523  0.75763023  0.80568382  1
  N  N36  1  0.21818710  0.20449095  0.32064858  1
  N  N37  1  0.10268207  0.09995759  0.06228850  1
  N  N38  1  0.89284149  0.21549178  0.79680435  1
  N  N39  1  0.77739300  0.03977574  0.63303129  1
  N  N40  1  0.58482316  0.19622716  0.36858322  1
  N  N41  1  0.45349113  0.06566708  0.08307024  1
  N  N42  1  0.22877661  0.20597081  0.82117798  1
  N  N43  1  0.08077733  0.11729885  0.58618049  1
  N  N44  1  0.88055310  0.20006590  0.32343263  1
  N  N45  1  0.76752802  0.09597379  0.14539937  1
  N  N46  1  0.56181717  0.20779004  0.88411345  1
  N  N47  1  0.43839531  0.08402962  0.56064056  1
  N  N48  1  0.22687728  0.54552380  0.37666263  1
  N  N49  1  0.10748511  0.42508402  0.07669692  1
  N  N50  1  0.89022298  0.54667558  0.82226651  1
  N  N51  1  0.79790865  0.40315009  0.58587178  1
  N  N52  1  0.55351496  0.54630759  0.38854161  1
  N  N53  1  0.44772657  0.43122214  0.12963040  1
  N  N54  1  0.22676518  0.54197789  0.87840435  1
  N  N55  1  0.11133906  0.42180525  0.57150737  1
  N  N56  1  0.88641261  0.54076516  0.32474296  1
  N  N57  1  0.78147089  0.42310331  0.06427834  1
  N  N58  1  0.53861927  0.56874251  0.86582561  1
  N  N59  1  0.44917550  0.41396020  0.62885432  1
  N  N60  1  0.22736570  0.87066826  0.39174904  1
  N  N61  1  0.11990558  0.76286277  0.12862311  1
  N  N62  1  0.89223391  0.87864694  0.89605959  1
  N  N63  1  0.78856389  0.76251670  0.57028092  1
  N  N64  1  0.56438384  0.87755823  0.30438507  1
  N  N65  1  0.45221346  0.77177411  0.12945764  1
  N  N66  1  0.24891705  0.85722438  0.86358307  1
  N  N67  1  0.07605756  0.76938059  0.63055651  1
  N  N68  1  0.87877046  0.90193235  0.34429705  1
  N  N69  1  0.74764291  0.76949480  0.08488831  1
  N  N70  1  0.54790428  0.86241672  0.82327477  1
  N  N71  1  0.43370930  0.75560298  0.64636404  1
