# generated using pymatgen
data_Al31B5N36
_symmetry_space_group_name_H-M   'P 1'
_cell_length_a   9.18560764
_cell_length_b   9.14547277
_cell_length_c   10.14058465
_cell_angle_alpha   89.68025566
_cell_angle_beta   89.77721026
_cell_angle_gamma   60.18267299
_symmetry_Int_Tables_number   1
_chemical_formula_structural   Al31B5N36
_chemical_formula_sum   'Al31 B5 N36'
_cell_volume   739.08951158
_cell_formula_units_Z   1
loop_
 _symmetry_equiv_pos_site_id
 _symmetry_equiv_pos_as_xyz
  1  'x, y, z'
loop_
 _atom_site_type_symbol
 _atom_site_label
 _atom_site_symmetry_multiplicity
 _atom_site_fract_x
 _atom_site_fract_y
 _atom_site_fract_z
 _atom_site_occupancy
  Al  Al0  1  0.10378659  0.08639277  0.31801794  1
  Al  Al1  1  0.22945897  0.20386908  0.13949054  1
  Al  Al2  1  0.78031453  0.08948495  0.82145382  1
  Al  Al3  1  0.44813483  0.08844764  0.39382248  1
  Al  Al4  1  0.56112471  0.20348305  0.07026372  1
  Al  Al5  1  0.10506429  0.09019663  0.81484917  1
  Al  Al6  1  0.22061174  0.21432127  0.63807480  1
  Al  Al7  1  0.88873772  0.20305586  0.07248770  1
  Al  Al8  1  0.44198961  0.08121617  0.88014972  1
  Al  Al9  1  0.57800252  0.20109352  0.56340257  1
  Al  Al10  1  0.11016219  0.42312571  0.38704040  1
  Al  Al11  1  0.22431602  0.54406684  0.06610949  1
  Al  Al12  1  0.77269957  0.43587731  0.88263830  1
  Al  Al13  1  0.89183975  0.53847732  0.64065023  1
  Al  Al14  1  0.45349136  0.41970075  0.31632330  1
  Al  Al15  1  0.54395155  0.55695745  0.06506888  1
  Al  Al16  1  0.10464685  0.42536946  0.89020746  1
  Al  Al17  1  0.22090154  0.54679059  0.56754705  1
  Al  Al18  1  0.78537827  0.41223144  0.39050382  1
  Al  Al19  1  0.87630712  0.54557107  0.14557974  1
  Al  Al20  1  0.44314717  0.43166912  0.81547319  1
  Al  Al21  1  0.55242423  0.53793335  0.57209541  1
  Al  Al22  1  0.11184380  0.76419174  0.31230037  1
  Al  Al23  1  0.23198697  0.87700930  0.05931186  1
  Al  Al24  1  0.76421791  0.76409005  0.88959330  1
  Al  Al25  1  0.45100215  0.76098337  0.32385331  1
  Al  Al26  1  0.10926031  0.76327758  0.82453221  1
  Al  Al27  1  0.21240797  0.87880033  0.56824336  1
  Al  Al28  1  0.78529030  0.77046236  0.39456398  1
  Al  Al29  1  0.88115352  0.87934163  0.10478441  1
  Al  Al30  1  0.55767880  0.87490986  0.61545731  1
  B  B31  1  0.89868922  0.18920770  0.57644312  1
  B  B32  1  0.77922768  0.09175819  0.30967731  1
  B  B33  1  0.89742800  0.87485379  0.60989218  1
  B  B34  1  0.55234100  0.87253881  0.10225916  1
  B  B35  1  0.44185481  0.76045473  0.80476237  1
  N  N36  1  0.22939821  0.20299225  0.32698063  1
  N  N37  1  0.10861575  0.09164405  0.12764472  1
  N  N38  1  0.88967474  0.19973928  0.88222647  1
  N  N39  1  0.80770296  0.07468531  0.62588633  1
  N  N40  1  0.58697964  0.18951669  0.37160614  1
  N  N41  1  0.45579107  0.06257817  0.07818572  1
  N  N42  1  0.22118334  0.20808266  0.82649885  1
  N  N43  1  0.08341961  0.10656106  0.62172550  1
  N  N44  1  0.88163313  0.17977296  0.37529614  1
  N  N45  1  0.76962492  0.10929354  0.14745167  1
  N  N46  1  0.55759852  0.20689875  0.87974470  1
  N  N47  1  0.43976874  0.10634400  0.58399086  1
  N  N48  1  0.22748986  0.54149731  0.37752970  1
  N  N49  1  0.10277161  0.42909245  0.08013726  1
  N  N50  1  0.88667903  0.54308301  0.82534153  1
  N  N51  1  0.79396706  0.39526115  0.58632260  1
  N  N52  1  0.55323179  0.53870419  0.38172849  1
  N  N53  1  0.44389261  0.42958522  0.12811502  1
  N  N54  1  0.22399617  0.54027666  0.87636719  1
  N  N55  1  0.10533794  0.42905719  0.57527637  1
  N  N56  1  0.88647451  0.54000609  0.33259363  1
  N  N57  1  0.77322524  0.43564625  0.07684872  1
  N  N58  1  0.53503381  0.57101594  0.87014690  1
  N  N59  1  0.44511808  0.42354660  0.62937125  1
  N  N60  1  0.22666204  0.86804329  0.38275307  1
  N  N61  1  0.12181410  0.76269260  0.12399745  1
  N  N62  1  0.89007376  0.87429187  0.89370039  1
  N  N63  1  0.80194739  0.78049169  0.59080989  1
  N  N64  1  0.55928941  0.85978063  0.39657623  1
  N  N65  1  0.45554467  0.78043221  0.13081709  1
  N  N66  1  0.24695445  0.86301803  0.86820572  1
  N  N67  1  0.08544885  0.77595065  0.63021068  1
  N  N68  1  0.87792527  0.89126605  0.32363099  1
  N  N69  1  0.73964931  0.77551265  0.08478993  1
  N  N70  1  0.54691295  0.86054338  0.81837878  1
  N  N71  1  0.43354977  0.75638740  0.64467193  1
