# generated using pymatgen
data_Al31B5N36
_symmetry_space_group_name_H-M   'P 1'
_cell_length_a   9.19010784
_cell_length_b   9.18609325
_cell_length_c   9.99324915
_cell_angle_alpha   89.54611770
_cell_angle_beta   89.27470250
_cell_angle_gamma   59.97303117
_symmetry_Int_Tables_number   1
_chemical_formula_structural   Al31B5N36
_chemical_formula_sum   'Al31 B5 N36'
_cell_volume   730.35699054
_cell_formula_units_Z   1
loop_
 _symmetry_equiv_pos_site_id
 _symmetry_equiv_pos_as_xyz
  1  'x, y, z'
loop_
 _atom_site_type_symbol
 _atom_site_label
 _atom_site_symmetry_multiplicity
 _atom_site_fract_x
 _atom_site_fract_y
 _atom_site_fract_z
 _atom_site_occupancy
  Al  Al0  1  0.09961546  0.09461394  0.40693212  1
  Al  Al1  1  0.22671589  0.19883423  0.15152549  1
  Al  Al2  1  0.78129809  0.09125080  0.86242524  1
  Al  Al3  1  0.44841706  0.09078539  0.39566437  1
  Al  Al4  1  0.55820134  0.20430171  0.07392879  1
  Al  Al5  1  0.11480469  0.09025373  0.89670941  1
  Al  Al6  1  0.21820555  0.20682716  0.65065651  1
  Al  Al7  1  0.88734681  0.20141940  0.14242998  1
  Al  Al8  1  0.43935194  0.07859298  0.90269267  1
  Al  Al9  1  0.57985289  0.19532605  0.58705840  1
  Al  Al10  1  0.10912120  0.42909080  0.40207495  1
  Al  Al11  1  0.21597028  0.54310747  0.15223315  1
  Al  Al12  1  0.77553158  0.43055954  0.89324219  1
  Al  Al13  1  0.88595241  0.53962579  0.65075249  1
  Al  Al14  1  0.45648862  0.41855355  0.33443376  1
  Al  Al15  1  0.55298964  0.55287903  0.10942728  1
  Al  Al16  1  0.11087177  0.42668773  0.90146774  1
  Al  Al17  1  0.20739189  0.54681157  0.64802200  1
  Al  Al18  1  0.78851028  0.41204710  0.40158010  1
  Al  Al19  1  0.88169232  0.54485953  0.15119187  1
  Al  Al20  1  0.44719346  0.43015087  0.82449071  1
  Al  Al21  1  0.55480752  0.53719054  0.58030626  1
  Al  Al22  1  0.09818386  0.77405705  0.40633404  1
  Al  Al23  1  0.22577595  0.87509132  0.15201231  1
  Al  Al24  1  0.76926949  0.76069358  0.90009748  1
  Al  Al25  1  0.44463175  0.76890811  0.37491756  1
  Al  Al26  1  0.11643826  0.75742668  0.89805903  1
  Al  Al27  1  0.21804739  0.87517062  0.64689013  1
  Al  Al28  1  0.77566485  0.77386054  0.40171293  1
  Al  Al29  1  0.88037191  0.88009162  0.14388272  1
  Al  Al30  1  0.55645224  0.87284664  0.64687066  1
  B  B31  1  0.89631282  0.19496151  0.66074356  1
  B  B32  1  0.77985543  0.09371338  0.36111858  1
  B  B33  1  0.89574925  0.87926959  0.66208877  1
  B  B34  1  0.55524712  0.87413800  0.15871110  1
  B  B35  1  0.44502334  0.75651865  0.85930308  1
  N  N36  1  0.21911568  0.20457447  0.34236074  1
  N  N37  1  0.11133276  0.09475191  0.08607876  1
  N  N38  1  0.89533283  0.20910809  0.82214087  1
  N  N39  1  0.80472901  0.08072080  0.63820373  1
  N  N40  1  0.59212157  0.18927447  0.38595243  1
  N  N41  1  0.45674379  0.06734221  0.09805952  1
  N  N42  1  0.22265055  0.20438616  0.83973309  1
  N  N43  1  0.08639331  0.10600596  0.59917721  1
  N  N44  1  0.87513446  0.18920039  0.33654505  1
  N  N45  1  0.78906853  0.08989921  0.06920638  1
  N  N46  1  0.54556865  0.20846648  0.88111663  1
  N  N47  1  0.44265486  0.09469671  0.58741819  1
  N  N48  1  0.21543818  0.54653432  0.34623009  1
  N  N49  1  0.11142351  0.42684131  0.09199623  1
  N  N50  1  0.88836341  0.53986148  0.83987896  1
  N  N51  1  0.79353326  0.39733767  0.59595287  1
  N  N52  1  0.56050489  0.53553181  0.37892285  1
  N  N53  1  0.45146276  0.42300394  0.14181039  1
  N  N54  1  0.21618319  0.54014754  0.83862608  1
  N  N55  1  0.10768419  0.42792876  0.58923982  1
  N  N56  1  0.88568078  0.54226560  0.34258365  1
  N  N57  1  0.78253507  0.42453227  0.08659234  1
  N  N58  1  0.53753796  0.56930202  0.87189242  1
  N  N59  1  0.44569233  0.42471621  0.63150392  1
  N  N60  1  0.21365180  0.87738285  0.34316291  1
  N  N61  1  0.11157774  0.76299265  0.08831322  1
  N  N62  1  0.89410678  0.85996923  0.82450371  1
  N  N63  1  0.78652275  0.77668549  0.59481328  1
  N  N64  1  0.56335175  0.87822461  0.32269048  1
  N  N65  1  0.45745520  0.77817826  0.13248087  1
  N  N66  1  0.25114570  0.85610635  0.84011487  1
  N  N67  1  0.08430282  0.77795425  0.59872885  1
  N  N68  1  0.87367137  0.90421273  0.33807885  1
  N  N69  1  0.75459126  0.77461401  0.09458713  1
  N  N70  1  0.54061022  0.85358452  0.83837147  1
  N  N71  1  0.43979565  0.77212900  0.57684893  1
