# generated using pymatgen
data_Al31B5N36
_symmetry_space_group_name_H-M   'P 1'
_cell_length_a   9.18684053
_cell_length_b   9.18367606
_cell_length_c   9.98101817
_cell_angle_alpha   89.75439687
_cell_angle_beta   89.33839217
_cell_angle_gamma   59.93969347
_symmetry_Int_Tables_number   1
_chemical_formula_structural   Al31B5N36
_chemical_formula_sum   'Al31 B5 N36'
_cell_volume   728.77651749
_cell_formula_units_Z   1
loop_
 _symmetry_equiv_pos_site_id
 _symmetry_equiv_pos_as_xyz
  1  'x, y, z'
loop_
 _atom_site_type_symbol
 _atom_site_label
 _atom_site_symmetry_multiplicity
 _atom_site_fract_x
 _atom_site_fract_y
 _atom_site_fract_z
 _atom_site_occupancy
  Al  Al0  1  0.09904734  0.09528063  0.40532347  1
  Al  Al1  1  0.22622571  0.19923354  0.15133224  1
  Al  Al2  1  0.78186049  0.09094867  0.86331330  1
  Al  Al3  1  0.44824349  0.08901346  0.39275828  1
  Al  Al4  1  0.55807486  0.20420295  0.07446319  1
  Al  Al5  1  0.11429671  0.09089281  0.89730892  1
  Al  Al6  1  0.21864473  0.20670789  0.65003077  1
  Al  Al7  1  0.88655198  0.20248628  0.14268288  1
  Al  Al8  1  0.43898246  0.07842943  0.90309825  1
  Al  Al9  1  0.58002519  0.19610194  0.58495144  1
  Al  Al10  1  0.10766296  0.42944083  0.40153825  1
  Al  Al11  1  0.21614295  0.54292511  0.15123179  1
  Al  Al12  1  0.77355162  0.43189249  0.89474080  1
  Al  Al13  1  0.88789341  0.54070842  0.65043860  1
  Al  Al14  1  0.45349913  0.41866427  0.33643103  1
  Al  Al15  1  0.55976440  0.54972469  0.14829650  1
  Al  Al16  1  0.10973215  0.42692193  0.90146939  1
  Al  Al17  1  0.20891385  0.54675245  0.64648787  1
  Al  Al18  1  0.77883149  0.41741806  0.40538254  1
  Al  Al19  1  0.88144186  0.54433452  0.15093715  1
  Al  Al20  1  0.44405322  0.42587653  0.82739288  1
  Al  Al21  1  0.56043525  0.54208408  0.63875738  1
  Al  Al22  1  0.09833388  0.77470063  0.40522580  1
  Al  Al23  1  0.22937601  0.87303558  0.14875248  1
  Al  Al24  1  0.76990719  0.76122775  0.89993528  1
  Al  Al25  1  0.44511333  0.76553713  0.38798908  1
  Al  Al26  1  0.11608420  0.75830609  0.89830006  1
  Al  Al27  1  0.21831625  0.87509245  0.64818867  1
  Al  Al28  1  0.77411247  0.77364385  0.39937916  1
  Al  Al29  1  0.88041181  0.88030156  0.14364141  1
  Al  Al30  1  0.55791230  0.87439869  0.64728231  1
  B  B31  1  0.89722399  0.19278014  0.66110868  1
  B  B32  1  0.77963335  0.09430333  0.36086489  1
  B  B33  1  0.89594454  0.87940748  0.66106174  1
  B  B34  1  0.55360328  0.87213509  0.15223697  1
  B  B35  1  0.44601284  0.75923805  0.86715599  1
  N  N36  1  0.21862661  0.20499892  0.34189955  1
  N  N37  1  0.11072856  0.09501082  0.08673819  1
  N  N38  1  0.89510461  0.20931965  0.82198105  1
  N  N39  1  0.80506445  0.08099443  0.63698972  1
  N  N40  1  0.59150779  0.18898046  0.38469691  1
  N  N41  1  0.45634499  0.06728312  0.09779082  1
  N  N42  1  0.22255754  0.20441308  0.83935651  1
  N  N43  1  0.08691900  0.10550359  0.59852716  1
  N  N44  1  0.87344614  0.19104977  0.33772525  1
  N  N45  1  0.78915684  0.08987068  0.06905433  1
  N  N46  1  0.54649519  0.20581348  0.88098014  1
  N  N47  1  0.44287466  0.09410933  0.58535822  1
  N  N48  1  0.21393410  0.54713400  0.34629400  1
  N  N49  1  0.11050606  0.42694283  0.09188003  1
  N  N50  1  0.88791386  0.54005370  0.83976930  1
  N  N51  1  0.79124512  0.40046780  0.59664012  1
  N  N52  1  0.56210789  0.53987652  0.34434314  1
  N  N53  1  0.44944629  0.42221723  0.13910366  1
  N  N54  1  0.21476445  0.54070086  0.83843853  1
  N  N55  1  0.10869898  0.42762244  0.58891235  1
  N  N56  1  0.88420875  0.54157474  0.34325550  1
  N  N57  1  0.77974915  0.42578110  0.08500499  1
  N  N58  1  0.54240133  0.56801003  0.84004375  1
  N  N59  1  0.44652698  0.42431214  0.62929678  1
  N  N60  1  0.21757713  0.87566181  0.34178998  1
  N  N61  1  0.11094002  0.76319008  0.08837282  1
  N  N62  1  0.89454456  0.86019185  0.82360550  1
  N  N63  1  0.78728942  0.77749234  0.59357717  1
  N  N64  1  0.55922979  0.87411944  0.31959374  1
  N  N65  1  0.45861919  0.77670448  0.10698059  1
  N  N66  1  0.25111690  0.85675747  0.84138678  1
  N  N67  1  0.08517346  0.77815371  0.59805091  1
  N  N68  1  0.87296640  0.90463522  0.33783834  1
  N  N69  1  0.75507113  0.77444986  0.09411216  1
  N  N70  1  0.54194114  0.85520996  0.83769064  1
  N  N71  1  0.44436380  0.76622420  0.57933609  1
