# generated using pymatgen
data_Al31B5N36
_symmetry_space_group_name_H-M   'P 1'
_cell_length_a   9.16957126
_cell_length_b   9.16792466
_cell_length_c   9.80120664
_cell_angle_alpha   90.11196414
_cell_angle_beta   90.02336948
_cell_angle_gamma   60.05080851
_symmetry_Int_Tables_number   1
_chemical_formula_structural   Al31B5N36
_chemical_formula_sum   'Al31 B5 N36'
_cell_volume   713.92311433
_cell_formula_units_Z   1
loop_
 _symmetry_equiv_pos_site_id
 _symmetry_equiv_pos_as_xyz
  1  'x, y, z'
loop_
 _atom_site_type_symbol
 _atom_site_label
 _atom_site_symmetry_multiplicity
 _atom_site_fract_x
 _atom_site_fract_y
 _atom_site_fract_z
 _atom_site_occupancy
  Al  Al0  1  0.10248414  0.09367253  0.40309567  1
  Al  Al1  1  0.22457562  0.20002488  0.14894522  1
  Al  Al2  1  0.77954094  0.09349536  0.88460363  1
  Al  Al3  1  0.45035512  0.08898144  0.39212499  1
  Al  Al4  1  0.56456134  0.19714756  0.15250710  1
  Al  Al5  1  0.11305637  0.09215259  0.89354338  1
  Al  Al6  1  0.21919478  0.20599699  0.64881965  1
  Al  Al7  1  0.88597953  0.20180327  0.15089892  1
  Al  Al8  1  0.44682441  0.08668388  0.90248537  1
  Al  Al9  1  0.56514824  0.19971257  0.64020434  1
  Al  Al10  1  0.10965383  0.42822289  0.39885234  1
  Al  Al11  1  0.22088413  0.54086621  0.15001074  1
  Al  Al12  1  0.77695151  0.42848912  0.89236587  1
  Al  Al13  1  0.88951975  0.54026194  0.64771873  1
  Al  Al14  1  0.44987243  0.42532684  0.39845784  1
  Al  Al15  1  0.55715184  0.54406897  0.14103852  1
  Al  Al16  1  0.11116777  0.42837628  0.90026492  1
  Al  Al17  1  0.21737979  0.54302167  0.64873922  1
  Al  Al18  1  0.77658823  0.41858524  0.40342590  1
  Al  Al19  1  0.88144423  0.54369434  0.14949412  1
  Al  Al20  1  0.44412799  0.43067804  0.89848080  1
  Al  Al21  1  0.55623789  0.54015137  0.65384003  1
  Al  Al22  1  0.10196289  0.77090611  0.40278533  1
  Al  Al23  1  0.22693653  0.87282004  0.14168538  1
  Al  Al24  1  0.77115800  0.76484205  0.89652847  1
  Al  Al25  1  0.44624266  0.76171314  0.39057125  1
  Al  Al26  1  0.11283250  0.76258692  0.89328993  1
  Al  Al27  1  0.22027238  0.87386588  0.65307131  1
  Al  Al28  1  0.77387636  0.77209866  0.39695491  1
  Al  Al29  1  0.88098029  0.88008335  0.15076409  1
  Al  Al30  1  0.55705496  0.87183732  0.65148312  1
  B  B31  1  0.89420259  0.19849263  0.64937975  1
  B  B32  1  0.78613149  0.09011860  0.40547708  1
  B  B33  1  0.89306789  0.87510192  0.64804835  1
  B  B34  1  0.55688635  0.87292350  0.14554563  1
  B  B35  1  0.44951046  0.76547832  0.90383099  1
  N  N36  1  0.21999294  0.20354259  0.34150529  1
  N  N37  1  0.10664118  0.09657297  0.08621880  1
  N  N38  1  0.88992820  0.20368405  0.81446475  1
  N  N39  1  0.80025615  0.08309421  0.58316248  1
  N  N40  1  0.58323584  0.19149485  0.35031954  1
  N  N41  1  0.45798458  0.07091526  0.09812595  1
  N  N42  1  0.22450883  0.20539806  0.84140650  1
  N  N43  1  0.08810288  0.10453295  0.59821295  1
  N  N44  1  0.87583266  0.19089917  0.34528366  1
  N  N45  1  0.77921444  0.09381755  0.07649516  1
  N  N46  1  0.55402417  0.20451721  0.83482411  1
  N  N47  1  0.44411468  0.09130245  0.58548729  1
  N  N48  1  0.22046835  0.54270243  0.34295265  1
  N  N49  1  0.10961729  0.42796661  0.09284564  1
  N  N50  1  0.88895707  0.54125911  0.83989255  1
  N  N51  1  0.78799400  0.40297027  0.59828653  1
  N  N52  1  0.55738339  0.53858544  0.33450478  1
  N  N53  1  0.44542074  0.42428936  0.09203490  1
  N  N54  1  0.22213308  0.53904607  0.83987532  1
  N  N55  1  0.11098187  0.42763993  0.58949757  1
  N  N56  1  0.88383662  0.54092935  0.34395243  1
  N  N57  1  0.78130132  0.42246206  0.08575286  1
  N  N58  1  0.54329789  0.56528539  0.84948108  1
  N  N59  1  0.44386261  0.43030891  0.59108353  1
  N  N60  1  0.22159947  0.87249365  0.33684779  1
  N  N61  1  0.10584903  0.76365607  0.08715062  1
  N  N62  1  0.88854019  0.87277467  0.81508834  1
  N  N63  1  0.78663063  0.77716320  0.59335507  1
  N  N64  1  0.55592422  0.87003805  0.31371508  1
  N  N65  1  0.45671986  0.77365161  0.07630878  1
  N  N66  1  0.24978858  0.85939769  0.84793732  1
  N  N67  1  0.08749924  0.77530110  0.59801957  1
  N  N68  1  0.87540023  0.90017824  0.34450082  1
  N  N69  1  0.75469569  0.77555561  0.09375854  1
  N  N70  1  0.54328345  0.86000892  0.84322808  1
  N  N71  1  0.44618754  0.76155425  0.58285228  1
