# generated using pymatgen
data_Al31B5N36
_symmetry_space_group_name_H-M   'P 1'
_cell_length_a   9.19825707
_cell_length_b   9.18033139
_cell_length_c   9.95192840
_cell_angle_alpha   90.23989088
_cell_angle_beta   89.93542086
_cell_angle_gamma   59.90342038
_symmetry_Int_Tables_number   1
_chemical_formula_structural   Al31B5N36
_chemical_formula_sum   'Al31 B5 N36'
_cell_volume   727.06203952
_cell_formula_units_Z   1
loop_
 _symmetry_equiv_pos_site_id
 _symmetry_equiv_pos_as_xyz
  1  'x, y, z'
loop_
 _atom_site_type_symbol
 _atom_site_label
 _atom_site_symmetry_multiplicity
 _atom_site_fract_x
 _atom_site_fract_y
 _atom_site_fract_z
 _atom_site_occupancy
  Al  Al0  1  0.10632939  0.09160478  0.32540957  1
  Al  Al1  1  0.22410364  0.20109428  0.07302506  1
  Al  Al2  1  0.78151287  0.08775724  0.82219968  1
  Al  Al3  1  0.45631409  0.08354215  0.32755387  1
  Al  Al4  1  0.56092948  0.20070106  0.07511166  1
  Al  Al5  1  0.10903967  0.09419344  0.81544778  1
  Al  Al6  1  0.21705053  0.20659198  0.56622800  1
  Al  Al7  1  0.88763229  0.20833458  0.07469337  1
  Al  Al8  1  0.44158887  0.09183230  0.81869421  1
  Al  Al9  1  0.57015524  0.19492473  0.56542404  1
  Al  Al10  1  0.11862136  0.42630452  0.32390490  1
  Al  Al11  1  0.22371826  0.54041655  0.06789648  1
  Al  Al12  1  0.77151988  0.42308274  0.81631519  1
  Al  Al13  1  0.88749754  0.54447972  0.63233304  1
  Al  Al14  1  0.45114787  0.42380509  0.31876419  1
  Al  Al15  1  0.55726705  0.54937904  0.06631217  1
  Al  Al16  1  0.11450641  0.42521608  0.82173709  1
  Al  Al17  1  0.21885250  0.54162947  0.57089482  1
  Al  Al18  1  0.77667962  0.41767745  0.33411937  1
  Al  Al19  1  0.87614600  0.55353471  0.14703956  1
  Al  Al20  1  0.44454734  0.43014756  0.81961886  1
  Al  Al21  1  0.55679497  0.53191372  0.57248051  1
  Al  Al22  1  0.10969622  0.76744858  0.31672953  1
  Al  Al23  1  0.23350990  0.87467434  0.06373854  1
  Al  Al24  1  0.75984250  0.76313450  0.89280322  1
  Al  Al25  1  0.44933792  0.76306482  0.32800712  1
  Al  Al26  1  0.10782402  0.76408332  0.82765626  1
  Al  Al27  1  0.21200426  0.87500201  0.57340578  1
  Al  Al28  1  0.78403999  0.77427431  0.39884832  1
  Al  Al29  1  0.88327041  0.88184448  0.10072803  1
  Al  Al30  1  0.55389490  0.87316054  0.60504681  1
  B  B31  1  0.89397159  0.19197966  0.56269074  1
  B  B32  1  0.77756862  0.09153738  0.31601119  1
  B  B33  1  0.89482014  0.87618195  0.60865032  1
  B  B34  1  0.55293644  0.87399961  0.11106300  1
  B  B35  1  0.44320591  0.76151985  0.80833596  1
  N  N36  1  0.22535264  0.20282030  0.37680931  1
  N  N37  1  0.11014967  0.09421472  0.13375746  1
  N  N38  1  0.88717836  0.20369254  0.88488379  1
  N  N39  1  0.80400430  0.07220284  0.62497137  1
  N  N40  1  0.58209770  0.19120588  0.37243482  1
  N  N41  1  0.45980352  0.06579685  0.12963920  1
  N  N42  1  0.22022894  0.20408266  0.88268550  1
  N  N43  1  0.08466775  0.10699488  0.62074459  1
  N  N44  1  0.88107548  0.18988429  0.39656675  1
  N  N45  1  0.77369053  0.10954277  0.15268729  1
  N  N46  1  0.55715692  0.20251497  0.88281522  1
  N  N47  1  0.43851870  0.10519102  0.62856903  1
  N  N48  1  0.22438521  0.54209987  0.38119668  1
  N  N49  1  0.11372927  0.42905111  0.12986718  1
  N  N50  1  0.88156945  0.54420640  0.83094609  1
  N  N51  1  0.78840531  0.39492254  0.61964976  1
  N  N52  1  0.55326564  0.54036854  0.38380080  1
  N  N53  1  0.44615565  0.43058895  0.12754123  1
  N  N54  1  0.22223172  0.53893495  0.87867557  1
  N  N55  1  0.11688193  0.42453980  0.62834587  1
  N  N56  1  0.88576606  0.54735629  0.34615955  1
  N  N57  1  0.77303292  0.42748033  0.13703323  1
  N  N58  1  0.54313075  0.56323049  0.87258316  1
  N  N59  1  0.44590693  0.42127605  0.62928347  1
  N  N60  1  0.22539547  0.86950139  0.38445852  1
  N  N61  1  0.12162747  0.76221455  0.12583452  1
  N  N62  1  0.88748329  0.87447356  0.89689347  1
  N  N63  1  0.79933412  0.78127209  0.59370648  1
  N  N64  1  0.55290270  0.87118140  0.40146126  1
  N  N65  1  0.45900367  0.77857557  0.13221916  1
  N  N66  1  0.24511441  0.86241870  0.86915051  1
  N  N67  1  0.08351960  0.77499641  0.63106205  1
  N  N68  1  0.87675000  0.89723453  0.33537418  1
  N  N69  1  0.74045665  0.77842608  0.09083809  1
  N  N70  1  0.54160220  0.85874513  0.83080675  1
  N  N71  1  0.43607771  0.75309839  0.64533003  1
