# generated using pymatgen
data_Al31B5N36
_symmetry_space_group_name_H-M   'P 1'
_cell_length_a   9.19293810
_cell_length_b   9.19018512
_cell_length_c   9.92059004
_cell_angle_alpha   90.00301267
_cell_angle_beta   89.52124515
_cell_angle_gamma   59.93868174
_symmetry_Int_Tables_number   1
_chemical_formula_structural   Al31B5N36
_chemical_formula_sum   'Al31 B5 N36'
_cell_volume   725.36681971
_cell_formula_units_Z   1
loop_
 _symmetry_equiv_pos_site_id
 _symmetry_equiv_pos_as_xyz
  1  'x, y, z'
loop_
 _atom_site_type_symbol
 _atom_site_label
 _atom_site_symmetry_multiplicity
 _atom_site_fract_x
 _atom_site_fract_y
 _atom_site_fract_z
 _atom_site_occupancy
  Al  Al0  1  0.09997173  0.09391242  0.40409145  1
  Al  Al1  1  0.22540974  0.19968528  0.15061820  1
  Al  Al2  1  0.78203428  0.09134316  0.86229511  1
  Al  Al3  1  0.44839662  0.08727484  0.39009498  1
  Al  Al4  1  0.55855140  0.20272460  0.07353463  1
  Al  Al5  1  0.11359859  0.09164358  0.89707978  1
  Al  Al6  1  0.21911846  0.20630101  0.64850850  1
  Al  Al7  1  0.88620293  0.20241131  0.14337494  1
  Al  Al8  1  0.43940597  0.07995079  0.90009136  1
  Al  Al9  1  0.57902370  0.19740233  0.58526222  1
  Al  Al10  1  0.10792576  0.42950286  0.40089641  1
  Al  Al11  1  0.21463156  0.54277087  0.14984667  1
  Al  Al12  1  0.77556299  0.43068435  0.89427120  1
  Al  Al13  1  0.88849359  0.54104863  0.64890395  1
  Al  Al14  1  0.45358227  0.41928825  0.33359441  1
  Al  Al15  1  0.55856539  0.54769027  0.13984173  1
  Al  Al16  1  0.10966534  0.42737544  0.90022788  1
  Al  Al17  1  0.21099756  0.54657701  0.64668043  1
  Al  Al18  1  0.77582084  0.41946527  0.40460288  1
  Al  Al19  1  0.88109208  0.54385974  0.15062009  1
  Al  Al20  1  0.44420565  0.42736937  0.83195354  1
  Al  Al21  1  0.56105848  0.54420193  0.64903885  1
  Al  Al22  1  0.09944111  0.77445616  0.40417353  1
  Al  Al23  1  0.22731570  0.87263062  0.14332960  1
  Al  Al24  1  0.77135153  0.76234307  0.89764974  1
  Al  Al25  1  0.44480655  0.76380861  0.39176058  1
  Al  Al26  1  0.11519391  0.76001399  0.89789867  1
  Al  Al27  1  0.22072232  0.87413713  0.65416082  1
  Al  Al28  1  0.77224117  0.77346118  0.39756212  1
  Al  Al29  1  0.87927107  0.88084128  0.14384745  1
  Al  Al30  1  0.55797242  0.87370236  0.65061698  1
  B  B31  1  0.89795524  0.19173040  0.66017331  1
  B  B32  1  0.77909991  0.09446856  0.36197767  1
  B  B33  1  0.89672450  0.87973341  0.65956011  1
  B  B34  1  0.55607984  0.87347750  0.14459526  1
  B  B35  1  0.44963883  0.76241882  0.90116414  1
  N  N36  1  0.21843436  0.20480312  0.34161621  1
  N  N37  1  0.10976123  0.09581652  0.08748559  1
  N  N38  1  0.89530839  0.20906432  0.82118557  1
  N  N39  1  0.80559798  0.08092656  0.63436294  1
  N  N40  1  0.59026105  0.18945830  0.38270614  1
  N  N41  1  0.45590717  0.06676197  0.09632848  1
  N  N42  1  0.22217367  0.20486655  0.83880209  1
  N  N43  1  0.08812198  0.10384308  0.59810146  1
  N  N44  1  0.87280224  0.19105076  0.33867597  1
  N  N45  1  0.78899211  0.08963898  0.06893919  1
  N  N46  1  0.54719142  0.20536738  0.87949823  1
  N  N47  1  0.44409861  0.09230273  0.58418276  1
  N  N48  1  0.21455287  0.54662984  0.34554494  1
  N  N49  1  0.10938145  0.42665506  0.09159499  1
  N  N50  1  0.88830304  0.54041117  0.83919731  1
  N  N51  1  0.78963279  0.40256145  0.59665042  1
  N  N52  1  0.56078053  0.54292079  0.33600542  1
  N  N53  1  0.44743377  0.42150802  0.13532384  1
  N  N54  1  0.21474330  0.54135055  0.83965706  1
  N  N55  1  0.10995195  0.42763870  0.58883173  1
  N  N56  1  0.88392158  0.54149050  0.34328654  1
  N  N57  1  0.78117145  0.42445074  0.08509806  1
  N  N58  1  0.54391484  0.56675007  0.84836367  1
  N  N59  1  0.44826866  0.42533111  0.63132628  1
  N  N60  1  0.22061277  0.87358035  0.33714036  1
  N  N61  1  0.10795281  0.76284982  0.08878882  1
  N  N62  1  0.89489397  0.86107113  0.82220140  1
  N  N63  1  0.78649811  0.77778090  0.59247175  1
  N  N64  1  0.55564499  0.87091222  0.31266310  1
  N  N65  1  0.45587926  0.77340945  0.07580948  1
  N  N66  1  0.24928403  0.85882748  0.84775697  1
  N  N67  1  0.08690062  0.77828448  0.59792490  1
  N  N68  1  0.87196699  0.90468974  0.33836012  1
  N  N69  1  0.75389612  0.77475011  0.09309911  1
  N  N70  1  0.54435117  0.85658345  0.84093890  1
  N  N71  1  0.44529547  0.76488382  0.58186854  1
