# generated using pymatgen
data_Al31B5N36
_symmetry_space_group_name_H-M   'P 1'
_cell_length_a   9.18309621
_cell_length_b   9.18544585
_cell_length_c   9.85542339
_cell_angle_alpha   90.02240886
_cell_angle_beta   89.55921344
_cell_angle_gamma   59.99736269
_symmetry_Int_Tables_number   1
_chemical_formula_structural   Al31B5N36
_chemical_formula_sum   'Al31 B5 N36'
_cell_volume   719.88926748
_cell_formula_units_Z   1
loop_
 _symmetry_equiv_pos_site_id
 _symmetry_equiv_pos_as_xyz
  1  'x, y, z'
loop_
 _atom_site_type_symbol
 _atom_site_label
 _atom_site_symmetry_multiplicity
 _atom_site_fract_x
 _atom_site_fract_y
 _atom_site_fract_z
 _atom_site_occupancy
  Al  Al0  1  0.09944344  0.09369778  0.40345205  1
  Al  Al1  1  0.22461493  0.20044108  0.15026194  1
  Al  Al2  1  0.78340788  0.09141059  0.86469216  1
  Al  Al3  1  0.45079908  0.08888510  0.38942620  1
  Al  Al4  1  0.56120551  0.19838889  0.09738430  1
  Al  Al5  1  0.11477157  0.09172444  0.89663986  1
  Al  Al6  1  0.21823320  0.20610216  0.64777321  1
  Al  Al7  1  0.88620341  0.20270236  0.14375492  1
  Al  Al8  1  0.44199686  0.08269430  0.89774640  1
  Al  Al9  1  0.57163314  0.19624062  0.62607863  1
  Al  Al10  1  0.10835479  0.42905126  0.39993057  1
  Al  Al11  1  0.22031612  0.54108041  0.15156086  1
  Al  Al12  1  0.77723504  0.43016954  0.89367084  1
  Al  Al13  1  0.88842559  0.54060154  0.64787935  1
  Al  Al14  1  0.44952086  0.42652697  0.39685361  1
  Al  Al15  1  0.55714755  0.54534694  0.14199402  1
  Al  Al16  1  0.11111356  0.42807488  0.89939918  1
  Al  Al17  1  0.21648623  0.54349933  0.64822714  1
  Al  Al18  1  0.77483152  0.41882410  0.40396836  1
  Al  Al19  1  0.88169976  0.54376969  0.15016440  1
  Al  Al20  1  0.44021839  0.43770573  0.89506773  1
  Al  Al21  1  0.55735242  0.53986830  0.65272287  1
  Al  Al22  1  0.09839999  0.77460752  0.40348326  1
  Al  Al23  1  0.22745233  0.87247955  0.14291303  1
  Al  Al24  1  0.77150042  0.76255521  0.89720948  1
  Al  Al25  1  0.44491645  0.76287547  0.39101435  1
  Al  Al26  1  0.11467549  0.76059598  0.89672671  1
  Al  Al27  1  0.22118566  0.87338082  0.65364020  1
  Al  Al28  1  0.77178167  0.77399312  0.39729597  1
  Al  Al29  1  0.88047725  0.87952278  0.14371904  1
  Al  Al30  1  0.55807859  0.87057381  0.65011694  1
  B  B31  1  0.89780071  0.19132888  0.65917969  1
  B  B32  1  0.77409603  0.09668270  0.36071615  1
  B  B33  1  0.89742192  0.87892974  0.65853502  1
  B  B34  1  0.55663138  0.87154287  0.14434004  1
  B  B35  1  0.44995552  0.76413950  0.90240058  1
  N  N36  1  0.21891101  0.20402455  0.34203847  1
  N  N37  1  0.10954995  0.09577515  0.08775854  1
  N  N38  1  0.89647540  0.20834385  0.82144579  1
  N  N39  1  0.80705876  0.07979119  0.63075466  1
  N  N40  1  0.58620847  0.19060003  0.36018983  1
  N  N41  1  0.45573909  0.06783924  0.09435700  1
  N  N42  1  0.22290132  0.20543874  0.83913094  1
  N  N43  1  0.08844927  0.10315659  0.59810363  1
  N  N44  1  0.87236441  0.19088931  0.33879244  1
  N  N45  1  0.78747698  0.09004833  0.06700336  1
  N  N46  1  0.54887140  0.20634525  0.85421297  1
  N  N47  1  0.44473463  0.09071330  0.58477347  1
  N  N48  1  0.21890317  0.54414128  0.34376478  1
  N  N49  1  0.11069442  0.42759877  0.09226761  1
  N  N50  1  0.88946634  0.54066854  0.83941153  1
  N  N51  1  0.78800099  0.40214168  0.59788413  1
  N  N52  1  0.55672618  0.53978514  0.33419273  1
  N  N53  1  0.44269408  0.43168965  0.08935122  1
  N  N54  1  0.22097094  0.53966268  0.83818800  1
  N  N55  1  0.11076571  0.42780144  0.58929261  1
  N  N56  1  0.88321213  0.54149443  0.34388754  1
  N  N57  1  0.78069666  0.42463632  0.08582386  1
  N  N58  1  0.54412659  0.56591707  0.84773906  1
  N  N59  1  0.44456072  0.42988332  0.59097287  1
  N  N60  1  0.22052513  0.87310892  0.33723233  1
  N  N61  1  0.10814406  0.76233637  0.08890085  1
  N  N62  1  0.89504941  0.86140272  0.82231952  1
  N  N63  1  0.78646635  0.77729312  0.59277518  1
  N  N64  1  0.55500931  0.87037669  0.31236639  1
  N  N65  1  0.45701893  0.77296528  0.07615244  1
  N  N66  1  0.24993446  0.85897264  0.84844353  1
  N  N67  1  0.08795968  0.77630113  0.59834280  1
  N  N68  1  0.87154019  0.90441848  0.33806818  1
  N  N69  1  0.75389876  0.77474294  0.09302897  1
  N  N70  1  0.54435894  0.85724724  0.84142519  1
  N  N71  1  0.44620409  0.76146543  0.58227187  1
