# generated using pymatgen
data_Al31B5N36
_symmetry_space_group_name_H-M   'P 1'
_cell_length_a   9.15006037
_cell_length_b   9.19358432
_cell_length_c   10.20607572
_cell_angle_alpha   89.62919158
_cell_angle_beta   89.43538281
_cell_angle_gamma   60.12715214
_symmetry_Int_Tables_number   1
_chemical_formula_structural   Al31B5N36
_chemical_formula_sum   'Al31 B5 N36'
_cell_volume   744.44303496
_cell_formula_units_Z   1
loop_
 _symmetry_equiv_pos_site_id
 _symmetry_equiv_pos_as_xyz
  1  'x, y, z'
loop_
 _atom_site_type_symbol
 _atom_site_label
 _atom_site_symmetry_multiplicity
 _atom_site_fract_x
 _atom_site_fract_y
 _atom_site_fract_z
 _atom_site_occupancy
  Al  Al0  1  0.09659338  0.10465160  0.39335664  1
  Al  Al1  1  0.22215635  0.19814337  0.13587654  1
  Al  Al2  1  0.77741220  0.08498658  0.80805277  1
  Al  Al3  1  0.44581922  0.09033005  0.37388304  1
  Al  Al4  1  0.55933929  0.20366380  0.07386541  1
  Al  Al5  1  0.11198880  0.09755985  0.87621382  1
  Al  Al6  1  0.22579530  0.20488004  0.63687636  1
  Al  Al7  1  0.88699943  0.20800900  0.13949589  1
  Al  Al8  1  0.44501649  0.07978850  0.89391173  1
  Al  Al9  1  0.57548787  0.18756929  0.55776313  1
  Al  Al10  1  0.11239376  0.42905056  0.38685997  1
  Al  Al11  1  0.22060076  0.53763031  0.14131113  1
  Al  Al12  1  0.77901000  0.43264879  0.87779510  1
  Al  Al13  1  0.89422296  0.54203448  0.63835329  1
  Al  Al14  1  0.46256803  0.42195993  0.31972283  1
  Al  Al15  1  0.54678821  0.55446060  0.05974090  1
  Al  Al16  1  0.11389540  0.42995545  0.88931429  1
  Al  Al17  1  0.21890629  0.53605032  0.63246975  1
  Al  Al18  1  0.78835353  0.41698293  0.39231717  1
  Al  Al19  1  0.87978778  0.54176609  0.13911842  1
  Al  Al20  1  0.45396689  0.42421256  0.81676642  1
  Al  Al21  1  0.55328578  0.53648520  0.57664266  1
  Al  Al22  1  0.10409192  0.77997906  0.31996732  1
  Al  Al23  1  0.23564355  0.86614129  0.05823829  1
  Al  Al24  1  0.76416689  0.76244277  0.89707488  1
  Al  Al25  1  0.44415537  0.76257732  0.31706257  1
  Al  Al26  1  0.10484472  0.76878162  0.82215015  1
  Al  Al27  1  0.20689301  0.87409892  0.57917537  1
  Al  Al28  1  0.78021073  0.77185570  0.37935200  1
  Al  Al29  1  0.88491778  0.87691409  0.08581946  1
  Al  Al30  1  0.55976284  0.87441022  0.63955678  1
  B  B31  1  0.91498878  0.23544237  0.65133705  1
  B  B32  1  0.77489391  0.08897640  0.30637468  1
  B  B33  1  0.88023024  0.86659906  0.59677425  1
  B  B34  1  0.55887410  0.87267897  0.14606912  1
  B  B35  1  0.43934083  0.75781749  0.80666204  1
  N  N36  1  0.21713740  0.20626918  0.32223753  1
  N  N37  1  0.10228117  0.10053301  0.06381118  1
  N  N38  1  0.89244750  0.21529418  0.79781876  1
  N  N39  1  0.77610832  0.04099217  0.63309555  1
  N  N40  1  0.58545246  0.19414544  0.36933721  1
  N  N41  1  0.45307898  0.06547048  0.08444046  1
  N  N42  1  0.22790869  0.20707187  0.82335845  1
  N  N43  1  0.08075102  0.11793093  0.58720022  1
  N  N44  1  0.88019046  0.20032476  0.32503860  1
  N  N45  1  0.76823639  0.09384349  0.14735433  1
  N  N46  1  0.56240171  0.20632031  0.88593100  1
  N  N47  1  0.43749022  0.08387744  0.56165229  1
  N  N48  1  0.22350810  0.54085459  0.33489964  1
  N  N49  1  0.11075391  0.42825087  0.07609960  1
  N  N50  1  0.89078359  0.54587306  0.82434559  1
  N  N51  1  0.79924057  0.40344582  0.58678420  1
  N  N52  1  0.55457165  0.54694078  0.38964398  1
  N  N53  1  0.45419391  0.42789132  0.12941325  1
  N  N54  1  0.22187971  0.53832212  0.82512780  1
  N  N55  1  0.11350069  0.42409653  0.57264847  1
  N  N56  1  0.88805926  0.54020690  0.32619335  1
  N  N57  1  0.78209835  0.42259192  0.06577055  1
  N  N58  1  0.53881440  0.56881114  0.86768561  1
  N  N59  1  0.45874848  0.40811389  0.62739547  1
  N  N60  1  0.22803808  0.87158775  0.39252706  1
  N  N61  1  0.11565385  0.76879253  0.12816529  1
  N  N62  1  0.89023116  0.87913008  0.89599522  1
  N  N63  1  0.78746779  0.76253193  0.57138722  1
  N  N64  1  0.56427783  0.87737230  0.30521464  1
  N  N65  1  0.45186094  0.77132202  0.13008160  1
  N  N66  1  0.24867695  0.85773246  0.86541268  1
  N  N67  1  0.07199935  0.77652516  0.62767290  1
  N  N68  1  0.87674891  0.90383741  0.35088669  1
  N  N69  1  0.74738099  0.76937306  0.08571280  1
  N  N70  1  0.54693238  0.86238480  0.82434844  1
  N  N71  1  0.43301994  0.75491878  0.64768637  1
