# generated using pymatgen
data_Al31B5N36
_symmetry_space_group_name_H-M   'P 1'
_cell_length_a   9.13885977
_cell_length_b   9.18260385
_cell_length_c   10.23780732
_cell_angle_alpha   89.60012559
_cell_angle_beta   89.39231838
_cell_angle_gamma   60.18936182
_symmetry_Int_Tables_number   1
_chemical_formula_structural   Al31B5N36
_chemical_formula_sum   'Al31 B5 N36'
_cell_volume   745.41085470
_cell_formula_units_Z   1
loop_
 _symmetry_equiv_pos_site_id
 _symmetry_equiv_pos_as_xyz
  1  'x, y, z'
loop_
 _atom_site_type_symbol
 _atom_site_label
 _atom_site_symmetry_multiplicity
 _atom_site_fract_x
 _atom_site_fract_y
 _atom_site_fract_z
 _atom_site_occupancy
  Al  Al0  1  0.09653517  0.10455232  0.39326155  1
  Al  Al1  1  0.22224173  0.19852062  0.13599683  1
  Al  Al2  1  0.77728620  0.08511464  0.80795616  1
  Al  Al3  1  0.44577523  0.09014927  0.37379393  1
  Al  Al4  1  0.55953938  0.20363300  0.07337022  1
  Al  Al5  1  0.11193638  0.09799587  0.87625188  1
  Al  Al6  1  0.22561080  0.20454429  0.63651694  1
  Al  Al7  1  0.88710753  0.20836395  0.13936527  1
  Al  Al8  1  0.44492391  0.07982672  0.89379653  1
  Al  Al9  1  0.57512945  0.18735289  0.55768505  1
  Al  Al10  1  0.11273738  0.42944877  0.38702485  1
  Al  Al11  1  0.22090783  0.53770786  0.14094851  1
  Al  Al12  1  0.77948679  0.43269276  0.87784177  1
  Al  Al13  1  0.89412078  0.54165855  0.63811494  1
  Al  Al14  1  0.46275189  0.42169051  0.31876954  1
  Al  Al15  1  0.54723553  0.55463411  0.05952812  1
  Al  Al16  1  0.11398684  0.42993768  0.88959706  1
  Al  Al17  1  0.21862759  0.53542576  0.63574591  1
  Al  Al18  1  0.78829083  0.41702833  0.39226947  1
  Al  Al19  1  0.88017501  0.54196503  0.13926110  1
  Al  Al20  1  0.45488862  0.42408945  0.81736106  1
  Al  Al21  1  0.55257951  0.53624578  0.57631458  1
  Al  Al22  1  0.10400863  0.78007351  0.31854674  1
  Al  Al23  1  0.23595899  0.86662123  0.05800429  1
  Al  Al24  1  0.76415358  0.76249987  0.89703914  1
  Al  Al25  1  0.44408650  0.76244597  0.31687212  1
  Al  Al26  1  0.10497876  0.76939177  0.82325092  1
  Al  Al27  1  0.20627731  0.87343295  0.57876630  1
  Al  Al28  1  0.78022129  0.77205401  0.37927429  1
  Al  Al29  1  0.88470959  0.87733570  0.08566841  1
  Al  Al30  1  0.55940633  0.87420655  0.63946285  1
  B  B31  1  0.91483260  0.23537694  0.65095474  1
  B  B32  1  0.77493383  0.08903810  0.30590899  1
  B  B33  1  0.87976061  0.86565807  0.59870039  1
  B  B34  1  0.55890608  0.87264370  0.14583305  1
  B  B35  1  0.43938416  0.75795555  0.80677989  1
  N  N36  1  0.21711704  0.20648910  0.32200331  1
  N  N37  1  0.10227719  0.10112439  0.06335797  1
  N  N38  1  0.89257735  0.21550459  0.79722726  1
  N  N39  1  0.77514945  0.04031683  0.63378592  1
  N  N40  1  0.58553610  0.19420249  0.36959380  1
  N  N41  1  0.45298248  0.06540877  0.08393761  1
  N  N42  1  0.22806489  0.20735853  0.82265814  1
  N  N43  1  0.08030156  0.11761982  0.58666138  1
  N  N44  1  0.88030842  0.20051614  0.32444344  1
  N  N45  1  0.76797602  0.09428638  0.14729107  1
  N  N46  1  0.56269272  0.20629095  0.88622313  1
  N  N47  1  0.43708124  0.08325431  0.56094244  1
  N  N48  1  0.22344433  0.54078703  0.33265707  1
  N  N49  1  0.11096106  0.42837682  0.07566422  1
  N  N50  1  0.89118314  0.54608455  0.82375349  1
  N  N51  1  0.79896999  0.40315878  0.58629121  1
  N  N52  1  0.55422006  0.54685505  0.38983165  1
  N  N53  1  0.45478446  0.42773020  0.12901758  1
  N  N54  1  0.22241665  0.53854795  0.82622850  1
  N  N55  1  0.11382962  0.42420862  0.57255645  1
  N  N56  1  0.88824171  0.54031772  0.32603911  1
  N  N57  1  0.78266801  0.42275407  0.06530120  1
  N  N58  1  0.53921855  0.56912255  0.86812181  1
  N  N59  1  0.45870344  0.40745328  0.62856201  1
  N  N60  1  0.22786328  0.87118438  0.39259978  1
  N  N61  1  0.11573681  0.76911652  0.12731363  1
  N  N62  1  0.89003412  0.87972279  0.89633207  1
  N  N63  1  0.78723056  0.76210437  0.57107788  1
  N  N64  1  0.56438959  0.87744322  0.30465208  1
  N  N65  1  0.45188775  0.77127842  0.13032497  1
  N  N66  1  0.24908863  0.85812280  0.86596650  1
  N  N67  1  0.07140658  0.77615459  0.62937209  1
  N  N68  1  0.87679372  0.90378991  0.34944304  1
  N  N69  1  0.74730686  0.76934436  0.08524550  1
  N  N70  1  0.54707637  0.86253474  0.82381595  1
  N  N71  1  0.43239367  0.75454947  0.64804636  1
