# generated using pymatgen
data_Al31B5N36
_symmetry_space_group_name_H-M   'P 1'
_cell_length_a   9.16995651
_cell_length_b   9.20599295
_cell_length_c   10.19437670
_cell_angle_alpha   89.50904455
_cell_angle_beta   89.20917838
_cell_angle_gamma   59.89404352
_symmetry_Int_Tables_number   1
_chemical_formula_structural   Al31B5N36
_chemical_formula_sum   'Al31 B5 N36'
_cell_volume   744.42746162
_cell_formula_units_Z   1
loop_
 _symmetry_equiv_pos_site_id
 _symmetry_equiv_pos_as_xyz
  1  'x, y, z'
loop_
 _atom_site_type_symbol
 _atom_site_label
 _atom_site_symmetry_multiplicity
 _atom_site_fract_x
 _atom_site_fract_y
 _atom_site_fract_z
 _atom_site_occupancy
  Al  Al0  1  0.09659482  0.10170528  0.39288161  1
  Al  Al1  1  0.22225072  0.19691000  0.13697219  1
  Al  Al2  1  0.78075429  0.08554276  0.81043613  1
  Al  Al3  1  0.44646526  0.08822714  0.38572763  1
  Al  Al4  1  0.55772590  0.20439937  0.06955950  1
  Al  Al5  1  0.11165912  0.09742351  0.87693239  1
  Al  Al6  1  0.22317720  0.20938738  0.63945512  1
  Al  Al7  1  0.88607734  0.20943387  0.13980064  1
  Al  Al8  1  0.44618640  0.08155740  0.88343223  1
  Al  Al9  1  0.57803080  0.19096857  0.56181991  1
  Al  Al10  1  0.11045665  0.42432990  0.38402187  1
  Al  Al11  1  0.22607866  0.54262557  0.06994458  1
  Al  Al12  1  0.77741457  0.43441844  0.87822389  1
  Al  Al13  1  0.89636809  0.54142856  0.64014027  1
  Al  Al14  1  0.45499843  0.42211609  0.31784432  1
  Al  Al15  1  0.54666286  0.55406963  0.06139255  1
  Al  Al16  1  0.10938585  0.42681076  0.89053672  1
  Al  Al17  1  0.22346702  0.54287176  0.56681778  1
  Al  Al18  1  0.78657082  0.41529273  0.39168156  1
  Al  Al19  1  0.87757996  0.54241102  0.14090255  1
  Al  Al20  1  0.44630305  0.43052766  0.81562236  1
  Al  Al21  1  0.55256900  0.53813879  0.57541250  1
  Al  Al22  1  0.10833190  0.77034823  0.31595052  1
  Al  Al23  1  0.23452221  0.86789263  0.05897210  1
  Al  Al24  1  0.76661854  0.76538266  0.89179739  1
  Al  Al25  1  0.44579043  0.76270920  0.32343594  1
  Al  Al26  1  0.11027829  0.76268200  0.82433149  1
  Al  Al27  1  0.20727720  0.87501591  0.58028944  1
  Al  Al28  1  0.78241744  0.76941770  0.38728431  1
  Al  Al29  1  0.88315078  0.87691829  0.09701164  1
  Al  Al30  1  0.55923913  0.87436113  0.62760998  1
  B  B31  1  0.91471135  0.23516712  0.65148999  1
  B  B32  1  0.77145535  0.08824306  0.30212029  1
  B  B33  1  0.88559513  0.86347137  0.60951200  1
  B  B34  1  0.55245699  0.87102951  0.11073439  1
  B  B35  1  0.44118798  0.75956891  0.80518826  1
  N  N36  1  0.22111700  0.20140538  0.32305306  1
  N  N37  1  0.10172406  0.10068380  0.06502628  1
  N  N38  1  0.89287938  0.21690970  0.79920908  1
  N  N39  1  0.78449216  0.04245077  0.63323507  1
  N  N40  1  0.58552868  0.19226016  0.37029169  1
  N  N41  1  0.45391303  0.06085547  0.07838010  1
  N  N42  1  0.22527385  0.20856817  0.82474689  1
  N  N43  1  0.08191378  0.11802164  0.58766609  1
  N  N44  1  0.88058483  0.19776571  0.32486614  1
  N  N45  1  0.76390871  0.10039642  0.14345803  1
  N  N46  1  0.56121921  0.20842911  0.88206048  1
  N  N47  1  0.43715798  0.09675056  0.57411065  1
  N  N48  1  0.22670173  0.54361759  0.37728560  1
  N  N49  1  0.10667111  0.42568908  0.07987089  1
  N  N50  1  0.89092313  0.54597852  0.82533285  1
  N  N51  1  0.79785156  0.40437862  0.58715506  1
  N  N52  1  0.55324699  0.54119522  0.38675290  1
  N  N53  1  0.44714476  0.42966020  0.12986454  1
  N  N54  1  0.22722617  0.54164819  0.88019118  1
  N  N55  1  0.11085007  0.42360696  0.57351475  1
  N  N56  1  0.88722864  0.53921701  0.32709214  1
  N  N57  1  0.78024314  0.42423815  0.06695367  1
  N  N58  1  0.53853421  0.57028074  0.86809378  1
  N  N59  1  0.44980358  0.41727237  0.62973715  1
  N  N60  1  0.22344427  0.86894034  0.39176998  1
  N  N61  1  0.12183571  0.76192816  0.12820501  1
  N  N62  1  0.89276561  0.87919630  0.89895747  1
  N  N63  1  0.79758704  0.76351102  0.58015608  1
  N  N64  1  0.55981517  0.86655794  0.36068973  1
  N  N65  1  0.45388056  0.77619253  0.13007733  1
  N  N66  1  0.25009749  0.85870831  0.86575091  1
  N  N67  1  0.08011937  0.76941640  0.63424225  1
  N  N68  1  0.87576271  0.89595970  0.32965416  1
  N  N69  1  0.74111360  0.77133011  0.08299602  1
  N  N70  1  0.54930524  0.86223871  0.81906048  1
  N  N71  1  0.43359762  0.75642109  0.64636344  1
