# generated using pymatgen
data_Al31B5N36
_symmetry_space_group_name_H-M   'P 1'
_cell_length_a   9.19172689
_cell_length_b   9.15036132
_cell_length_c   10.15190735
_cell_angle_alpha   89.40145326
_cell_angle_beta   89.34983388
_cell_angle_gamma   60.22538221
_symmetry_Int_Tables_number   1
_chemical_formula_structural   Al31B5N36
_chemical_formula_sum   'Al31 B5 N36'
_cell_volume   741.07276086
_cell_formula_units_Z   1
loop_
 _symmetry_equiv_pos_site_id
 _symmetry_equiv_pos_as_xyz
  1  'x, y, z'
loop_
 _atom_site_type_symbol
 _atom_site_label
 _atom_site_symmetry_multiplicity
 _atom_site_fract_x
 _atom_site_fract_y
 _atom_site_fract_z
 _atom_site_occupancy
  Al  Al0  1  0.10436604  0.09098087  0.34347765  1
  Al  Al1  1  0.22929824  0.20207464  0.13559797  1
  Al  Al2  1  0.78143739  0.09090777  0.82234176  1
  Al  Al3  1  0.44787612  0.09005292  0.39381968  1
  Al  Al4  1  0.55778270  0.20319189  0.06566835  1
  Al  Al5  1  0.11051355  0.09557442  0.88533460  1
  Al  Al6  1  0.21465710  0.20929083  0.64172205  1
  Al  Al7  1  0.88151322  0.20947696  0.11531727  1
  Al  Al8  1  0.44297549  0.08119207  0.87697528  1
  Al  Al9  1  0.57774619  0.20091381  0.56396378  1
  Al  Al10  1  0.10978857  0.42335786  0.38750591  1
  Al  Al11  1  0.22485497  0.54310440  0.06609396  1
  Al  Al12  1  0.77557623  0.43157759  0.88777702  1
  Al  Al13  1  0.89221659  0.53797995  0.63997646  1
  Al  Al14  1  0.45306393  0.42099170  0.31661541  1
  Al  Al15  1  0.54543950  0.55600842  0.06485475  1
  Al  Al16  1  0.10428615  0.42836485  0.88899219  1
  Al  Al17  1  0.22095591  0.54482200  0.56807295  1
  Al  Al18  1  0.78585535  0.41057353  0.38634208  1
  Al  Al19  1  0.87632922  0.54787934  0.14607861  1
  Al  Al20  1  0.44426382  0.43207011  0.81507274  1
  Al  Al21  1  0.55249012  0.53670742  0.57220287  1
  Al  Al22  1  0.10761210  0.76648711  0.31339758  1
  Al  Al23  1  0.23890580  0.86492707  0.06424286  1
  Al  Al24  1  0.76341659  0.76206680  0.88506570  1
  Al  Al25  1  0.45322247  0.76055173  0.32447790  1
  Al  Al26  1  0.11177975  0.76488818  0.82186060  1
  Al  Al27  1  0.21298162  0.87732068  0.56991109  1
  Al  Al28  1  0.78510556  0.77322832  0.39625743  1
  Al  Al29  1  0.88314129  0.87655817  0.08495867  1
  Al  Al30  1  0.55650702  0.87549618  0.61539327  1
  B  B31  1  0.90060810  0.19270515  0.60705299  1
  B  B32  1  0.77595462  0.08919266  0.29975357  1
  B  B33  1  0.89867629  0.87558634  0.60653565  1
  B  B34  1  0.55335731  0.87251955  0.10069092  1
  B  B35  1  0.44185715  0.75958177  0.80578278  1
  N  N36  1  0.22861297  0.20260678  0.32251997  1
  N  N37  1  0.11419119  0.09311229  0.08890665  1
  N  N38  1  0.88424259  0.20363719  0.87601130  1
  N  N39  1  0.80921432  0.07702454  0.62641269  1
  N  N40  1  0.58733196  0.19134828  0.37139329  1
  N  N41  1  0.45563444  0.06135923  0.07569620  1
  N  N42  1  0.21991322  0.20860444  0.82863442  1
  N  N43  1  0.08262017  0.10909640  0.59647713  1
  N  N44  1  0.87787543  0.19664930  0.31534563  1
  N  N45  1  0.76308523  0.09607436  0.14052114  1
  N  N46  1  0.55640842  0.20669356  0.87664037  1
  N  N47  1  0.43628098  0.10760225  0.58422037  1
  N  N48  1  0.22664029  0.54210407  0.37777028  1
  N  N49  1  0.10258551  0.42984675  0.07965070  1
  N  N50  1  0.88656622  0.54118106  0.82426561  1
  N  N51  1  0.79492366  0.38840184  0.58413472  1
  N  N52  1  0.55372459  0.53897734  0.38294136  1
  N  N53  1  0.44456499  0.42882155  0.12784715  1
  N  N54  1  0.22445512  0.54194032  0.87613678  1
  N  N55  1  0.10633357  0.42597512  0.57614173  1
  N  N56  1  0.88628638  0.54244380  0.33379137  1
  N  N57  1  0.77308372  0.43765275  0.07891071  1
  N  N58  1  0.53737472  0.56947357  0.87063495  1
  N  N59  1  0.44451979  0.42330048  0.62925955  1
  N  N60  1  0.22790817  0.86587595  0.38090827  1
  N  N61  1  0.11803033  0.76186993  0.12554137  1
  N  N62  1  0.89104876  0.87197551  0.88942273  1
  N  N63  1  0.80141494  0.78104352  0.59184665  1
  N  N64  1  0.55905961  0.86155846  0.39627461  1
  N  N65  1  0.45849729  0.77806023  0.13266400  1
  N  N66  1  0.25108656  0.85793407  0.87146571  1
  N  N67  1  0.08604598  0.77511420  0.62972724  1
  N  N68  1  0.87837927  0.89866006  0.33766657  1
  N  N69  1  0.74056130  0.77462375  0.08163515  1
  N  N70  1  0.54631633  0.86054317  0.81706514  1
  N  N71  1  0.43402386  0.75511286  0.64481471  1
