# generated using pymatgen
data_Al31B5N36
_symmetry_space_group_name_H-M   'P 1'
_cell_length_a   9.20596764
_cell_length_b   9.17912255
_cell_length_c   10.04790224
_cell_angle_alpha   89.94646847
_cell_angle_beta   89.90484791
_cell_angle_gamma   60.12487013
_symmetry_Int_Tables_number   1
_chemical_formula_structural   Al31B5N36
_chemical_formula_sum   'Al31 B5 N36'
_cell_volume   736.24291767
_cell_formula_units_Z   1
loop_
 _symmetry_equiv_pos_site_id
 _symmetry_equiv_pos_as_xyz
  1  'x, y, z'
loop_
 _atom_site_type_symbol
 _atom_site_label
 _atom_site_symmetry_multiplicity
 _atom_site_fract_x
 _atom_site_fract_y
 _atom_site_fract_z
 _atom_site_occupancy
  Al  Al0  1  0.10492318  0.08619759  0.32373654  1
  Al  Al1  1  0.23178707  0.20210092  0.14221407  1
  Al  Al2  1  0.78297929  0.08913957  0.81873228  1
  Al  Al3  1  0.44992939  0.08773495  0.39213942  1
  Al  Al4  1  0.56098409  0.19965597  0.07086658  1
  Al  Al5  1  0.10342535  0.09027483  0.81097088  1
  Al  Al6  1  0.21355073  0.21428618  0.63028203  1
  Al  Al7  1  0.88883150  0.20417138  0.07245201  1
  Al  Al8  1  0.44490615  0.08777508  0.84165750  1
  Al  Al9  1  0.57793118  0.20018693  0.56661796  1
  Al  Al10  1  0.10898761  0.42593010  0.38625292  1
  Al  Al11  1  0.22526389  0.54340600  0.06735913  1
  Al  Al12  1  0.77253368  0.43661647  0.88100521  1
  Al  Al13  1  0.89092962  0.53882675  0.64189088  1
  Al  Al14  1  0.45377710  0.41945926  0.31599562  1
  Al  Al15  1  0.54451088  0.55800109  0.06653905  1
  Al  Al16  1  0.10547434  0.42428317  0.89028246  1
  Al  Al17  1  0.22105513  0.54583841  0.56911393  1
  Al  Al18  1  0.78484240  0.41733519  0.39232595  1
  Al  Al19  1  0.87703318  0.54677214  0.14362338  1
  Al  Al20  1  0.44329291  0.43356834  0.81690273  1
  Al  Al21  1  0.55265579  0.53724046  0.57291823  1
  Al  Al22  1  0.11177656  0.76407320  0.31269480  1
  Al  Al23  1  0.23213813  0.87925981  0.06071837  1
  Al  Al24  1  0.76231655  0.76615454  0.89133975  1
  Al  Al25  1  0.45081423  0.76081117  0.32395469  1
  Al  Al26  1  0.10843323  0.76329679  0.82602345  1
  Al  Al27  1  0.21237549  0.87506033  0.56880785  1
  Al  Al28  1  0.78541846  0.76972245  0.39511176  1
  Al  Al29  1  0.88143653  0.88141539  0.10362670  1
  Al  Al30  1  0.55884321  0.86849768  0.61009170  1
  B  B31  1  0.89994762  0.18087386  0.55782471  1
  B  B32  1  0.77765632  0.08938666  0.31369466  1
  B  B33  1  0.89678425  0.87216140  0.60833420  1
  B  B34  1  0.55189217  0.87746323  0.10541072  1
  B  B35  1  0.44082782  0.76110305  0.80465566  1
  N  N36  1  0.22830741  0.20313931  0.33405029  1
  N  N37  1  0.10681977  0.09346973  0.13242903  1
  N  N38  1  0.88954110  0.20057657  0.88130084  1
  N  N39  1  0.80772192  0.07005205  0.62327848  1
  N  N40  1  0.58648543  0.18939116  0.37433267  1
  N  N41  1  0.45948465  0.06367361  0.09401091  1
  N  N42  1  0.21691146  0.20956459  0.82205240  1
  N  N43  1  0.08247313  0.10382348  0.61577987  1
  N  N44  1  0.88432782  0.17905993  0.39243777  1
  N  N45  1  0.77115788  0.11124241  0.15163346  1
  N  N46  1  0.55915170  0.20625386  0.87692843  1
  N  N47  1  0.44206052  0.10397941  0.59596797  1
  N  N48  1  0.22777596  0.54150714  0.37679535  1
  N  N49  1  0.10539733  0.42726787  0.08231190  1
  N  N50  1  0.88666928  0.54461644  0.82825543  1
  N  N51  1  0.79158064  0.40194097  0.58670014  1
  N  N52  1  0.55359094  0.53831845  0.37986687  1
  N  N53  1  0.44575739  0.42827351  0.12660360  1
  N  N54  1  0.22367799  0.53997058  0.87605555  1
  N  N55  1  0.10421259  0.43073552  0.57525714  1
  N  N56  1  0.88609782  0.54174657  0.33167066  1
  N  N57  1  0.77355770  0.43585505  0.07809441  1
  N  N58  1  0.53471403  0.57216352  0.87050808  1
  N  N59  1  0.44555670  0.42296283  0.62934813  1
  N  N60  1  0.22727040  0.86629180  0.38244235  1
  N  N61  1  0.12183891  0.76338853  0.12353673  1
  N  N62  1  0.88862493  0.87646316  0.89458146  1
  N  N63  1  0.80269491  0.77728129  0.59121920  1
  N  N64  1  0.55808068  0.85963019  0.40204987  1
  N  N65  1  0.45601716  0.78210357  0.13152865  1
  N  N66  1  0.24521366  0.86445801  0.86781142  1
  N  N67  1  0.08472535  0.77439378  0.63028842  1
  N  N68  1  0.87771452  0.89223951  0.32804103  1
  N  N69  1  0.74062062  0.77703526  0.08657721  1
  N  N70  1  0.54745138  0.85829808  0.81725486  1
  N  N71  1  0.43157637  0.75537867  0.64416389  1
