# generated using pymatgen
data_Al31B5N36
_symmetry_space_group_name_H-M   'P 1'
_cell_length_a   9.17010525
_cell_length_b   9.16599366
_cell_length_c   9.79837537
_cell_angle_alpha   90.05153408
_cell_angle_beta   90.22944545
_cell_angle_gamma   60.05850986
_symmetry_Int_Tables_number   1
_chemical_formula_structural   Al31B5N36
_chemical_formula_sum   'Al31 B5 N36'
_cell_volume   713.65858892
_cell_formula_units_Z   1
loop_
 _symmetry_equiv_pos_site_id
 _symmetry_equiv_pos_as_xyz
  1  'x, y, z'
loop_
 _atom_site_type_symbol
 _atom_site_label
 _atom_site_symmetry_multiplicity
 _atom_site_fract_x
 _atom_site_fract_y
 _atom_site_fract_z
 _atom_site_occupancy
  Al  Al0  1  0.10685710  0.09199073  0.31956742  1
  Al  Al1  1  0.22461224  0.19954867  0.06332260  1
  Al  Al2  1  0.78265170  0.09186853  0.80662149  1
  Al  Al3  1  0.45236997  0.08702681  0.30888531  1
  Al  Al4  1  0.56353189  0.19715960  0.06998462  1
  Al  Al5  1  0.10842392  0.09421744  0.80838217  1
  Al  Al6  1  0.21818834  0.20690961  0.56254332  1
  Al  Al7  1  0.88744429  0.20239006  0.07122500  1
  Al  Al8  1  0.44513016  0.08870715  0.82054544  1
  Al  Al9  1  0.56649434  0.19925580  0.56003296  1
  Al  Al10  1  0.11055624  0.42832551  0.31142706  1
  Al  Al11  1  0.22158726  0.54080514  0.06283043  1
  Al  Al12  1  0.77649060  0.42565279  0.80846975  1
  Al  Al13  1  0.88836151  0.54122990  0.56371762  1
  Al  Al14  1  0.44995135  0.42495343  0.31351936  1
  Al  Al15  1  0.55633793  0.54678757  0.05918570  1
  Al  Al16  1  0.10958765  0.42819036  0.81322807  1
  Al  Al17  1  0.21612095  0.54328984  0.56221352  1
  Al  Al18  1  0.77676146  0.42195098  0.32121297  1
  Al  Al19  1  0.88110033  0.54333787  0.06319880  1
  Al  Al20  1  0.44385816  0.43133723  0.81366004  1
  Al  Al21  1  0.55716230  0.53783307  0.56885460  1
  Al  Al22  1  0.10657518  0.76810660  0.31949840  1
  Al  Al23  1  0.22965680  0.87168284  0.05860934  1
  Al  Al24  1  0.77351378  0.76604918  0.81580953  1
  Al  Al25  1  0.44760502  0.76362370  0.31073890  1
  Al  Al26  1  0.10819758  0.76428392  0.80887701  1
  Al  Al27  1  0.21756378  0.87534130  0.56902154  1
  Al  Al28  1  0.77204652  0.77040998  0.31599842  1
  Al  Al29  1  0.88286234  0.87647030  0.07099232  1
  Al  Al30  1  0.55854074  0.87453920  0.57034133  1
  B  B31  1  0.89024025  0.19180126  0.55485038  1
  B  B32  1  0.77870076  0.09322522  0.32277590  1
  B  B33  1  0.88953514  0.88453697  0.55644610  1
  B  B34  1  0.55226678  0.86792114  0.05860690  1
  B  B35  1  0.44594932  0.76077323  0.81493623  1
  N  N36  1  0.22551097  0.20422760  0.36940689  1
  N  N37  1  0.11118921  0.09174167  0.12618023  1
  N  N38  1  0.88744943  0.20396300  0.87842498  1
  N  N39  1  0.80183861  0.08247730  0.61182851  1
  N  N40  1  0.57945555  0.19226146  0.36559621  1
  N  N41  1  0.45782957  0.06736709  0.11222404  1
  N  N42  1  0.21966826  0.20480059  0.87114814  1
  N  N43  1  0.08424548  0.10744299  0.61238910  1
  N  N44  1  0.87791675  0.19159662  0.38702699  1
  N  N45  1  0.78171487  0.09180693  0.15420284  1
  N  N46  1  0.56139154  0.20349324  0.87457711  1
  N  N47  1  0.44361771  0.09738833  0.62651345  1
  N  N48  1  0.22307289  0.53887120  0.37068328  1
  N  N49  1  0.10986078  0.42782364  0.11931862  1
  N  N50  1  0.88532200  0.54015313  0.86905120  1
  N  N51  1  0.78957178  0.40003153  0.61340735  1
  N  N52  1  0.55311552  0.54333021  0.37603725  1
  N  N53  1  0.44698270  0.42803950  0.11985971  1
  N  N54  1  0.22033973  0.54173635  0.87016289  1
  N  N55  1  0.10982751  0.42843075  0.62208960  1
  N  N56  1  0.88747870  0.54180778  0.37111555  1
  N  N57  1  0.77664774  0.42611358  0.12685166  1
  N  N58  1  0.54487096  0.56281134  0.86419012  1
  N  N59  1  0.44317389  0.42638150  0.62087083  1
  N  N60  1  0.22846242  0.86924579  0.37718139  1
  N  N61  1  0.11134552  0.76362972  0.12510897  1
  N  N62  1  0.88811710  0.87587612  0.87941930  1
  N  N63  1  0.78902482  0.77881028  0.61869497  1
  N  N64  1  0.55447489  0.87217109  0.38074924  1
  N  N65  1  0.45706522  0.77388653  0.11741581  1
  N  N66  1  0.24486868  0.86081750  0.86168090  1
  N  N67  1  0.08411830  0.77613280  0.61281385  1
  N  N68  1  0.87702500  0.89626817  0.38574476  1
  N  N69  1  0.75142720  0.77451250  0.11708283  1
  N  N70  1  0.54495267  0.85952007  0.88424043  1
  N  N71  1  0.44739608  0.76290555  0.64715547  1
