# generated using pymatgen
data_Al31B5N36
_symmetry_space_group_name_H-M   'P 1'
_cell_length_a   9.18724966
_cell_length_b   9.18396281
_cell_length_c   9.87920409
_cell_angle_alpha   89.90258738
_cell_angle_beta   89.83157540
_cell_angle_gamma   59.93952772
_symmetry_Int_Tables_number   1
_chemical_formula_structural   Al31B5N36
_chemical_formula_sum   'Al31 B5 N36'
_cell_volume   721.44191087
_cell_formula_units_Z   1
loop_
 _symmetry_equiv_pos_site_id
 _symmetry_equiv_pos_as_xyz
  1  'x, y, z'
loop_
 _atom_site_type_symbol
 _atom_site_label
 _atom_site_symmetry_multiplicity
 _atom_site_fract_x
 _atom_site_fract_y
 _atom_site_fract_z
 _atom_site_occupancy
  Al  Al0  1  0.10637532  0.09333442  0.31925725  1
  Al  Al1  1  0.22696838  0.19808825  0.06636551  1
  Al  Al2  1  0.78210377  0.09068078  0.80809856  1
  Al  Al3  1  0.45369375  0.08722316  0.32089800  1
  Al  Al4  1  0.56499287  0.19649128  0.07214946  1
  Al  Al5  1  0.10894352  0.09360543  0.80931803  1
  Al  Al6  1  0.21681998  0.20779913  0.56114110  1
  Al  Al7  1  0.88823310  0.20261410  0.07114505  1
  Al  Al8  1  0.44144201  0.09259535  0.81306476  1
  Al  Al9  1  0.56751556  0.19920535  0.55989317  1
  Al  Al10  1  0.11024482  0.43003816  0.31282990  1
  Al  Al11  1  0.22282011  0.54084148  0.06238065  1
  Al  Al12  1  0.77506432  0.42512268  0.81001574  1
  Al  Al13  1  0.89249852  0.53336923  0.57020685  1
  Al  Al14  1  0.45011684  0.42495864  0.31314531  1
  Al  Al15  1  0.55755362  0.54901648  0.05922679  1
  Al  Al16  1  0.11048740  0.42723652  0.81574389  1
  Al  Al17  1  0.21660369  0.54281627  0.56408005  1
  Al  Al18  1  0.77708067  0.42271082  0.32207317  1
  Al  Al19  1  0.88297841  0.53950754  0.06790260  1
  Al  Al20  1  0.44442430  0.43034066  0.81443737  1
  Al  Al21  1  0.55592899  0.53385591  0.56660353  1
  Al  Al22  1  0.10848883  0.76806492  0.31698216  1
  Al  Al23  1  0.23242153  0.87297472  0.05808487  1
  Al  Al24  1  0.76317874  0.76652393  0.85768381  1
  Al  Al25  1  0.44896121  0.76382173  0.31887753  1
  Al  Al26  1  0.10766526  0.76411434  0.80961571  1
  Al  Al27  1  0.21326077  0.87569589  0.56514670  1
  Al  Al28  1  0.77726635  0.77344912  0.38883229  1
  Al  Al29  1  0.88356633  0.87831441  0.07469568  1
  Al  Al30  1  0.55422042  0.87278089  0.59851211  1
  B  B31  1  0.89044014  0.19229366  0.55693624  1
  B  B32  1  0.78094990  0.09512177  0.32388413  1
  B  B33  1  0.89408893  0.88483720  0.56010772  1
  B  B34  1  0.55839299  0.87125211  0.10432345  1
  B  B35  1  0.44206884  0.76086160  0.80137315  1
  N  N36  1  0.22316670  0.20628785  0.36987816  1
  N  N37  1  0.11148757  0.09238863  0.12687957  1
  N  N38  1  0.88669457  0.20308459  0.87956053  1
  N  N39  1  0.80217709  0.08260116  0.61403733  1
  N  N40  1  0.58144873  0.19318968  0.36708569  1
  N  N41  1  0.46103634  0.06483710  0.12311765  1
  N  N42  1  0.22046190  0.20371395  0.87530550  1
  N  N43  1  0.08413249  0.10760562  0.61347701  1
  N  N44  1  0.87818712  0.19398551  0.38862783  1
  N  N45  1  0.78238381  0.09330699  0.15541469  1
  N  N46  1  0.55982444  0.20098780  0.87724976  1
  N  N47  1  0.43888861  0.10578384  0.62167094  1
  N  N48  1  0.22271416  0.53986481  0.37267304  1
  N  N49  1  0.11150808  0.42805185  0.12183991  1
  N  N50  1  0.88719282  0.53479097  0.87300326  1
  N  N51  1  0.78806401  0.39964496  0.61616093  1
  N  N52  1  0.55357377  0.54124036  0.37585020  1
  N  N53  1  0.44767067  0.42885882  0.12035777  1
  N  N54  1  0.22031212  0.54123749  0.87136049  1
  N  N55  1  0.11171408  0.42675507  0.62612943  1
  N  N56  1  0.88908175  0.53800805  0.37553381  1
  N  N57  1  0.77653157  0.42579725  0.12917224  1
  N  N58  1  0.54397031  0.56297628  0.86475842  1
  N  N59  1  0.44358781  0.42373090  0.62285951  1
  N  N60  1  0.22635074  0.87086575  0.37536813  1
  N  N61  1  0.11346133  0.76362352  0.12440929  1
  N  N62  1  0.88805368  0.87547936  0.88128439  1
  N  N63  1  0.79564223  0.77664429  0.59275226  1
  N  N64  1  0.54912832  0.87446141  0.39252623  1
  N  N65  1  0.46043831  0.77717644  0.12327925  1
  N  N66  1  0.24382202  0.86085708  0.86211636  1
  N  N67  1  0.08387661  0.77634136  0.61497968  1
  N  N68  1  0.88303581  0.90312828  0.38488742  1
  N  N69  1  0.74494941  0.77798888  0.09155477  1
  N  N70  1  0.53911094  0.85941985  0.82444255  1
  N  N71  1  0.43519605  0.75429336  0.63790646  1
