# generated using pymatgen
data_Al31B5N36
_symmetry_space_group_name_H-M   'P 1'
_cell_length_a   9.16055381
_cell_length_b   9.20504928
_cell_length_c   10.16441872
_cell_angle_alpha   89.63975580
_cell_angle_beta   89.45579644
_cell_angle_gamma   60.07172725
_symmetry_Int_Tables_number   1
_chemical_formula_structural   Al31B5N36
_chemical_formula_sum   'Al31 B5 N36'
_cell_volume   742.76971046
_cell_formula_units_Z   1
loop_
 _symmetry_equiv_pos_site_id
 _symmetry_equiv_pos_as_xyz
  1  'x, y, z'
loop_
 _atom_site_type_symbol
 _atom_site_label
 _atom_site_symmetry_multiplicity
 _atom_site_fract_x
 _atom_site_fract_y
 _atom_site_fract_z
 _atom_site_occupancy
  Al  Al0  1  0.09659765  0.10444261  0.39346859  1
  Al  Al1  1  0.22227575  0.19685748  0.13605093  1
  Al  Al2  1  0.77788129  0.08487487  0.80885441  1
  Al  Al3  1  0.44614716  0.09049575  0.37396488  1
  Al  Al4  1  0.55932643  0.20341800  0.07411205  1
  Al  Al5  1  0.11213571  0.09664874  0.87584628  1
  Al  Al6  1  0.22603532  0.20525882  0.63760918  1
  Al  Al7  1  0.88694919  0.20789713  0.13953793  1
  Al  Al8  1  0.44539485  0.07998159  0.89363852  1
  Al  Al9  1  0.57573747  0.18752929  0.55837066  1
  Al  Al10  1  0.11087900  0.42742149  0.38516702  1
  Al  Al11  1  0.22236264  0.53942092  0.11419061  1
  Al  Al12  1  0.77815462  0.43272584  0.87737154  1
  Al  Al13  1  0.89470959  0.54221350  0.63914269  1
  Al  Al14  1  0.45962084  0.42384253  0.32133410  1
  Al  Al15  1  0.54670229  0.55463181  0.05962024  1
  Al  Al16  1  0.11288634  0.42875410  0.88843081  1
  Al  Al17  1  0.22196390  0.54027726  0.59344478  1
  Al  Al18  1  0.78809196  0.41690780  0.39243483  1
  Al  Al19  1  0.87852863  0.54182044  0.13933940  1
  Al  Al20  1  0.44884299  0.42640422  0.81599275  1
  Al  Al21  1  0.55447480  0.53658627  0.57753049  1
  Al  Al22  1  0.10571577  0.77735161  0.32164412  1
  Al  Al23  1  0.23569312  0.86593637  0.05810861  1
  Al  Al24  1  0.76458454  0.76271201  0.89693382  1
  Al  Al25  1  0.44421730  0.76271895  0.31767769  1
  Al  Al26  1  0.10668448  0.76427629  0.82081239  1
  Al  Al27  1  0.20720267  0.87555449  0.58017010  1
  Al  Al28  1  0.78032381  0.77196655  0.37929290  1
  Al  Al29  1  0.88466253  0.87690204  0.08649013  1
  Al  Al30  1  0.55995862  0.87445361  0.63961938  1
  B  B31  1  0.91518252  0.23562432  0.65178607  1
  B  B32  1  0.77499738  0.08912303  0.30678080  1
  B  B33  1  0.88019046  0.86669875  0.59630695  1
  B  B34  1  0.55893555  0.87274447  0.14628147  1
  B  B35  1  0.43926787  0.75758559  0.80677491  1
  N  N36  1  0.21760598  0.20546255  0.32234581  1
  N  N37  1  0.10219345  0.09957774  0.06426030  1
  N  N38  1  0.89245479  0.21517585  0.79838409  1
  N  N39  1  0.77695026  0.04085463  0.63306087  1
  N  N40  1  0.58530669  0.19461714  0.36935182  1
  N  N41  1  0.45319589  0.06553989  0.08480902  1
  N  N42  1  0.22792922  0.20626291  0.82402251  1
  N  N43  1  0.08092110  0.11808353  0.58773483  1
  N  N44  1  0.88020992  0.20025589  0.32553776  1
  N  N45  1  0.76829225  0.09400843  0.14731938  1
  N  N46  1  0.56225371  0.20687066  0.88547803  1
  N  N47  1  0.43781913  0.08436878  0.56231354  1
  N  N48  1  0.22594933  0.54367447  0.36096837  1
  N  N49  1  0.10836892  0.42601347  0.07823436  1
  N  N50  1  0.89009283  0.54585591  0.82498498  1
  N  N51  1  0.79916019  0.40352954  0.58736260  1
  N  N52  1  0.55510425  0.54694554  0.38956270  1
  N  N53  1  0.45241487  0.42857212  0.13171583  1
  N  N54  1  0.22378937  0.53989111  0.84824330  1
  N  N55  1  0.11161716  0.42229817  0.57323841  1
  N  N56  1  0.88730604  0.54053522  0.32627572  1
  N  N57  1  0.78117747  0.42244097  0.06621352  1
  N  N58  1  0.53886784  0.56852090  0.86691277  1
  N  N59  1  0.45620469  0.41024781  0.62704220  1
  N  N60  1  0.22804831  0.87221159  0.39256013  1
  N  N61  1  0.11633343  0.76742601  0.13090380  1
  N  N62  1  0.89117660  0.87867100  0.89602139  1
  N  N63  1  0.78790452  0.76260479  0.57174998  1
  N  N64  1  0.56423786  0.87737105  0.30571771  1
  N  N65  1  0.45180308  0.77132865  0.12999125  1
  N  N66  1  0.24837054  0.85764198  0.86463770  1
  N  N67  1  0.07354180  0.77496099  0.62736156  1
  N  N68  1  0.87732107  0.90349530  0.35109441  1
  N  N69  1  0.74742516  0.76943547  0.08613936  1
  N  N70  1  0.54713706  0.86240565  0.82474860  1
  N  N71  1  0.43352769  0.75530079  0.64726464  1
