# generated using pymatgen
data_Al31B5N36
_symmetry_space_group_name_H-M   'P 1'
_cell_length_a   9.15969488
_cell_length_b   9.20445135
_cell_length_c   10.16375256
_cell_angle_alpha   89.63291949
_cell_angle_beta   89.45146518
_cell_angle_gamma   60.06095191
_symmetry_Int_Tables_number   1
_chemical_formula_structural   Al31B5N36
_chemical_formula_sum   'Al31 B5 N36'
_cell_volume   742.52207760
_cell_formula_units_Z   1
loop_
 _symmetry_equiv_pos_site_id
 _symmetry_equiv_pos_as_xyz
  1  'x, y, z'
loop_
 _atom_site_type_symbol
 _atom_site_label
 _atom_site_symmetry_multiplicity
 _atom_site_fract_x
 _atom_site_fract_y
 _atom_site_fract_z
 _atom_site_occupancy
  Al  Al0  1  0.09660246  0.10434091  0.39353058  1
  Al  Al1  1  0.22223877  0.19687548  0.13614779  1
  Al  Al2  1  0.77796189  0.08485853  0.80896170  1
  Al  Al3  1  0.44623862  0.09049094  0.37404242  1
  Al  Al4  1  0.55927048  0.20344680  0.07426885  1
  Al  Al5  1  0.11216379  0.09650257  0.87582173  1
  Al  Al6  1  0.22603953  0.20542958  0.63759886  1
  Al  Al7  1  0.88696306  0.20790672  0.13956523  1
  Al  Al8  1  0.44549735  0.07996850  0.89368186  1
  Al  Al9  1  0.57554701  0.18772926  0.55861611  1
  Al  Al10  1  0.11056015  0.42707497  0.38485880  1
  Al  Al11  1  0.22337790  0.54039402  0.10020789  1
  Al  Al12  1  0.77803602  0.43274103  0.87734043  1
  Al  Al13  1  0.89492638  0.54219106  0.63914321  1
  Al  Al14  1  0.45847786  0.42448069  0.32121999  1
  Al  Al15  1  0.54677844  0.55462303  0.05975547  1
  Al  Al16  1  0.11225171  0.42805871  0.88846736  1
  Al  Al17  1  0.22270312  0.54127564  0.58177459  1
  Al  Al18  1  0.78797569  0.41690429  0.39249667  1
  Al  Al19  1  0.87856767  0.54177479  0.13943979  1
  Al  Al20  1  0.44789304  0.42686763  0.81603454  1
  Al  Al21  1  0.55441239  0.53653579  0.57777774  1
  Al  Al22  1  0.10628626  0.77633065  0.32150185  1
  Al  Al23  1  0.23565452  0.86596830  0.05824480  1
  Al  Al24  1  0.76459830  0.76280641  0.89699516  1
  Al  Al25  1  0.44421352  0.76272561  0.31777828  1
  Al  Al26  1  0.10710953  0.76340723  0.82067707  1
  Al  Al27  1  0.20718406  0.87558368  0.58039295  1
  Al  Al28  1  0.78032251  0.77203910  0.37933171  1
  Al  Al29  1  0.88470916  0.87683502  0.08671529  1
  Al  Al30  1  0.55996131  0.87443472  0.63963655  1
  B  B31  1  0.91520537  0.23563122  0.65181312  1
  B  B32  1  0.77506771  0.08916396  0.30687181  1
  B  B33  1  0.88029665  0.86643585  0.59660219  1
  B  B34  1  0.55894026  0.87275441  0.14629471  1
  B  B35  1  0.43928136  0.75757857  0.80680627  1
  N  N36  1  0.21772217  0.20535679  0.32237755  1
  N  N37  1  0.10219305  0.09945289  0.06427719  1
  N  N38  1  0.89248775  0.21518938  0.79841857  1
  N  N39  1  0.77712044  0.04075099  0.63310172  1
  N  N40  1  0.58517562  0.19488192  0.36946327  1
  N  N41  1  0.45319603  0.06553988  0.08483012  1
  N  N42  1  0.22802089  0.20620122  0.82398177  1
  N  N43  1  0.08093055  0.11801561  0.58778916  1
  N  N44  1  0.88023178  0.20026124  0.32555761  1
  N  N45  1  0.76827987  0.09404568  0.14738947  1
  N  N46  1  0.56222721  0.20699406  0.88549799  1
  N  N47  1  0.43787865  0.08437198  0.56236247  1
  N  N48  1  0.22661428  0.54447491  0.36943070  1
  N  N49  1  0.10774202  0.42541789  0.07875797  1
  N  N50  1  0.89007880  0.54594392  0.82493810  1
  N  N51  1  0.79903452  0.40351092  0.58742425  1
  N  N52  1  0.55504661  0.54686963  0.38961200  1
  N  N53  1  0.45139375  0.42902366  0.13228853  1
  N  N54  1  0.22476767  0.54066282  0.85909591  1
  N  N55  1  0.11146867  0.42214496  0.57371109  1
  N  N56  1  0.88720378  0.54063455  0.32631095  1
  N  N57  1  0.78106818  0.42243170  0.06623077  1
  N  N58  1  0.53889399  0.56850961  0.86686727  1
  N  N59  1  0.45459203  0.41118324  0.62772165  1
  N  N60  1  0.22798285  0.87218764  0.39260116  1
  N  N61  1  0.11679591  0.76649161  0.13158111  1
  N  N62  1  0.89137256  0.87859452  0.89609744  1
  N  N63  1  0.78794833  0.76261439  0.57178847  1
  N  N64  1  0.56424468  0.87738362  0.30573849  1
  N  N65  1  0.45181688  0.77134755  0.13004631  1
  N  N66  1  0.24836275  0.85761362  0.86459414  1
  N  N67  1  0.07431784  0.77368144  0.62811200  1
  N  N68  1  0.87757557  0.90333939  0.35106991  1
  N  N69  1  0.74743310  0.76942603  0.08617239  1
  N  N70  1  0.54718445  0.86243066  0.82477509  1
  N  N71  1  0.43361040  0.75536946  0.64726928  1
