# generated using pymatgen
data_Al31B5N36
_symmetry_space_group_name_H-M   'P 1'
_cell_length_a   9.18197545
_cell_length_b   9.15780152
_cell_length_c   10.14447124
_cell_angle_alpha   89.61622889
_cell_angle_beta   89.43177282
_cell_angle_gamma   60.27378409
_symmetry_Int_Tables_number   1
_chemical_formula_structural   Al31B5N36
_chemical_formula_sum   'Al31 B5 N36'
_cell_volume   740.72444277
_cell_formula_units_Z   1
loop_
 _symmetry_equiv_pos_site_id
 _symmetry_equiv_pos_as_xyz
  1  'x, y, z'
loop_
 _atom_site_type_symbol
 _atom_site_label
 _atom_site_symmetry_multiplicity
 _atom_site_fract_x
 _atom_site_fract_y
 _atom_site_fract_z
 _atom_site_occupancy
  Al  Al0  1  0.09674013  0.10342814  0.39538125  1
  Al  Al1  1  0.22485366  0.19998077  0.14056219  1
  Al  Al2  1  0.78102620  0.08810832  0.86446590  1
  Al  Al3  1  0.44663000  0.09172005  0.38261791  1
  Al  Al4  1  0.55486314  0.20710999  0.06557242  1
  Al  Al5  1  0.10967819  0.09649527  0.87954990  1
  Al  Al6  1  0.21739796  0.20589485  0.63895874  1
  Al  Al7  1  0.88685871  0.20757657  0.13366820  1
  Al  Al8  1  0.43893766  0.07762979  0.89353789  1
  Al  Al9  1  0.57749616  0.19394497  0.57188323  1
  Al  Al10  1  0.11058523  0.43162829  0.39126044  1
  Al  Al11  1  0.22295862  0.53491360  0.13931787  1
  Al  Al12  1  0.78009657  0.42546283  0.87657905  1
  Al  Al13  1  0.88767821  0.54080890  0.63831189  1
  Al  Al14  1  0.46251938  0.42226487  0.32039636  1
  Al  Al15  1  0.55020666  0.55295185  0.06076047  1
  Al  Al16  1  0.10934234  0.42758455  0.89021936  1
  Al  Al17  1  0.20714591  0.54608415  0.63798061  1
  Al  Al18  1  0.78487660  0.41678218  0.39661336  1
  Al  Al19  1  0.87976294  0.54342271  0.14276700  1
  Al  Al20  1  0.45019399  0.42413267  0.81347116  1
  Al  Al21  1  0.55151371  0.53709581  0.57688972  1
  Al  Al22  1  0.10685567  0.77788176  0.32204958  1
  Al  Al23  1  0.24283870  0.87011646  0.06503143  1
  Al  Al24  1  0.76315106  0.75589994  0.89884040  1
  Al  Al25  1  0.44659926  0.76250407  0.31790100  1
  Al  Al26  1  0.11566633  0.75754480  0.86835669  1
  Al  Al27  1  0.21199886  0.87071787  0.57877955  1
  Al  Al28  1  0.77873700  0.77667198  0.38338688  1
  Al  Al29  1  0.88067185  0.87925430  0.09331084  1
  Al  Al30  1  0.55935588  0.87613295  0.64334320  1
  B  B31  1  0.89729577  0.19185576  0.64943006  1
  B  B32  1  0.78022950  0.09390502  0.34212777  1
  B  B33  1  0.89181181  0.88248383  0.60703089  1
  B  B34  1  0.56064400  0.87370431  0.14938678  1
  B  B35  1  0.44140500  0.75616334  0.80907528  1
  N  N36  1  0.21819111  0.20752657  0.32851466  1
  N  N37  1  0.10758897  0.10162478  0.07111716  1
  N  N38  1  0.89221921  0.20428944  0.80687355  1
  N  N39  1  0.80397153  0.07066901  0.62421406  1
  N  N40  1  0.59223556  0.19217816  0.37452330  1
  N  N41  1  0.45468438  0.06625949  0.08780478  1
  N  N42  1  0.22296702  0.20558250  0.82553174  1
  N  N43  1  0.08146228  0.11001207  0.58784289  1
  N  N44  1  0.87482711  0.19464775  0.32479014  1
  N  N45  1  0.78057132  0.10510039  0.06723988  1
  N  N46  1  0.54602094  0.20616485  0.87432309  1
  N  N47  1  0.43960537  0.09038042  0.57117841  1
  N  N48  1  0.22229892  0.54060120  0.33084270  1
  N  N49  1  0.10949172  0.42859549  0.07852997  1
  N  N50  1  0.88818609  0.54076286  0.82473662  1
  N  N51  1  0.79175289  0.39767224  0.58776946  1
  N  N52  1  0.55312948  0.54747807  0.38782207  1
  N  N53  1  0.45593384  0.42598901  0.13013235  1
  N  N54  1  0.21957432  0.53648688  0.82905081  1
  N  N55  1  0.10820605  0.42722071  0.57628603  1
  N  N56  1  0.88626856  0.54197704  0.33211212  1
  N  N57  1  0.78328646  0.42646816  0.06890031  1
  N  N58  1  0.53909023  0.56413494  0.86840874  1
  N  N59  1  0.44638218  0.41856975  0.62501762  1
  N  N60  1  0.22970167  0.87160612  0.38675793  1
  N  N61  1  0.11928944  0.76448103  0.11183169  1
  N  N62  1  0.89137170  0.85925311  0.88773788  1
  N  N63  1  0.78695441  0.78218468  0.57749456  1
  N  N64  1  0.56374784  0.88008949  0.31127022  1
  N  N65  1  0.45766095  0.76998295  0.13191734  1
  N  N66  1  0.25313269  0.85655973  0.87175391  1
  N  N67  1  0.07551962  0.77743579  0.60918362  1
  N  N68  1  0.87258182  0.90922762  0.32227339  1
  N  N69  1  0.74622517  0.77137845  0.09050971  1
  N  N70  1  0.54566446  0.85796518  0.82852846  1
  N  N71  1  0.43516386  0.75589924  0.64750851  1
