# generated using pymatgen
data_Al31B5N36
_symmetry_space_group_name_H-M   'P 1'
_cell_length_a   9.17586593
_cell_length_b   9.17240485
_cell_length_c   10.03252064
_cell_angle_alpha   89.49449152
_cell_angle_beta   89.29710257
_cell_angle_gamma   60.02568955
_symmetry_Int_Tables_number   1
_chemical_formula_structural   Al31B5N36
_chemical_formula_sum   'Al31 B5 N36'
_cell_volume   731.38921504
_cell_formula_units_Z   1
loop_
 _symmetry_equiv_pos_site_id
 _symmetry_equiv_pos_as_xyz
  1  'x, y, z'
loop_
 _atom_site_type_symbol
 _atom_site_label
 _atom_site_symmetry_multiplicity
 _atom_site_fract_x
 _atom_site_fract_y
 _atom_site_fract_z
 _atom_site_occupancy
  Al  Al0  1  0.10032702  0.09434776  0.39520895  1
  Al  Al1  1  0.22603762  0.19880780  0.13999923  1
  Al  Al2  1  0.78115542  0.09058172  0.85082862  1
  Al  Al3  1  0.44864774  0.09122045  0.38392425  1
  Al  Al4  1  0.55802360  0.20368798  0.06209382  1
  Al  Al5  1  0.11499626  0.08987074  0.88539801  1
  Al  Al6  1  0.21860758  0.20705965  0.63855938  1
  Al  Al7  1  0.88566786  0.20291095  0.13024449  1
  Al  Al8  1  0.43889845  0.07861585  0.89126235  1
  Al  Al9  1  0.57980750  0.19724856  0.57423062  1
  Al  Al10  1  0.11064137  0.42903609  0.38965162  1
  Al  Al11  1  0.21526089  0.54283994  0.13952658  1
  Al  Al12  1  0.78053616  0.42715778  0.87968164  1
  Al  Al13  1  0.88673256  0.53961511  0.63782467  1
  Al  Al14  1  0.46010466  0.41971685  0.31608165  1
  Al  Al15  1  0.54659145  0.55719084  0.07079839  1
  Al  Al16  1  0.11067361  0.42650286  0.89017721  1
  Al  Al17  1  0.20837644  0.54674046  0.63750648  1
  Al  Al18  1  0.78894985  0.41161408  0.39069892  1
  Al  Al19  1  0.87891829  0.54436363  0.13964573  1
  Al  Al20  1  0.44694075  0.42923724  0.81434317  1
  Al  Al21  1  0.55360851  0.53748293  0.56522819  1
  Al  Al22  1  0.09948790  0.77267439  0.39455600  1
  Al  Al23  1  0.22420180  0.87536396  0.14168507  1
  Al  Al24  1  0.76945228  0.76027830  0.88829599  1
  Al  Al25  1  0.44686235  0.76587483  0.35679939  1
  Al  Al26  1  0.11511642  0.75788915  0.88651237  1
  Al  Al27  1  0.21850129  0.87518399  0.63423181  1
  Al  Al28  1  0.77595187  0.77384752  0.39006828  1
  Al  Al29  1  0.87994447  0.87961478  0.13253241  1
  Al  Al30  1  0.55623970  0.87333082  0.63444703  1
  B  B31  1  0.89657438  0.19473248  0.64819384  1
  B  B32  1  0.78013984  0.09391816  0.34881100  1
  B  B33  1  0.89516386  0.87908333  0.64927896  1
  B  B34  1  0.55528093  0.87348337  0.14734488  1
  B  B35  1  0.44274723  0.75946505  0.84732544  1
  N  N36  1  0.21948086  0.20448498  0.33013549  1
  N  N37  1  0.11067558  0.09458020  0.07409897  1
  N  N38  1  0.89642272  0.20713229  0.80943928  1
  N  N39  1  0.80473353  0.08062693  0.62553936  1
  N  N40  1  0.59192283  0.19068766  0.37285248  1
  N  N41  1  0.45592396  0.06668561  0.08582311  1
  N  N42  1  0.22245975  0.20440784  0.82742330  1
  N  N43  1  0.08674616  0.10614533  0.58686316  1
  N  N44  1  0.87565011  0.18949548  0.32419497  1
  N  N45  1  0.78902639  0.08922566  0.05746866  1
  N  N46  1  0.54582554  0.20763404  0.87023729  1
  N  N47  1  0.44312766  0.09559094  0.57512870  1
  N  N48  1  0.21771948  0.54560642  0.33236757  1
  N  N49  1  0.10968289  0.42689372  0.07995536  1
  N  N50  1  0.88878638  0.54018628  0.82625963  1
  N  N51  1  0.79390692  0.39700284  0.58541211  1
  N  N52  1  0.56056674  0.53401619  0.37373852  1
  N  N53  1  0.45131766  0.42484992  0.12553917  1
  N  N54  1  0.21580374  0.54040945  0.82770209  1
  N  N55  1  0.10885360  0.42828935  0.57653329  1
  N  N56  1  0.88599524  0.54198447  0.33073208  1
  N  N57  1  0.78093235  0.42473811  0.07158869  1
  N  N58  1  0.53535268  0.57057482  0.87049126  1
  N  N59  1  0.44724732  0.42513579  0.62439074  1
  N  N60  1  0.21376132  0.87728283  0.33173957  1
  N  N61  1  0.11087335  0.76312705  0.07599673  1
  N  N62  1  0.89360039  0.85988058  0.81207622  1
  N  N63  1  0.78673699  0.77725451  0.58277983  1
  N  N64  1  0.56417121  0.87885875  0.31050191  1
  N  N65  1  0.45741012  0.77543901  0.12543996  1
  N  N66  1  0.25076739  0.85614082  0.82817145  1
  N  N67  1  0.08475686  0.77744342  0.58672255  1
  N  N68  1  0.87426365  0.90393214  0.32613168  1
  N  N69  1  0.75369277  0.77424308  0.08232787  1
  N  N70  1  0.54021226  0.85337961  0.82648913  1
  N  N71  1  0.43998186  0.77240152  0.56617257  1
