# generated using pymatgen
data_Al31B5N36
_symmetry_space_group_name_H-M   'P 1'
_cell_length_a   9.18489838
_cell_length_b   9.15922158
_cell_length_c   10.14014837
_cell_angle_alpha   89.60894442
_cell_angle_beta   89.40419632
_cell_angle_gamma   60.25241592
_symmetry_Int_Tables_number   1
_chemical_formula_structural   Al31B5N36
_chemical_formula_sum   'Al31 B5 N36'
_cell_volume   740.59811829
_cell_formula_units_Z   1
loop_
 _symmetry_equiv_pos_site_id
 _symmetry_equiv_pos_as_xyz
  1  'x, y, z'
loop_
 _atom_site_type_symbol
 _atom_site_label
 _atom_site_symmetry_multiplicity
 _atom_site_fract_x
 _atom_site_fract_y
 _atom_site_fract_z
 _atom_site_occupancy
  Al  Al0  1  0.09687312  0.10379574  0.39530642  1
  Al  Al1  1  0.22484630  0.20029464  0.14040430  1
  Al  Al2  1  0.78131539  0.08754759  0.86404553  1
  Al  Al3  1  0.44664283  0.09170184  0.38264557  1
  Al  Al4  1  0.55484218  0.20718185  0.06535666  1
  Al  Al5  1  0.10979257  0.09608442  0.87920816  1
  Al  Al6  1  0.21743508  0.20621250  0.63906591  1
  Al  Al7  1  0.88684577  0.20752671  0.13353582  1
  Al  Al8  1  0.43901063  0.07762598  0.89342318  1
  Al  Al9  1  0.57745148  0.19400155  0.57207802  1
  Al  Al10  1  0.11038712  0.43146331  0.39141594  1
  Al  Al11  1  0.22253641  0.53578862  0.13973985  1
  Al  Al12  1  0.77997624  0.42541189  0.87647173  1
  Al  Al13  1  0.88759957  0.54085509  0.63834134  1
  Al  Al14  1  0.46292160  0.42205334  0.32021371  1
  Al  Al15  1  0.55017485  0.55282374  0.06066498  1
  Al  Al16  1  0.10931622  0.42778362  0.88993208  1
  Al  Al17  1  0.20605370  0.54773213  0.63832888  1
  Al  Al18  1  0.78479094  0.41676851  0.39662741  1
  Al  Al19  1  0.87984316  0.54330552  0.14248197  1
  Al  Al20  1  0.44957320  0.42456115  0.81329129  1
  Al  Al21  1  0.55147847  0.53705397  0.57703207  1
  Al  Al22  1  0.10562005  0.77638728  0.33540657  1
  Al  Al23  1  0.24371853  0.87095796  0.06557739  1
  Al  Al24  1  0.76337994  0.75623559  0.89845904  1
  Al  Al25  1  0.44696817  0.76232922  0.31768408  1
  Al  Al26  1  0.11746011  0.75476807  0.88298745  1
  Al  Al27  1  0.21244647  0.87128435  0.57960548  1
  Al  Al28  1  0.77825635  0.77641694  0.38317218  1
  Al  Al29  1  0.88018513  0.87947666  0.09514180  1
  Al  Al30  1  0.55932403  0.87616347  0.64343083  1
  B  B31  1  0.89727786  0.19190261  0.64939384  1
  B  B32  1  0.78022933  0.09408564  0.34173794  1
  B  B33  1  0.89178380  0.88232660  0.60553164  1
  B  B34  1  0.56082214  0.87368816  0.14925150  1
  B  B35  1  0.44092293  0.75651018  0.80922415  1
  N  N36  1  0.21830342  0.20774749  0.32848025  1
  N  N37  1  0.10752953  0.10189221  0.07132729  1
  N  N38  1  0.89209801  0.20429857  0.80679102  1
  N  N39  1  0.80423426  0.07052584  0.62364333  1
  N  N40  1  0.59245572  0.19187948  0.37430871  1
  N  N41  1  0.45472371  0.06625168  0.08779138  1
  N  N42  1  0.22293162  0.20567226  0.82561293  1
  N  N43  1  0.08152836  0.11024593  0.58790368  1
  N  N44  1  0.87487929  0.19445565  0.32488706  1
  N  N45  1  0.78062897  0.10491412  0.06729486  1
  N  N46  1  0.54592562  0.20640564  0.87419510  1
  N  N47  1  0.43960150  0.09046646  0.57115616  1
  N  N48  1  0.22201824  0.54083424  0.33039233  1
  N  N49  1  0.10967388  0.42872388  0.07857555  1
  N  N50  1  0.88805799  0.54061327  0.82474746  1
  N  N51  1  0.79172592  0.39769114  0.58768771  1
  N  N52  1  0.55305342  0.54742951  0.38776630  1
  N  N53  1  0.45580689  0.42598865  0.13030268  1
  N  N54  1  0.21849936  0.53803746  0.82838532  1
  N  N55  1  0.10824266  0.42745155  0.57637308  1
  N  N56  1  0.88628473  0.54183069  0.33201394  1
  N  N57  1  0.78321785  0.42641367  0.06896562  1
  N  N58  1  0.53891757  0.56406285  0.86840659  1
  N  N59  1  0.44594750  0.41883582  0.62476858  1
  N  N60  1  0.23065883  0.87241863  0.38643479  1
  N  N61  1  0.12004833  0.76240133  0.10187990  1
  N  N62  1  0.89108322  0.85920867  0.88550324  1
  N  N63  1  0.78646402  0.78228094  0.57709077  1
  N  N64  1  0.56372535  0.88018130  0.31117922  1
  N  N65  1  0.45821332  0.76974700  0.13191110  1
  N  N66  1  0.25341730  0.85673395  0.87147658  1
  N  N67  1  0.07527879  0.77677578  0.59879410  1
  N  N68  1  0.87291736  0.90864610  0.32041303  1
  N  N69  1  0.74635041  0.77132304  0.09048379  1
  N  N70  1  0.54569204  0.85795340  0.82853880  1
  N  N71  1  0.43534516  0.75586807  0.64744795  1
