# generated using pymatgen
data_Al31B5N36
_symmetry_space_group_name_H-M   'P 1'
_cell_length_a   9.19721882
_cell_length_b   9.14907965
_cell_length_c   10.15066977
_cell_angle_alpha   89.39350054
_cell_angle_beta   89.43801792
_cell_angle_gamma   60.17258601
_symmetry_Int_Tables_number   1
_chemical_formula_structural   Al31B5N36
_chemical_formula_sum   'Al31 B5 N36'
_cell_volume   740.93758224
_cell_formula_units_Z   1
loop_
 _symmetry_equiv_pos_site_id
 _symmetry_equiv_pos_as_xyz
  1  'x, y, z'
loop_
 _atom_site_type_symbol
 _atom_site_label
 _atom_site_symmetry_multiplicity
 _atom_site_fract_x
 _atom_site_fract_y
 _atom_site_fract_z
 _atom_site_occupancy
  Al  Al0  1  0.10697670  0.08606127  0.31178759  1
  Al  Al1  1  0.23085547  0.20415591  0.13526127  1
  Al  Al2  1  0.78076438  0.09065631  0.82461692  1
  Al  Al3  1  0.44734574  0.09038843  0.39365563  1
  Al  Al4  1  0.55778456  0.20329228  0.06650380  1
  Al  Al5  1  0.10776086  0.09147764  0.84241001  1
  Al  Al6  1  0.21824156  0.21220280  0.64185857  1
  Al  Al7  1  0.88167381  0.20825270  0.10637644  1
  Al  Al8  1  0.44339864  0.08041190  0.87838115  1
  Al  Al9  1  0.57807826  0.20119899  0.56340272  1
  Al  Al10  1  0.11026671  0.42279617  0.38696675  1
  Al  Al11  1  0.22461775  0.54407983  0.06638911  1
  Al  Al12  1  0.77556734  0.43171026  0.88912884  1
  Al  Al13  1  0.89241409  0.53809253  0.63998514  1
  Al  Al14  1  0.45328558  0.42080190  0.31678007  1
  Al  Al15  1  0.54433921  0.55704612  0.06548781  1
  Al  Al16  1  0.10409061  0.42803188  0.89012660  1
  Al  Al17  1  0.22102746  0.54558466  0.56731811  1
  Al  Al18  1  0.78677287  0.40831562  0.38620696  1
  Al  Al19  1  0.87595109  0.54777579  0.14687894  1
  Al  Al20  1  0.44402676  0.43196183  0.81504939  1
  Al  Al21  1  0.55232372  0.53680544  0.57191254  1
  Al  Al22  1  0.10796011  0.76710353  0.31363261  1
  Al  Al23  1  0.23575406  0.87106080  0.06131533  1
  Al  Al24  1  0.76340191  0.76149920  0.88556890  1
  Al  Al25  1  0.45199582  0.76151933  0.32503224  1
  Al  Al26  1  0.11133610  0.76321981  0.82182208  1
  Al  Al27  1  0.21128350  0.88036500  0.56904350  1
  Al  Al28  1  0.78517621  0.77301915  0.39587797  1
  Al  Al29  1  0.88313607  0.87626860  0.08663476  1
  Al  Al30  1  0.55674916  0.87516944  0.61466927  1
  B  B31  1  0.89933969  0.19295677  0.60975867  1
  B  B32  1  0.77708895  0.09063696  0.30046601  1
  B  B33  1  0.89894300  0.87513734  0.60698980  1
  B  B34  1  0.55306944  0.87226146  0.10082805  1
  B  B35  1  0.44297581  0.75874309  0.80510094  1
  N  N36  1  0.22971617  0.20365270  0.32333257  1
  N  N37  1  0.11519863  0.08982213  0.11460121  1
  N  N38  1  0.88635906  0.20011370  0.88686504  1
  N  N39  1  0.80907639  0.07818536  0.62776594  1
  N  N40  1  0.58689706  0.19130303  0.37163827  1
  N  N41  1  0.45592355  0.06137603  0.07546326  1
  N  N42  1  0.22161086  0.20937986  0.82978347  1
  N  N43  1  0.08303139  0.10658410  0.62528750  1
  N  N44  1  0.87603390  0.19507961  0.31975811  1
  N  N45  1  0.76327970  0.09656147  0.14053216  1
  N  N46  1  0.55640738  0.20677740  0.87713120  1
  N  N47  1  0.43762284  0.10729122  0.58446645  1
  N  N48  1  0.22664269  0.54265361  0.37763928  1
  N  N49  1  0.10186850  0.43103486  0.07966898  1
  N  N50  1  0.88670390  0.54017478  0.82427636  1
  N  N51  1  0.79611344  0.38700141  0.58575228  1
  N  N52  1  0.55381979  0.53919483  0.38325556  1
  N  N53  1  0.44433498  0.42896544  0.12793859  1
  N  N54  1  0.22463871  0.54123576  0.87624729  1
  N  N55  1  0.10609346  0.42678116  0.57576032  1
  N  N56  1  0.88611962  0.54187252  0.33444495  1
  N  N57  1  0.77207087  0.43882318  0.07936547  1
  N  N58  1  0.53729485  0.56923426  0.87048164  1
  N  N59  1  0.44449568  0.42341917  0.62929732  1
  N  N60  1  0.22550806  0.87038949  0.38217917  1
  N  N61  1  0.11870653  0.76288673  0.12486393  1
  N  N62  1  0.89103310  0.87105905  0.88952996  1
  N  N63  1  0.80154208  0.78125961  0.59221846  1
  N  N64  1  0.55911343  0.86136773  0.39704741  1
  N  N65  1  0.45733672  0.77900361  0.13219883  1
  N  N66  1  0.25003080  0.85865144  0.87065145  1
  N  N67  1  0.08609497  0.77539888  0.62944246  1
  N  N68  1  0.87846172  0.89785124  0.33678881  1
  N  N69  1  0.74035174  0.77455706  0.08181356  1
  N  N70  1  0.54627783  0.86010901  0.81714242  1
  N  N71  1  0.43367053  0.75538981  0.64462637  1
