# generated using pymatgen
data_Al31B5N36
_symmetry_space_group_name_H-M   'P 1'
_cell_length_a   9.20686904
_cell_length_b   9.18053875
_cell_length_c   10.04198097
_cell_angle_alpha   90.00075292
_cell_angle_beta   89.92836635
_cell_angle_gamma   60.12429918
_symmetry_Int_Tables_number   1
_chemical_formula_structural   Al31B5N36
_chemical_formula_sum   'Al31 B5 N36'
_cell_volume   735.99066303
_cell_formula_units_Z   1
loop_
 _symmetry_equiv_pos_site_id
 _symmetry_equiv_pos_as_xyz
  1  'x, y, z'
loop_
 _atom_site_type_symbol
 _atom_site_label
 _atom_site_symmetry_multiplicity
 _atom_site_fract_x
 _atom_site_fract_y
 _atom_site_fract_z
 _atom_site_occupancy
  Al  Al0  1  0.10461338  0.08608172  0.32443317  1
  Al  Al1  1  0.22825407  0.20442149  0.14270518  1
  Al  Al2  1  0.78210863  0.08920310  0.81911550  1
  Al  Al3  1  0.45792382  0.08298751  0.35430030  1
  Al  Al4  1  0.56080890  0.19891551  0.07200423  1
  Al  Al5  1  0.10367210  0.09044389  0.81135129  1
  Al  Al6  1  0.21208782  0.21391423  0.62743605  1
  Al  Al7  1  0.88889262  0.20432191  0.07210137  1
  Al  Al8  1  0.44676806  0.09117956  0.81404265  1
  Al  Al9  1  0.57531054  0.19752070  0.56413739  1
  Al  Al10  1  0.10859583  0.42675843  0.38708076  1
  Al  Al11  1  0.22556636  0.54349917  0.06711015  1
  Al  Al12  1  0.77262799  0.43664349  0.88080893  1
  Al  Al13  1  0.89076300  0.53903901  0.64270747  1
  Al  Al14  1  0.45323690  0.42117766  0.31611725  1
  Al  Al15  1  0.54485440  0.55780542  0.06636081  1
  Al  Al16  1  0.10574481  0.42377677  0.88991631  1
  Al  Al17  1  0.22137393  0.54563241  0.56980482  1
  Al  Al18  1  0.78505412  0.41727449  0.39277777  1
  Al  Al19  1  0.87706091  0.54703121  0.14368385  1
  Al  Al20  1  0.44362434  0.43246463  0.81756571  1
  Al  Al21  1  0.55306433  0.53613837  0.57415074  1
  Al  Al22  1  0.11156572  0.76410382  0.31276595  1
  Al  Al23  1  0.23263115  0.87899284  0.06046236  1
  Al  Al24  1  0.76008032  0.76731773  0.89205873  1
  Al  Al25  1  0.45040675  0.76048528  0.32516335  1
  Al  Al26  1  0.10809840  0.76327688  0.82621726  1
  Al  Al27  1  0.21240436  0.87458566  0.56924097  1
  Al  Al28  1  0.78616961  0.76939970  0.39577549  1
  Al  Al29  1  0.88197950  0.88160033  0.10286644  1
  Al  Al30  1  0.55808021  0.86873445  0.60574872  1
  B  B31  1  0.89914017  0.18021679  0.55817572  1
  B  B32  1  0.77933117  0.08984893  0.31346786  1
  B  B33  1  0.89638446  0.87237682  0.60818021  1
  B  B34  1  0.55370738  0.87646113  0.11071374  1
  B  B35  1  0.44138944  0.76199133  0.80539285  1
  N  N36  1  0.22559756  0.20446914  0.33643743  1
  N  N37  1  0.10704051  0.09318941  0.13241584  1
  N  N38  1  0.88901393  0.20056906  0.88110635  1
  N  N39  1  0.80661058  0.07033789  0.62271460  1
  N  N40  1  0.58608935  0.19033740  0.37341843  1
  N  N41  1  0.46398676  0.06375736  0.12264938  1
  N  N42  1  0.21577074  0.20973784  0.82271823  1
  N  N43  1  0.08186711  0.10327126  0.61538971  1
  N  N44  1  0.88362948  0.17899878  0.39208655  1
  N  N45  1  0.77215112  0.11123646  0.15164309  1
  N  N46  1  0.55779856  0.20418713  0.87931409  1
  N  N47  1  0.44508991  0.10283088  0.61376510  1
  N  N48  1  0.22765975  0.54186443  0.37706745  1
  N  N49  1  0.10529528  0.42792264  0.08254236  1
  N  N50  1  0.88623606  0.54534639  0.82896064  1
  N  N51  1  0.79191117  0.40168622  0.58696389  1
  N  N52  1  0.55388902  0.53857390  0.38068193  1
  N  N53  1  0.44591641  0.42848838  0.12683393  1
  N  N54  1  0.22363702  0.53989429  0.87599404  1
  N  N55  1  0.10392776  0.43133943  0.57564256  1
  N  N56  1  0.88569138  0.54219642  0.33190487  1
  N  N57  1  0.77385926  0.43589846  0.07835377  1
  N  N58  1  0.53481387  0.57148541  0.87055577  1
  N  N59  1  0.44611544  0.42142254  0.62932622  1
  N  N60  1  0.22703956  0.86620759  0.38264299  1
  N  N61  1  0.12209973  0.76343657  0.12366304  1
  N  N62  1  0.88816387  0.87633753  0.89481119  1
  N  N63  1  0.80249671  0.77690774  0.59098940  1
  N  N64  1  0.55670536  0.86261259  0.40288662  1
  N  N65  1  0.45660167  0.78185033  0.13239714  1
  N  N66  1  0.24462605  0.86421830  0.86783782  1
  N  N67  1  0.08433637  0.77443177  0.63037557  1
  N  N68  1  0.87742350  0.89268429  0.32850037  1
  N  N69  1  0.74096649  0.77744370  0.08771726  1
  N  N70  1  0.54546906  0.85849261  0.82115918  1
  N  N71  1  0.43222313  0.75534026  0.64392414  1
