# generated using pymatgen
data_Al31B5N36
_symmetry_space_group_name_H-M   'P 1'
_cell_length_a   9.20760219
_cell_length_b   9.25999892
_cell_length_c   9.91742036
_cell_angle_alpha   89.74444152
_cell_angle_beta   89.68726298
_cell_angle_gamma   60.01472311
_symmetry_Int_Tables_number   1
_chemical_formula_structural   Al31B5N36
_chemical_formula_sum   'Al31 B5 N36'
_cell_volume   732.39253847
_cell_formula_units_Z   1
loop_
 _symmetry_equiv_pos_site_id
 _symmetry_equiv_pos_as_xyz
  1  'x, y, z'
loop_
 _atom_site_type_symbol
 _atom_site_label
 _atom_site_symmetry_multiplicity
 _atom_site_fract_x
 _atom_site_fract_y
 _atom_site_fract_z
 _atom_site_occupancy
  Al  Al0  1  0.10876355  0.08868745  0.32345807  1
  Al  Al1  1  0.22736690  0.19385442  0.07913158  1
  Al  Al2  1  0.78212755  0.08926783  0.82558723  1
  Al  Al3  1  0.45612284  0.08247051  0.33009044  1
  Al  Al4  1  0.56098730  0.20002926  0.07653233  1
  Al  Al5  1  0.10560669  0.09402974  0.81878311  1
  Al  Al6  1  0.21755277  0.19961764  0.56972007  1
  Al  Al7  1  0.88337467  0.21407386  0.07636560  1
  Al  Al8  1  0.43991642  0.09322455  0.81967595  1
  Al  Al9  1  0.57012986  0.19628267  0.56600186  1
  Al  Al10  1  0.11040497  0.43128366  0.38660980  1
  Al  Al11  1  0.22742812  0.54208614  0.07378951  1
  Al  Al12  1  0.76760328  0.43342618  0.80939571  1
  Al  Al13  1  0.89522563  0.55428543  0.64333636  1
  Al  Al14  1  0.45503680  0.42293600  0.31931939  1
  Al  Al15  1  0.56220659  0.54815738  0.06954633  1
  Al  Al16  1  0.10123974  0.43087198  0.89341456  1
  Al  Al17  1  0.22565284  0.54111942  0.57664732  1
  Al  Al18  1  0.78224290  0.41951938  0.37478263  1
  Al  Al19  1  0.87980265  0.54633603  0.15463986  1
  Al  Al20  1  0.44523053  0.43016580  0.82377577  1
  Al  Al21  1  0.54812562  0.54629015  0.57814083  1
  Al  Al22  1  0.11120035  0.76544775  0.31783553  1
  Al  Al23  1  0.23371286  0.87353409  0.06600974  1
  Al  Al24  1  0.75816795  0.76544539  0.89756800  1
  Al  Al25  1  0.45132343  0.76107519  0.32964834  1
  Al  Al26  1  0.10810614  0.76315264  0.83167529  1
  Al  Al27  1  0.21333576  0.87056676  0.57381577  1
  Al  Al28  1  0.78270752  0.77525956  0.40087595  1
  Al  Al29  1  0.88290383  0.88062975  0.10514161  1
  Al  Al30  1  0.55465858  0.87201617  0.61041721  1
  B  B31  1  0.91597098  0.13787941  0.55329428  1
  B  B32  1  0.77579772  0.08797323  0.31395497  1
  B  B33  1  0.89758671  0.87095693  0.61206863  1
  B  B34  1  0.55519979  0.87134723  0.11467857  1
  B  B35  1  0.43877767  0.76495150  0.81091693  1
  N  N36  1  0.22524391  0.19881180  0.37497058  1
  N  N37  1  0.10792009  0.09177998  0.13346915  1
  N  N38  1  0.88147696  0.21207532  0.88201722  1
  N  N39  1  0.81061551  0.06615381  0.62324583  1
  N  N40  1  0.58301895  0.18967766  0.37302877  1
  N  N41  1  0.46202085  0.06285183  0.13194658  1
  N  N42  1  0.22009325  0.19920107  0.88243280  1
  N  N43  1  0.08101127  0.10039583  0.62101403  1
  N  N44  1  0.88637783  0.17817237  0.40258723  1
  N  N45  1  0.77400544  0.10810403  0.15263411  1
  N  N46  1  0.55693779  0.20178495  0.88322933  1
  N  N47  1  0.43910127  0.10520722  0.62888648  1
  N  N48  1  0.22972100  0.54343819  0.38093333  1
  N  N49  1  0.10577929  0.43048290  0.09415975  1
  N  N50  1  0.88547238  0.54790003  0.83546093  1
  N  N51  1  0.77206153  0.44698365  0.61479644  1
  N  N52  1  0.55108742  0.54164084  0.38801324  1
  N  N53  1  0.44920770  0.42793528  0.12828263  1
  N  N54  1  0.22377233  0.54011927  0.87940802  1
  N  N55  1  0.11083452  0.42708034  0.58628238  1
  N  N56  1  0.88661847  0.55082560  0.34618164  1
  N  N57  1  0.77364412  0.42593245  0.14308895  1
  N  N58  1  0.54122665  0.56663501  0.87415844  1
  N  N59  1  0.45151896  0.41959017  0.63284701  1
  N  N60  1  0.22564316  0.86866673  0.38479399  1
  N  N61  1  0.12199903  0.76157163  0.12743135  1
  N  N62  1  0.88652511  0.87644962  0.89873668  1
  N  N63  1  0.79972782  0.78520540  0.59685171  1
  N  N64  1  0.55255076  0.87047940  0.40465355  1
  N  N65  1  0.45921840  0.77837637  0.13390139  1
  N  N66  1  0.24231628  0.86402839  0.87251837  1
  N  N67  1  0.08516621  0.77197021  0.63365382  1
  N  N68  1  0.87659309  0.89545633  0.33355999  1
  N  N69  1  0.74180011  0.77554067  0.09516966  1
  N  N70  1  0.54171568  0.85961656  0.83006329  1
  N  N71  1  0.42597686  0.76260203  0.64922480  1
