# generated using pymatgen
data_Al31B5N36
_symmetry_space_group_name_H-M   'P 1'
_cell_length_a   9.17773217
_cell_length_b   9.20480940
_cell_length_c   10.17560779
_cell_angle_alpha   89.58533305
_cell_angle_beta   89.29182209
_cell_angle_gamma   59.92578460
_symmetry_Int_Tables_number   1
_chemical_formula_structural   Al31B5N36
_chemical_formula_sum   'Al31 B5 N36'
_cell_volume   743.84493526
_cell_formula_units_Z   1
loop_
 _symmetry_equiv_pos_site_id
 _symmetry_equiv_pos_as_xyz
  1  'x, y, z'
loop_
 _atom_site_type_symbol
 _atom_site_label
 _atom_site_symmetry_multiplicity
 _atom_site_fract_x
 _atom_site_fract_y
 _atom_site_fract_z
 _atom_site_occupancy
  Al  Al0  1  0.09633470  0.10122215  0.39275178  1
  Al  Al1  1  0.22255611  0.19681485  0.13661927  1
  Al  Al2  1  0.78121438  0.08572806  0.81001046  1
  Al  Al3  1  0.44577779  0.08845574  0.38939507  1
  Al  Al4  1  0.55773321  0.20423756  0.06802361  1
  Al  Al5  1  0.11161194  0.09734378  0.87733367  1
  Al  Al6  1  0.22186058  0.21082201  0.64023265  1
  Al  Al7  1  0.88598943  0.20926260  0.13984139  1
  Al  Al8  1  0.44665485  0.08135957  0.87868998  1
  Al  Al9  1  0.57892215  0.19226709  0.56265816  1
  Al  Al10  1  0.11026667  0.42392265  0.38401304  1
  Al  Al11  1  0.22615006  0.54269912  0.06984097  1
  Al  Al12  1  0.77728750  0.43408504  0.87830868  1
  Al  Al13  1  0.89626577  0.54165661  0.64067288  1
  Al  Al14  1  0.45454159  0.42120303  0.31748206  1
  Al  Al15  1  0.54708584  0.55403513  0.06192240  1
  Al  Al16  1  0.10898318  0.42710581  0.89086483  1
  Al  Al17  1  0.22335554  0.54314413  0.56686965  1
  Al  Al18  1  0.78622272  0.41466029  0.39176528  1
  Al  Al19  1  0.87726327  0.54272605  0.14070157  1
  Al  Al20  1  0.44615565  0.43123009  0.81546217  1
  Al  Al21  1  0.55237218  0.53827901  0.57515126  1
  Al  Al22  1  0.10757553  0.76999601  0.31544327  1
  Al  Al23  1  0.23486785  0.86827517  0.05968295  1
  Al  Al24  1  0.76586989  0.76586719  0.88836194  1
  Al  Al25  1  0.44649977  0.76255401  0.32606617  1
  Al  Al26  1  0.11117335  0.76278973  0.82447459  1
  Al  Al27  1  0.20776355  0.87488344  0.58002104  1
  Al  Al28  1  0.78366866  0.76828440  0.39038984  1
  Al  Al29  1  0.88302590  0.87701079  0.09576255  1
  Al  Al30  1  0.55759923  0.87311481  0.61477638  1
  B  B31  1  0.91399151  0.23334172  0.65115312  1
  B  B32  1  0.77077748  0.08767513  0.30135981  1
  B  B33  1  0.88776553  0.86451766  0.61038150  1
  B  B34  1  0.55191015  0.87132633  0.10249536  1
  B  B35  1  0.44215247  0.76063123  0.80414519  1
  N  N36  1  0.22226529  0.19998321  0.32323240  1
  N  N37  1  0.10161285  0.10074917  0.06579798  1
  N  N38  1  0.89313604  0.21650220  0.79982768  1
  N  N39  1  0.78792590  0.04494954  0.63139647  1
  N  N40  1  0.58542729  0.19077033  0.36974449  1
  N  N41  1  0.45404793  0.06057660  0.07686395  1
  N  N42  1  0.22406279  0.20921760  0.82553023  1
  N  N43  1  0.08238129  0.11783369  0.58758110  1
  N  N44  1  0.88037151  0.19702399  0.32498179  1
  N  N45  1  0.76358476  0.10045825  0.14244873  1
  N  N46  1  0.56136356  0.20827635  0.88056295  1
  N  N47  1  0.43617653  0.10230100  0.57802740  1
  N  N48  1  0.22632933  0.54322641  0.37672234  1
  N  N49  1  0.10649881  0.42611027  0.08059405  1
  N  N50  1  0.89095421  0.54521634  0.82589331  1
  N  N51  1  0.79754842  0.40411445  0.58721806  1
  N  N52  1  0.55320860  0.53977792  0.38586281  1
  N  N53  1  0.44718866  0.42939420  0.12927643  1
  N  N54  1  0.22716749  0.54152330  0.88000292  1
  N  N55  1  0.11005070  0.42445102  0.57352822  1
  N  N56  1  0.88647550  0.53944082  0.32732823  1
  N  N57  1  0.78020257  0.42415053  0.06750993  1
  N  N58  1  0.53870197  0.57051667  0.86862812  1
  N  N59  1  0.44956363  0.41836175  0.62947348  1
  N  N60  1  0.22275420  0.86859557  0.39084137  1
  N  N61  1  0.12177283  0.76221189  0.12761361  1
  N  N62  1  0.89269892  0.87883287  0.89779227  1
  N  N63  1  0.80118393  0.76420795  0.58302888  1
  N  N64  1  0.55723463  0.86193108  0.38735394  1
  N  N65  1  0.45537832  0.77775673  0.13171061  1
  N  N66  1  0.25071468  0.85888955  0.86657537  1
  N  N67  1  0.08170350  0.76992200  0.63432186  1
  N  N68  1  0.87432045  0.89496520  0.32786203  1
  N  N69  1  0.74017708  0.77198395  0.08201231  1
  N  N70  1  0.54913678  0.86176122  0.81594689  1
  N  N71  1  0.43268885  0.75598828  0.64610814  1
