# generated using pymatgen
data_Al31B5N36
_symmetry_space_group_name_H-M   'P 1'
_cell_length_a   9.17651966
_cell_length_b   9.17708481
_cell_length_c   9.85224817
_cell_angle_alpha   90.03149874
_cell_angle_beta   89.59064213
_cell_angle_gamma   60.00457017
_symmetry_Int_Tables_number   1
_chemical_formula_structural   Al31B5N36
_chemical_formula_sum   'Al31 B5 N36'
_cell_volume   718.54291977
_cell_formula_units_Z   1
loop_
 _symmetry_equiv_pos_site_id
 _symmetry_equiv_pos_as_xyz
  1  'x, y, z'
loop_
 _atom_site_type_symbol
 _atom_site_label
 _atom_site_symmetry_multiplicity
 _atom_site_fract_x
 _atom_site_fract_y
 _atom_site_fract_z
 _atom_site_occupancy
  Al  Al0  1  0.09947767  0.09369514  0.40344995  1
  Al  Al1  1  0.22448929  0.20044733  0.14989064  1
  Al  Al2  1  0.78251256  0.09190901  0.86902792  1
  Al  Al3  1  0.45075883  0.08912087  0.38982133  1
  Al  Al4  1  0.56222247  0.19812195  0.12375005  1
  Al  Al5  1  0.11527363  0.09163992  0.89602124  1
  Al  Al6  1  0.21869179  0.20589564  0.64754052  1
  Al  Al7  1  0.88619276  0.20277910  0.14321636  1
  Al  Al8  1  0.44395251  0.08441969  0.89906790  1
  Al  Al9  1  0.56863942  0.19771307  0.64118974  1
  Al  Al10  1  0.10842251  0.42899954  0.39981634  1
  Al  Al11  1  0.22044506  0.54100301  0.15117438  1
  Al  Al12  1  0.77724195  0.43001340  0.89322802  1
  Al  Al13  1  0.88849128  0.54055768  0.64770729  1
  Al  Al14  1  0.44977848  0.42568303  0.39708780  1
  Al  Al15  1  0.55694162  0.54523194  0.14156390  1
  Al  Al16  1  0.11131368  0.42803799  0.89924083  1
  Al  Al17  1  0.21689303  0.54330381  0.64798666  1
  Al  Al18  1  0.77471623  0.41899380  0.40398027  1
  Al  Al19  1  0.88163314  0.54377937  0.15003367  1
  Al  Al20  1  0.44185929  0.43471691  0.89600802  1
  Al  Al21  1  0.55728022  0.53958521  0.65252790  1
  Al  Al22  1  0.09856300  0.77440015  0.40345898  1
  Al  Al23  1  0.22755902  0.87249668  0.14277831  1
  Al  Al24  1  0.77145999  0.76275340  0.89679033  1
  Al  Al25  1  0.44488901  0.76276099  0.39085870  1
  Al  Al26  1  0.11509310  0.76039133  0.89609775  1
  Al  Al27  1  0.22121650  0.87336247  0.65348540  1
  Al  Al28  1  0.77170503  0.77382833  0.39731940  1
  Al  Al29  1  0.88073130  0.87914643  0.14308674  1
  Al  Al30  1  0.55802987  0.87096890  0.64991997  1
  B  B31  1  0.89704261  0.19075399  0.65821246  1
  B  B32  1  0.77485897  0.09616338  0.36056209  1
  B  B33  1  0.89664157  0.88022663  0.65747552  1
  B  B34  1  0.55657150  0.87166251  0.14411066  1
  B  B35  1  0.44988826  0.76440755  0.90213162  1
  N  N36  1  0.21893663  0.20392554  0.34180980  1
  N  N37  1  0.10932234  0.09571746  0.08734101  1
  N  N38  1  0.89608686  0.20738902  0.82109884  1
  N  N39  1  0.80628572  0.08020978  0.62581100  1
  N  N40  1  0.58411759  0.19151702  0.34396820  1
  N  N41  1  0.45619063  0.06894754  0.09432693  1
  N  N42  1  0.22394006  0.20520551  0.83919258  1
  N  N43  1  0.08857395  0.10310889  0.59796624  1
  N  N44  1  0.87212668  0.19096642  0.33854702  1
  N  N45  1  0.78398689  0.09168019  0.06755229  1
  N  N46  1  0.54955546  0.20628468  0.84241585  1
  N  N47  1  0.44581347  0.09151469  0.58381232  1
  N  N48  1  0.21911595  0.54398685  0.34348278  1
  N  N49  1  0.11044427  0.42774357  0.09216363  1
  N  N50  1  0.88961537  0.54063329  0.83926981  1
  N  N51  1  0.78801499  0.40222551  0.59776614  1
  N  N52  1  0.55655906  0.53951237  0.33400834  1
  N  N53  1  0.44342819  0.42954949  0.08901828  1
  N  N54  1  0.22186881  0.53911899  0.83818091  1
  N  N55  1  0.11084218  0.42775598  0.58915529  1
  N  N56  1  0.88318397  0.54144881  0.34374722  1
  N  N57  1  0.78062577  0.42465524  0.08554129  1
  N  N58  1  0.54401532  0.56556455  0.84776876  1
  N  N59  1  0.44541949  0.42833792  0.58995008  1
  N  N60  1  0.22039403  0.87314937  0.33698829  1
  N  N61  1  0.10814327  0.76247944  0.08849667  1
  N  N62  1  0.89460567  0.86281870  0.82198393  1
  N  N63  1  0.78652700  0.77716847  0.59262712  1
  N  N64  1  0.55490488  0.87049180  0.31230723  1
  N  N65  1  0.45700340  0.77316402  0.07607306  1
  N  N66  1  0.25019826  0.85889893  0.84823434  1
  N  N67  1  0.08805108  0.77623197  0.59818326  1
  N  N68  1  0.87141652  0.90436360  0.33780109  1
  N  N69  1  0.75390726  0.77468457  0.09280997  1
  N  N70  1  0.54413529  0.85812948  0.84144895  1
  N  N71  1  0.44621876  0.76148090  0.58213613  1
