# generated using pymatgen
data_Al31B5N36
_symmetry_space_group_name_H-M   'P 1'
_cell_length_a   9.14623025
_cell_length_b   9.18187681
_cell_length_c   10.24532378
_cell_angle_alpha   89.43050769
_cell_angle_beta   89.34504354
_cell_angle_gamma   60.15676818
_symmetry_Int_Tables_number   1
_chemical_formula_structural   Al31B5N36
_chemical_formula_sum   'Al31 B5 N36'
_cell_volume   746.24289585
_cell_formula_units_Z   1
loop_
 _symmetry_equiv_pos_site_id
 _symmetry_equiv_pos_as_xyz
  1  'x, y, z'
loop_
 _atom_site_type_symbol
 _atom_site_label
 _atom_site_symmetry_multiplicity
 _atom_site_fract_x
 _atom_site_fract_y
 _atom_site_fract_z
 _atom_site_occupancy
  Al  Al0  1  0.09775018  0.10470133  0.39397988  1
  Al  Al1  1  0.22418501  0.19872340  0.13711859  1
  Al  Al2  1  0.77612530  0.08397431  0.81121115  1
  Al  Al3  1  0.44751081  0.09052152  0.37630037  1
  Al  Al4  1  0.56043760  0.20404335  0.06858024  1
  Al  Al5  1  0.11048345  0.09739021  0.87860733  1
  Al  Al6  1  0.22359617  0.20464316  0.63802028  1
  Al  Al7  1  0.88755395  0.20736117  0.13848496  1
  Al  Al8  1  0.44236715  0.07882616  0.89394857  1
  Al  Al9  1  0.57348858  0.18868243  0.56295650  1
  Al  Al10  1  0.11323769  0.43014176  0.38807741  1
  Al  Al11  1  0.22160532  0.53753195  0.14156839  1
  Al  Al12  1  0.77899792  0.43046818  0.87998383  1
  Al  Al13  1  0.89283701  0.54117232  0.63928516  1
  Al  Al14  1  0.46447741  0.42128745  0.31909828  1
  Al  Al15  1  0.54794457  0.55429407  0.06114137  1
  Al  Al16  1  0.11281710  0.42935618  0.89032034  1
  Al  Al17  1  0.21674588  0.53597594  0.63508465  1
  Al  Al18  1  0.78844128  0.41764490  0.39326856  1
  Al  Al19  1  0.88072341  0.54340317  0.14040445  1
  Al  Al20  1  0.45267388  0.42476560  0.81621780  1
  Al  Al21  1  0.55192665  0.53690870  0.57609667  1
  Al  Al22  1  0.10466364  0.78111752  0.31813656  1
  Al  Al23  1  0.23661908  0.86630795  0.05952508  1
  Al  Al24  1  0.76302568  0.75953156  0.89718180  1
  Al  Al25  1  0.44529367  0.76337355  0.31697058  1
  Al  Al26  1  0.10556887  0.76789937  0.82186254  1
  Al  Al27  1  0.20649981  0.87322620  0.57865862  1
  Al  Al28  1  0.78067141  0.77390487  0.38124529  1
  Al  Al29  1  0.88565397  0.87825170  0.07903129  1
  Al  Al30  1  0.55848342  0.87395759  0.64118909  1
  B  B31  1  0.91325824  0.23338456  0.65211807  1
  B  B32  1  0.77946679  0.09181571  0.32270740  1
  B  B33  1  0.87969360  0.86709931  0.60161016  1
  B  B34  1  0.56018822  0.87420865  0.14609195  1
  B  B35  1  0.43873363  0.75708916  0.80816048  1
  N  N36  1  0.21848468  0.20707563  0.32346365  1
  N  N37  1  0.10504056  0.10097342  0.06587263  1
  N  N38  1  0.89165806  0.21377039  0.79915003  1
  N  N39  1  0.77601275  0.04214361  0.63571405  1
  N  N40  1  0.58952434  0.19405384  0.37401081  1
  N  N41  1  0.45401865  0.06572948  0.08415387  1
  N  N42  1  0.22542653  0.20677289  0.82363158  1
  N  N43  1  0.07938788  0.11718990  0.58723237  1
  N  N44  1  0.87926771  0.19897639  0.32622497  1
  N  N45  1  0.77254297  0.09600402  0.12823241  1
  N  N46  1  0.55708446  0.20599900  0.88117649  1
  N  N47  1  0.43634918  0.08423169  0.56340175  1
  N  N48  1  0.22460575  0.54097165  0.33348524  1
  N  N49  1  0.11141223  0.42885143  0.07655170  1
  N  N50  1  0.88997954  0.54348792  0.82451051  1
  N  N51  1  0.79808352  0.40224093  0.58703056  1
  N  N52  1  0.55491282  0.54744847  0.38969505  1
  N  N53  1  0.45545848  0.42661315  0.12962595  1
  N  N54  1  0.22083474  0.53751512  0.82521579  1
  N  N55  1  0.11226525  0.42431950  0.57319345  1
  N  N56  1  0.88868958  0.54144875  0.32752666  1
  N  N57  1  0.78339296  0.42447835  0.06774600  1
  N  N58  1  0.53846512  0.56745023  0.86948345  1
  N  N59  1  0.45605021  0.41030196  0.62774977  1
  N  N60  1  0.22893764  0.87159073  0.39243900  1
  N  N61  1  0.11493838  0.76927193  0.12770537  1
  N  N62  1  0.89042579  0.87306037  0.89128927  1
  N  N63  1  0.78677036  0.76360088  0.57341687  1
  N  N64  1  0.56544782  0.87874193  0.30574038  1
  N  N65  1  0.45296426  0.77143950  0.13106867  1
  N  N66  1  0.24801709  0.85719046  0.86735672  1
  N  N67  1  0.07169908  0.77649057  0.62865712  1
  N  N68  1  0.87774769  0.90698105  0.35330511  1
  N  N69  1  0.74793020  0.77046493  0.08576471  1
  N  N70  1  0.54528376  0.86086111  0.82531753  1
  N  N71  1  0.43187078  0.75440088  0.64877678  1
