# generated using pymatgen
data_Al31B5N36
_symmetry_space_group_name_H-M   'P 1'
_cell_length_a   9.17596886
_cell_length_b   9.17246030
_cell_length_c   10.03220999
_cell_angle_alpha   89.49491474
_cell_angle_beta   89.29795285
_cell_angle_gamma   60.02561999
_symmetry_Int_Tables_number   1
_chemical_formula_structural   Al31B5N36
_chemical_formula_sum   'Al31 B5 N36'
_cell_volume   731.37881439
_cell_formula_units_Z   1
loop_
 _symmetry_equiv_pos_site_id
 _symmetry_equiv_pos_as_xyz
  1  'x, y, z'
loop_
 _atom_site_type_symbol
 _atom_site_label
 _atom_site_symmetry_multiplicity
 _atom_site_fract_x
 _atom_site_fract_y
 _atom_site_fract_z
 _atom_site_occupancy
  Al  Al0  1  0.10033694  0.09435773  0.40116210  1
  Al  Al1  1  0.22603119  0.19884674  0.14594393  1
  Al  Al2  1  0.78116679  0.09060269  0.85686224  1
  Al  Al3  1  0.44865602  0.09122790  0.38986102  1
  Al  Al4  1  0.55800582  0.20373561  0.06806601  1
  Al  Al5  1  0.11500453  0.08988865  0.89134887  1
  Al  Al6  1  0.21862643  0.20705963  0.64450748  1
  Al  Al7  1  0.88567020  0.20294363  0.13620786  1
  Al  Al8  1  0.43891257  0.07863306  0.89722099  1
  Al  Al9  1  0.57982800  0.19723971  0.58017354  1
  Al  Al10  1  0.11064538  0.42904974  0.39560169  1
  Al  Al11  1  0.21525273  0.54288361  0.14547940  1
  Al  Al12  1  0.78054617  0.42717199  0.88563984  1
  Al  Al13  1  0.88674646  0.53961541  0.64377073  1
  Al  Al14  1  0.46010544  0.41974806  0.32204277  1
  Al  Al15  1  0.54658541  0.55723122  0.07674796  1
  Al  Al16  1  0.11068810  0.42652250  0.89611858  1
  Al  Al17  1  0.20839094  0.54674691  0.64344240  1
  Al  Al18  1  0.78896319  0.41162839  0.39663513  1
  Al  Al19  1  0.87891684  0.54440411  0.14559062  1
  Al  Al20  1  0.44695463  0.42924789  0.82028616  1
  Al  Al21  1  0.55365403  0.53745439  0.57119861  1
  Al  Al22  1  0.09949406  0.77269359  0.40050634  1
  Al  Al23  1  0.22422748  0.87539407  0.14762773  1
  Al  Al24  1  0.76947317  0.76029778  0.89423877  1
  Al  Al25  1  0.44685385  0.76590893  0.36288857  1
  Al  Al26  1  0.11513565  0.75790798  0.89246118  1
  Al  Al27  1  0.21852406  0.87518226  0.64020063  1
  Al  Al28  1  0.77595109  0.77386018  0.39601464  1
  Al  Al29  1  0.87994881  0.87964421  0.13848958  1
  Al  Al30  1  0.55626478  0.87333130  0.64041351  1
  B  B31  1  0.89658549  0.19472656  0.65413619  1
  B  B32  1  0.78015450  0.09392405  0.35477966  1
  B  B33  1  0.89518515  0.87912296  0.65523041  1
  B  B34  1  0.55526190  0.87351111  0.15327504  1
  B  B35  1  0.44276977  0.75948244  0.85332119  1
  N  N36  1  0.21948392  0.20450153  0.33608690  1
  N  N37  1  0.11066576  0.09462128  0.08005354  1
  N  N38  1  0.89642137  0.20713839  0.81539367  1
  N  N39  1  0.80476761  0.08062819  0.63143210  1
  N  N40  1  0.59192062  0.19070104  0.37878187  1
  N  N41  1  0.45591897  0.06673404  0.09178526  1
  N  N42  1  0.22247265  0.20442114  0.83337709  1
  N  N43  1  0.08677440  0.10613750  0.59282111  1
  N  N44  1  0.87566174  0.18950232  0.33015346  1
  N  N45  1  0.78901257  0.08927007  0.06343925  1
  N  N46  1  0.54583584  0.20765349  0.87619447  1
  N  N47  1  0.44314674  0.09558663  0.58107623  1
  N  N48  1  0.21772543  0.54562206  0.33833074  1
  N  N49  1  0.10968138  0.42693347  0.08590357  1
  N  N50  1  0.88879750  0.54019755  0.83221245  1
  N  N51  1  0.79393728  0.39698727  0.59135640  1
  N  N52  1  0.56057494  0.53403561  0.37968681  1
  N  N53  1  0.45130362  0.42490179  0.13149204  1
  N  N54  1  0.21581644  0.54043004  0.83364570  1
  N  N55  1  0.10886806  0.42828960  0.58248700  1
  N  N56  1  0.88600591  0.54200133  0.33668052  1
  N  N57  1  0.78092286  0.42477355  0.07755776  1
  N  N58  1  0.53537636  0.57057439  0.87642496  1
  N  N59  1  0.44726227  0.42512798  0.63032543  1
  N  N60  1  0.21379051  0.87728637  0.33769068  1
  N  N61  1  0.11087426  0.76316817  0.08195052  1
  N  N62  1  0.89361040  0.85992331  0.81802835  1
  N  N63  1  0.78674496  0.77724998  0.58872888  1
  N  N64  1  0.56415442  0.87885368  0.31644956  1
  N  N65  1  0.45739879  0.77551324  0.13125804  1
  N  N66  1  0.25078917  0.85615546  0.83413474  1
  N  N67  1  0.08477599  0.77745308  0.59267640  1
  N  N68  1  0.87426940  0.90394333  0.33208874  1
  N  N69  1  0.75370022  0.77428009  0.08827326  1
  N  N70  1  0.54023308  0.85339607  0.83244824  1
  N  N71  1  0.44001008  0.77238733  0.57214150  1
