# generated using pymatgen
data_Al31B5N36
_symmetry_space_group_name_H-M   'P 1'
_cell_length_a   9.17746064
_cell_length_b   9.14160037
_cell_length_c   10.17455967
_cell_angle_alpha   89.43209173
_cell_angle_beta   89.32752439
_cell_angle_gamma   60.25695210
_symmetry_Int_Tables_number   1
_chemical_formula_structural   Al31B5N36
_chemical_formula_sum   'Al31 B5 N36'
_cell_volume   741.09683291
_cell_formula_units_Z   1
loop_
 _symmetry_equiv_pos_site_id
 _symmetry_equiv_pos_as_xyz
  1  'x, y, z'
loop_
 _atom_site_type_symbol
 _atom_site_label
 _atom_site_symmetry_multiplicity
 _atom_site_fract_x
 _atom_site_fract_y
 _atom_site_fract_z
 _atom_site_occupancy
  Al  Al0  1  0.10003889  0.09686963  0.37863865  1
  Al  Al1  1  0.22623755  0.19887123  0.13826026  1
  Al  Al2  1  0.78066906  0.09053916  0.82018708  1
  Al  Al3  1  0.44770773  0.08995374  0.39314649  1
  Al  Al4  1  0.55794155  0.20320316  0.06619199  1
  Al  Al5  1  0.10944406  0.09703150  0.88687617  1
  Al  Al6  1  0.21502810  0.20945288  0.64047959  1
  Al  Al7  1  0.88588982  0.20863255  0.12901657  1
  Al  Al8  1  0.44202945  0.08159568  0.87746995  1
  Al  Al9  1  0.57771275  0.20076069  0.56323365  1
  Al  Al10  1  0.10952772  0.42419404  0.38648058  1
  Al  Al11  1  0.22490878  0.54241313  0.06649541  1
  Al  Al12  1  0.77668245  0.43002600  0.88593565  1
  Al  Al13  1  0.89196112  0.53852337  0.64051610  1
  Al  Al14  1  0.45267632  0.42150257  0.31625858  1
  Al  Al15  1  0.54630836  0.55499424  0.06426029  1
  Al  Al16  1  0.10480099  0.42709013  0.88920320  1
  Al  Al17  1  0.22086868  0.54443245  0.56771926  1
  Al  Al18  1  0.78482290  0.41277507  0.38686194  1
  Al  Al19  1  0.87671270  0.54695790  0.14481024  1
  Al  Al20  1  0.44438865  0.43202361  0.81529132  1
  Al  Al21  1  0.55275395  0.53644825  0.57196532  1
  Al  Al22  1  0.10785034  0.76826662  0.31318685  1
  Al  Al23  1  0.23797577  0.86587864  0.06353195  1
  Al  Al24  1  0.76337721  0.76250409  0.88527953  1
  Al  Al25  1  0.45179798  0.76167936  0.32421963  1
  Al  Al26  1  0.11198526  0.76451645  0.82246341  1
  Al  Al27  1  0.21633343  0.87164005  0.57154799  1
  Al  Al28  1  0.78506590  0.77315588  0.39600133  1
  Al  Al29  1  0.88343127  0.87708506  0.08448614  1
  Al  Al30  1  0.55693889  0.87556302  0.61575695  1
  B  B31  1  0.89848825  0.19476627  0.61355610  1
  B  B32  1  0.77576547  0.08848283  0.30098458  1
  B  B33  1  0.89819851  0.87578080  0.60600276  1
  B  B34  1  0.55300498  0.87260369  0.10077065  1
  B  B35  1  0.44194660  0.75949143  0.80619651  1
  N  N36  1  0.22648009  0.20134491  0.32455422  1
  N  N37  1  0.11053392  0.09586060  0.07736787  1
  N  N38  1  0.88755755  0.20669888  0.84925876  1
  N  N39  1  0.80865319  0.07534916  0.62511341  1
  N  N40  1  0.58739456  0.19162953  0.37102192  1
  N  N41  1  0.45457379  0.06160103  0.07654784  1
  N  N42  1  0.21985330  0.20812238  0.82578767  1
  N  N43  1  0.08262173  0.10991798  0.58086904  1
  N  N44  1  0.88101923  0.19614766  0.31847985  1
  N  N45  1  0.76425890  0.09678885  0.14076515  1
  N  N46  1  0.55672082  0.20666692  0.87743499  1
  N  N47  1  0.43644203  0.10728432  0.58321455  1
  N  N48  1  0.22635503  0.54281070  0.37767537  1
  N  N49  1  0.10359259  0.42780137  0.08005542  1
  N  N50  1  0.88684998  0.54203619  0.82454389  1
  N  N51  1  0.79459745  0.38964823  0.58303000  1
  N  N52  1  0.55313111  0.53956783  0.38279465  1
  N  N53  1  0.44478902  0.42882755  0.12806582  1
  N  N54  1  0.22449923  0.54154524  0.87683190  1
  N  N55  1  0.10569653  0.42610155  0.57524412  1
  N  N56  1  0.88591179  0.54307399  0.33235623  1
  N  N57  1  0.77566192  0.43258510  0.07677167  1
  N  N58  1  0.53792248  0.56930509  0.87101285  1
  N  N59  1  0.44456713  0.42306311  0.62950128  1
  N  N60  1  0.22847753  0.86498153  0.38292842  1
  N  N61  1  0.11802622  0.76187974  0.12562854  1
  N  N62  1  0.89096681  0.87325303  0.88989722  1
  N  N63  1  0.80139860  0.78048006  0.59137121  1
  N  N64  1  0.55908461  0.86156467  0.39558716  1
  N  N65  1  0.45821568  0.77777224  0.13241859  1
  N  N66  1  0.25142816  0.85783321  0.87002244  1
  N  N67  1  0.08585520  0.77461969  0.63083762  1
  N  N68  1  0.87825123  0.89912638  0.33826748  1
  N  N69  1  0.74058429  0.77434619  0.08131777  1
  N  N70  1  0.54644863  0.86108205  0.81706804  1
  N  N71  1  0.43556214  0.75407994  0.64555495  1
