# generated using pymatgen
data_Al31B5N36
_symmetry_space_group_name_H-M   'P 1'
_cell_length_a   9.17596150
_cell_length_b   9.17244984
_cell_length_c   10.03222335
_cell_angle_alpha   89.49494630
_cell_angle_beta   89.29803278
_cell_angle_gamma   60.02564929
_symmetry_Int_Tables_number   1
_chemical_formula_structural   Al31B5N36
_chemical_formula_sum   'Al31 B5 N36'
_cell_volume   731.37859604
_cell_formula_units_Z   1
loop_
 _symmetry_equiv_pos_site_id
 _symmetry_equiv_pos_as_xyz
  1  'x, y, z'
loop_
 _atom_site_type_symbol
 _atom_site_label
 _atom_site_symmetry_multiplicity
 _atom_site_fract_x
 _atom_site_fract_y
 _atom_site_fract_z
 _atom_site_occupancy
  Al  Al0  1  0.10033396  0.09435163  0.39917482  1
  Al  Al1  1  0.22602612  0.19884218  0.14395061  1
  Al  Al2  1  0.78116579  0.09059620  0.85489138  1
  Al  Al3  1  0.44865259  0.09122227  0.38786694  1
  Al  Al4  1  0.55799936  0.20373063  0.06608093  1
  Al  Al5  1  0.11500148  0.08988343  0.88935837  1
  Al  Al6  1  0.21862447  0.20705331  0.64251697  1
  Al  Al7  1  0.88566785  0.20293769  0.13421819  1
  Al  Al8  1  0.43891070  0.07862782  0.89522935  1
  Al  Al9  1  0.57982583  0.19723224  0.57818233  1
  Al  Al10  1  0.11064210  0.42904462  0.39361054  1
  Al  Al11  1  0.21524791  0.54287862  0.14348579  1
  Al  Al12  1  0.78054297  0.42716560  0.88365042  1
  Al  Al13  1  0.88674265  0.53960904  0.64178136  1
  Al  Al14  1  0.46010054  0.41974391  0.32004821  1
  Al  Al15  1  0.54658253  0.55722574  0.07475836  1
  Al  Al16  1  0.11068613  0.42651631  0.89412434  1
  Al  Al17  1  0.20838762  0.54674111  0.64145542  1
  Al  Al18  1  0.78896034  0.41162368  0.39463961  1
  Al  Al19  1  0.87891478  0.54439845  0.14359565  1
  Al  Al20  1  0.44695462  0.42924108  0.81829461  1
  Al  Al21  1  0.55365287  0.53744501  0.56920479  1
  Al  Al22  1  0.09949135  0.77268768  0.39851884  1
  Al  Al23  1  0.22422574  0.87538858  0.14563516  1
  Al  Al24  1  0.76947076  0.76029290  0.89224708  1
  Al  Al25  1  0.44684676  0.76590693  0.36091184  1
  Al  Al26  1  0.11513322  0.75790231  0.89047414  1
  Al  Al27  1  0.21852219  0.87517531  0.63821566  1
  Al  Al28  1  0.77594700  0.77385339  0.39402038  1
  Al  Al29  1  0.87994575  0.87963744  0.13650012  1
  Al  Al30  1  0.55626307  0.87332434  0.63842403  1
  B  B31  1  0.89658147  0.19471715  0.65214392  1
  B  B32  1  0.78015196  0.09391797  0.35279192  1
  B  B33  1  0.89518301  0.87912221  0.65323927  1
  B  B34  1  0.55525516  0.87350499  0.15128133  1
  B  B35  1  0.44276823  0.75947656  0.85133646  1
  N  N36  1  0.21947945  0.20449645  0.33409402  1
  N  N37  1  0.11066105  0.09461636  0.07806153  1
  N  N38  1  0.89641638  0.20713093  0.81340255  1
  N  N39  1  0.80476883  0.08062049  0.62943059  1
  N  N40  1  0.59191612  0.19069635  0.37678783  1
  N  N41  1  0.45591406  0.06672938  0.08979368  1
  N  N42  1  0.22247056  0.20441477  0.83138521  1
  N  N43  1  0.08677347  0.10612967  0.59083245  1
  N  N44  1  0.87565953  0.18949601  0.32816172  1
  N  N45  1  0.78900792  0.08926476  0.06145083  1
  N  N46  1  0.54583412  0.20764788  0.87420645  1
  N  N47  1  0.44314423  0.09557913  0.57908329  1
  N  N48  1  0.21772102  0.54561734  0.33633687  1
  N  N49  1  0.10967833  0.42692766  0.08390821  1
  N  N50  1  0.88879437  0.54019157  0.83022218  1
  N  N51  1  0.79393509  0.39698036  0.58936204  1
  N  N52  1  0.56057098  0.53403154  0.37769217  1
  N  N53  1  0.45129844  0.42489813  0.12949872  1
  N  N54  1  0.21581533  0.54042462  0.83165643  1
  N  N55  1  0.10886501  0.42828409  0.58049647  1
  N  N56  1  0.88600380  0.54199544  0.33468507  1
  N  N57  1  0.78091967  0.42476695  0.07556709  1
  N  N58  1  0.53537519  0.57056725  0.87443371  1
  N  N59  1  0.44725946  0.42512095  0.62833382  1
  N  N60  1  0.21378740  0.87728090  0.33569841  1
  N  N61  1  0.11086966  0.76316409  0.07996077  1
  N  N62  1  0.89360714  0.85992146  0.81603709  1
  N  N63  1  0.78674120  0.77724193  0.58673540  1
  N  N64  1  0.56414834  0.87884608  0.31445582  1
  N  N65  1  0.45739340  0.77551191  0.12925319  1
  N  N66  1  0.25078723  0.85614934  0.83214692  1
  N  N67  1  0.08477495  0.77744664  0.59068780  1
  N  N68  1  0.87426630  0.90393704  0.33009802  1
  N  N69  1  0.75369765  0.77427474  0.08627997  1
  N  N70  1  0.54023087  0.85339066  0.83045738  1
  N  N71  1  0.44000699  0.77237996  0.57015088  1
