# generated using pymatgen
data_Al31B5N36
_symmetry_space_group_name_H-M   'P 1'
_cell_length_a   9.16773373
_cell_length_b   9.14702762
_cell_length_c   10.17560410
_cell_angle_alpha   89.58599207
_cell_angle_beta   89.38317974
_cell_angle_gamma   60.20726788
_symmetry_Int_Tables_number   1
_chemical_formula_structural   Al31B5N36
_chemical_formula_sum   'Al31 B5 N36'
_cell_volume   740.47415062
_cell_formula_units_Z   1
loop_
 _symmetry_equiv_pos_site_id
 _symmetry_equiv_pos_as_xyz
  1  'x, y, z'
loop_
 _atom_site_type_symbol
 _atom_site_label
 _atom_site_symmetry_multiplicity
 _atom_site_fract_x
 _atom_site_fract_y
 _atom_site_fract_z
 _atom_site_occupancy
  Al  Al0  1  0.09687683  0.09968834  0.39195203  1
  Al  Al1  1  0.22297656  0.19718854  0.13774840  1
  Al  Al2  1  0.77921485  0.08700971  0.81473394  1
  Al  Al3  1  0.44632630  0.08975849  0.39205659  1
  Al  Al4  1  0.55762249  0.20355334  0.06822727  1
  Al  Al5  1  0.11033375  0.09659786  0.87860086  1
  Al  Al6  1  0.21787421  0.21018949  0.64001277  1
  Al  Al7  1  0.88685244  0.20847260  0.13899327  1
  Al  Al8  1  0.44353560  0.08173130  0.87858416  1
  Al  Al9  1  0.57937148  0.19812073  0.56238811  1
  Al  Al10  1  0.10908796  0.42423194  0.38501720  1
  Al  Al11  1  0.22534702  0.54233957  0.06837792  1
  Al  Al12  1  0.77759521  0.42992984  0.87794285  1
  Al  Al13  1  0.89236093  0.54056576  0.64011168  1
  Al  Al14  1  0.45309908  0.42196088  0.31668407  1
  Al  Al15  1  0.54790866  0.55322601  0.06199919  1
  Al  Al16  1  0.10633525  0.42696743  0.89015159  1
  Al  Al17  1  0.22133173  0.54426264  0.56687954  1
  Al  Al18  1  0.78544788  0.41336961  0.39279890  1
  Al  Al19  1  0.87657959  0.54384890  0.14228799  1
  Al  Al20  1  0.44434709  0.43189018  0.81501603  1
  Al  Al21  1  0.55284287  0.53764792  0.57357091  1
  Al  Al22  1  0.10798056  0.76963157  0.31432391  1
  Al  Al23  1  0.23612090  0.86723712  0.06070030  1
  Al  Al24  1  0.76438748  0.76357262  0.88664838  1
  Al  Al25  1  0.44937944  0.76227823  0.32513580  1
  Al  Al26  1  0.11197133  0.76316501  0.82281661  1
  Al  Al27  1  0.21442644  0.87244238  0.57599428  1
  Al  Al28  1  0.78469583  0.77128706  0.39437499  1
  Al  Al29  1  0.88353458  0.87672725  0.08945205  1
  Al  Al30  1  0.55732649  0.87511252  0.61492813  1
  B  B31  1  0.90362919  0.20755235  0.64641767  1
  B  B32  1  0.77372457  0.08802070  0.30248373  1
  B  B33  1  0.89432233  0.87401240  0.60781308  1
  B  B34  1  0.55227803  0.87180635  0.10124754  1
  B  B35  1  0.44269711  0.75974663  0.80478433  1
  N  N36  1  0.22361209  0.19990395  0.32442715  1
  N  N37  1  0.10283645  0.09958271  0.06755323  1
  N  N38  1  0.89319874  0.21075974  0.80436685  1
  N  N39  1  0.80202205  0.06484623  0.62728878  1
  N  N40  1  0.58649873  0.19151775  0.37012705  1
  N  N41  1  0.45342358  0.06123710  0.07715619  1
  N  N42  1  0.22208295  0.20894580  0.82544744  1
  N  N43  1  0.08391813  0.11190626  0.58621929  1
  N  N44  1  0.88113044  0.19629501  0.32366183  1
  N  N45  1  0.76440544  0.09823057  0.14170012  1
  N  N46  1  0.55935013  0.20766220  0.87992775  1
  N  N47  1  0.43712392  0.10624056  0.58162975  1
  N  N48  1  0.22602480  0.54310823  0.37683072  1
  N  N49  1  0.10466796  0.42657796  0.08055957  1
  N  N50  1  0.88898776  0.54349087  0.82506057  1
  N  N51  1  0.79424063  0.39797560  0.58640473  1
  N  N52  1  0.55313946  0.53981565  0.38388090  1
  N  N53  1  0.44582365  0.42922891  0.12857156  1
  N  N54  1  0.22551732  0.54142897  0.87865860  1
  N  N55  1  0.10653825  0.42598766  0.57403917  1
  N  N56  1  0.88523590  0.54155882  0.32967300  1
  N  N57  1  0.77998180  0.42423592  0.06828632  1
  N  N58  1  0.53881456  0.56912819  0.86941576  1
  N  N59  1  0.44587373  0.42182949  0.62945533  1
  N  N60  1  0.22643011  0.86684049  0.38690104  1
  N  N61  1  0.11942049  0.76232557  0.12652842  1
  N  N62  1  0.89209958  0.87610400  0.89375289  1
  N  N63  1  0.80137987  0.77566893  0.58912774  1
  N  N64  1  0.55846350  0.86180607  0.39323265  1
  N  N65  1  0.45697843  0.77725645  0.13172705  1
  N  N66  1  0.25175106  0.85762209  0.86801275  1
  N  N67  1  0.08448214  0.77324384  0.63241200  1
  N  N68  1  0.87685028  0.89756148  0.33463718  1
  N  N69  1  0.74024988  0.77281701  0.08139718  1
  N  N70  1  0.54769985  0.86168257  0.81705310  1
  N  N71  1  0.43525820  0.75493612  0.64610085  1
