# generated using pymatgen
data_Al31B5N36
_symmetry_space_group_name_H-M   'P 1'
_cell_length_a   9.19463988
_cell_length_b   9.14408797
_cell_length_c   10.16434221
_cell_angle_alpha   89.40436797
_cell_angle_beta   89.50016306
_cell_angle_gamma   60.15428412
_symmetry_Int_Tables_number   1
_chemical_formula_structural   Al31B5N36
_chemical_formula_sum   'Al31 B5 N36'
_cell_volume   741.19249125
_cell_formula_units_Z   1
loop_
 _symmetry_equiv_pos_site_id
 _symmetry_equiv_pos_as_xyz
  1  'x, y, z'
loop_
 _atom_site_type_symbol
 _atom_site_label
 _atom_site_symmetry_multiplicity
 _atom_site_fract_x
 _atom_site_fract_y
 _atom_site_fract_z
 _atom_site_occupancy
  Al  Al0  1  0.10613766  0.08634916  0.31119012  1
  Al  Al1  1  0.23075504  0.20412691  0.13635333  1
  Al  Al2  1  0.78053423  0.09040513  0.82580843  1
  Al  Al3  1  0.44758180  0.09035432  0.39359069  1
  Al  Al4  1  0.55785366  0.20340343  0.06712119  1
  Al  Al5  1  0.10672778  0.09040092  0.82937506  1
  Al  Al6  1  0.22015744  0.21390704  0.64156427  1
  Al  Al7  1  0.88372833  0.20652930  0.10086814  1
  Al  Al8  1  0.44282580  0.08018075  0.87926299  1
  Al  Al9  1  0.57836762  0.20151628  0.56295625  1
  Al  Al10  1  0.11020502  0.42325710  0.38665219  1
  Al  Al11  1  0.22442201  0.54437337  0.06642877  1
  Al  Al12  1  0.77566375  0.43130369  0.88910112  1
  Al  Al13  1  0.89253323  0.53831725  0.64037137  1
  Al  Al14  1  0.45333145  0.42086728  0.31664051  1
  Al  Al15  1  0.54392343  0.55725218  0.06546372  1
  Al  Al16  1  0.10425681  0.42680635  0.89073990  1
  Al  Al17  1  0.22101172  0.54621107  0.56678583  1
  Al  Al18  1  0.78659001  0.40803260  0.38620322  1
  Al  Al19  1  0.87577465  0.54727001  0.14706023  1
  Al  Al20  1  0.44380583  0.43174919  0.81513458  1
  Al  Al21  1  0.55220268  0.53695986  0.57179362  1
  Al  Al22  1  0.10832411  0.76761267  0.31311600  1
  Al  Al23  1  0.23446948  0.87370304  0.05945592  1
  Al  Al24  1  0.76332264  0.76114983  0.88620456  1
  Al  Al25  1  0.45132857  0.76207542  0.32495735  1
  Al  Al26  1  0.11118626  0.76244934  0.82231427  1
  Al  Al27  1  0.21150861  0.88015984  0.56905929  1
  Al  Al28  1  0.78523886  0.77288128  0.39561338  1
  Al  Al29  1  0.88302112  0.87617806  0.08807405  1
  Al  Al30  1  0.55706557  0.87512977  0.61477595  1
  B  B31  1  0.89800918  0.19352940  0.60960534  1
  B  B32  1  0.77791902  0.09123670  0.30086363  1
  B  B33  1  0.89900671  0.87503405  0.60768168  1
  B  B34  1  0.55277831  0.87217650  0.10104919  1
  B  B35  1  0.44287896  0.75869229  0.80490650  1
  N  N36  1  0.22974858  0.20395228  0.32428303  1
  N  N37  1  0.11535506  0.08929825  0.11927267  1
  N  N38  1  0.88885215  0.19823869  0.88808537  1
  N  N39  1  0.80899881  0.07866859  0.62836153  1
  N  N40  1  0.58681770  0.19134635  0.37158151  1
  N  N41  1  0.45572556  0.06156741  0.07589533  1
  N  N42  1  0.22173072  0.20892317  0.82890200  1
  N  N43  1  0.08289313  0.10649502  0.62929219  1
  N  N44  1  0.87589147  0.19368129  0.32394877  1
  N  N45  1  0.76403887  0.09752634  0.14055772  1
  N  N46  1  0.55631837  0.20667706  0.87779787  1
  N  N47  1  0.43860334  0.10712714  0.58411926  1
  N  N48  1  0.22662480  0.54317164  0.37748041  1
  N  N49  1  0.10179180  0.43089838  0.07996239  1
  N  N50  1  0.88680558  0.53976303  0.82439648  1
  N  N51  1  0.79614712  0.38704353  0.58650570  1
  N  N52  1  0.55357590  0.53948777  0.38347432  1
  N  N53  1  0.44412281  0.42913255  0.12814775  1
  N  N54  1  0.22459836  0.54048974  0.87655882  1
  N  N55  1  0.10573050  0.42765594  0.57519837  1
  N  N56  1  0.88587844  0.54161056  0.33441796  1
  N  N57  1  0.77203801  0.43824699  0.07913017  1
  N  N58  1  0.53716094  0.56904503  0.87049062  1
  N  N59  1  0.44438179  0.42356768  0.62942241  1
  N  N60  1  0.22514595  0.87113261  0.38318021  1
  N  N61  1  0.11923880  0.76348451  0.12433182  1
  N  N62  1  0.89093114  0.87058655  0.88997016  1
  N  N63  1  0.80163529  0.78147730  0.59224368  1
  N  N64  1  0.55915482  0.86119633  0.39718687  1
  N  N65  1  0.45663173  0.77939218  0.13190114  1
  N  N66  1  0.24934791  0.85945612  0.86921960  1
  N  N67  1  0.08608628  0.77559682  0.62974371  1
  N  N68  1  0.87849553  0.89715183  0.33535808  1
  N  N69  1  0.74013800  0.77439401  0.08206528  1
  N  N70  1  0.54628528  0.85999394  0.81725457  1
  N  N71  1  0.43388605  0.75544395  0.64460017  1
