# generated using pymatgen
data_Al31B5N36
_symmetry_space_group_name_H-M   'P 1'
_cell_length_a   9.20728653
_cell_length_b   9.19746076
_cell_length_c   9.98390914
_cell_angle_alpha   90.00846080
_cell_angle_beta   89.94525121
_cell_angle_gamma   60.08294188
_symmetry_Int_Tables_number   1
_chemical_formula_structural   Al31B5N36
_chemical_formula_sum   'Al31 B5 N36'
_cell_volume   732.81256906
_cell_formula_units_Z   1
loop_
 _symmetry_equiv_pos_site_id
 _symmetry_equiv_pos_as_xyz
  1  'x, y, z'
loop_
 _atom_site_type_symbol
 _atom_site_label
 _atom_site_symmetry_multiplicity
 _atom_site_fract_x
 _atom_site_fract_y
 _atom_site_fract_z
 _atom_site_occupancy
  Al  Al0  1  0.10644539  0.08679876  0.32736279  1
  Al  Al1  1  0.22610556  0.20200019  0.10795690  1
  Al  Al2  1  0.78127274  0.08896645  0.82247762  1
  Al  Al3  1  0.46151196  0.08110937  0.33303316  1
  Al  Al4  1  0.56172813  0.20115922  0.07585951  1
  Al  Al5  1  0.10738251  0.09491480  0.81484503  1
  Al  Al6  1  0.21925370  0.20084537  0.57551137  1
  Al  Al7  1  0.88884038  0.20473679  0.07477051  1
  Al  Al8  1  0.43945470  0.09383799  0.81921208  1
  Al  Al9  1  0.57211345  0.19472484  0.56644632  1
  Al  Al10  1  0.10738805  0.43150108  0.38463632  1
  Al  Al11  1  0.22559155  0.54608901  0.07223817  1
  Al  Al12  1  0.77273068  0.43538758  0.88249500  1
  Al  Al13  1  0.89326625  0.53592805  0.64623869  1
  Al  Al14  1  0.45361398  0.42249884  0.32068267  1
  Al  Al15  1  0.54550728  0.55798940  0.06938838  1
  Al  Al16  1  0.10416231  0.42757678  0.89472853  1
  Al  Al17  1  0.22129159  0.54398484  0.57443030  1
  Al  Al18  1  0.78524862  0.41704046  0.39664967  1
  Al  Al19  1  0.87477917  0.54937906  0.14853604  1
  Al  Al20  1  0.44356345  0.43044366  0.82157535  1
  Al  Al21  1  0.55402202  0.53431660  0.57946816  1
  Al  Al22  1  0.11115336  0.76604155  0.31690774  1
  Al  Al23  1  0.23238456  0.87924769  0.06267406  1
  Al  Al24  1  0.75858816  0.76799564  0.89476579  1
  Al  Al25  1  0.45054910  0.76166596  0.33055106  1
  Al  Al26  1  0.10746172  0.76417390  0.82982709  1
  Al  Al27  1  0.21278061  0.87234848  0.57423776  1
  Al  Al28  1  0.78475585  0.77147836  0.40015859  1
  Al  Al29  1  0.88241167  0.88223423  0.10514308  1
  Al  Al30  1  0.55710327  0.87037403  0.60918236  1
  B  B31  1  0.89799962  0.18071236  0.56204543  1
  B  B32  1  0.77998202  0.09065849  0.31725653  1
  B  B33  1  0.89578880  0.87210138  0.61118566  1
  B  B34  1  0.55480150  0.87450383  0.11482828  1
  B  B35  1  0.44096924  0.76224643  0.80943476  1
  N  N36  1  0.22703659  0.19993090  0.36430313  1
  N  N37  1  0.10723155  0.09367096  0.13761264  1
  N  N38  1  0.88927041  0.19974512  0.88308304  1
  N  N39  1  0.80577891  0.06977567  0.62533073  1
  N  N40  1  0.58472542  0.19057784  0.37504572  1
  N  N41  1  0.46413724  0.06516482  0.13479129  1
  N  N42  1  0.22004191  0.20140073  0.87376260  1
  N  N43  1  0.08457468  0.10290926  0.61939738  1
  N  N44  1  0.88397791  0.17899448  0.39537807  1
  N  N45  1  0.77314487  0.11126669  0.15481126  1
  N  N46  1  0.55733178  0.20286747  0.88420807  1
  N  N47  1  0.44160934  0.10354768  0.62718859  1
  N  N48  1  0.22765625  0.54369335  0.38012161  1
  N  N49  1  0.10248744  0.43613184  0.09356405  1
  N  N50  1  0.88570717  0.54543625  0.83314470  1
  N  N51  1  0.79309929  0.39884248  0.59194655  1
  N  N52  1  0.55440089  0.53960916  0.38495870  1
  N  N53  1  0.44642092  0.42989387  0.13061463  1
  N  N54  1  0.22317610  0.54081889  0.87989287  1
  N  N55  1  0.10574933  0.42916355  0.58047038  1
  N  N56  1  0.88272650  0.54465919  0.33714776  1
  N  N57  1  0.77461958  0.43593857  0.08216128  1
  N  N58  1  0.53470315  0.57018162  0.87344573  1
  N  N59  1  0.44671519  0.41945524  0.63222922  1
  N  N60  1  0.22704231  0.86671712  0.38660083  1
  N  N61  1  0.12203693  0.76590091  0.12703953  1
  N  N62  1  0.88735277  0.87597672  0.89849541  1
  N  N63  1  0.80183582  0.77639024  0.59560112  1
  N  N64  1  0.55478914  0.86850041  0.40463115  1
  N  N65  1  0.45667342  0.78265125  0.13536595  1
  N  N66  1  0.24364447  0.86412073  0.86962306  1
  N  N67  1  0.08379364  0.77369520  0.63351317  1
  N  N68  1  0.87723201  0.89362702  0.33294171  1
  N  N69  1  0.74020592  0.77911528  0.09248627  1
  N  N70  1  0.54298038  0.85886044  0.82850688  1
  N  N71  1  0.43390945  0.75447338  0.64693351  1
