# generated using pymatgen
data_Al31B5N36
_symmetry_space_group_name_H-M   'P 1'
_cell_length_a   9.17110192
_cell_length_b   9.13853571
_cell_length_c   10.17624953
_cell_angle_alpha   89.47954117
_cell_angle_beta   89.34105559
_cell_angle_gamma   60.25489251
_symmetry_Int_Tables_number   1
_chemical_formula_structural   Al31B5N36
_chemical_formula_sum   'Al31 B5 N36'
_cell_volume   740.44746971
_cell_formula_units_Z   1
loop_
 _symmetry_equiv_pos_site_id
 _symmetry_equiv_pos_as_xyz
  1  'x, y, z'
loop_
 _atom_site_type_symbol
 _atom_site_label
 _atom_site_symmetry_multiplicity
 _atom_site_fract_x
 _atom_site_fract_y
 _atom_site_fract_z
 _atom_site_occupancy
  Al  Al0  1  0.09852989  0.09823034  0.38611132  1
  Al  Al1  1  0.22484757  0.19815748  0.13842917  1
  Al  Al2  1  0.77954628  0.08889002  0.81800359  1
  Al  Al3  1  0.44723990  0.08992655  0.39292925  1
  Al  Al4  1  0.55775753  0.20331468  0.06704900  1
  Al  Al5  1  0.10948062  0.09699091  0.88345123  1
  Al  Al6  1  0.21563318  0.20940241  0.64011373  1
  Al  Al7  1  0.88678441  0.20858043  0.13555918  1
  Al  Al8  1  0.44222909  0.08171329  0.87788403  1
  Al  Al9  1  0.57850317  0.20005770  0.56284851  1
  Al  Al10  1  0.10923134  0.42430368  0.38607748  1
  Al  Al11  1  0.22499550  0.54229092  0.06702513  1
  Al  Al12  1  0.77725143  0.42940907  0.88263606  1
  Al  Al13  1  0.89149679  0.53894974  0.64032348  1
  Al  Al14  1  0.45263201  0.42180479  0.31635886  1
  Al  Al15  1  0.54695542  0.55419031  0.06353680  1
  Al  Al16  1  0.10526151  0.42694594  0.88939837  1
  Al  Al17  1  0.22083342  0.54438589  0.56748878  1
  Al  Al18  1  0.78506313  0.41297075  0.38974738  1
  Al  Al19  1  0.87678476  0.54585948  0.14389959  1
  Al  Al20  1  0.44425127  0.43211609  0.81512641  1
  Al  Al21  1  0.55304031  0.53676308  0.57233751  1
  Al  Al22  1  0.10796113  0.76890499  0.31355059  1
  Al  Al23  1  0.23726610  0.86635797  0.06248761  1
  Al  Al24  1  0.76360379  0.76277246  0.88558872  1
  Al  Al25  1  0.45099535  0.76201020  0.32449499  1
  Al  Al26  1  0.11211280  0.76400867  0.82237758  1
  Al  Al27  1  0.21632707  0.87145803  0.57296250  1
  Al  Al28  1  0.78504255  0.77270077  0.39578185  1
  Al  Al29  1  0.88360078  0.87695358  0.08564084  1
  Al  Al30  1  0.55713160  0.87548934  0.61558834  1
  B  B31  1  0.89963034  0.19781850  0.63206211  1
  B  B32  1  0.77523837  0.08825069  0.30201923  1
  B  B33  1  0.89700266  0.87608155  0.60648761  1
  B  B34  1  0.55276718  0.87238412  0.10089220  1
  B  B35  1  0.44226545  0.75950254  0.80577230  1
  N  N36  1  0.22533759  0.20070839  0.32472212  1
  N  N37  1  0.10668576  0.09778462  0.07277351  1
  N  N38  1  0.89096687  0.20865595  0.82248216  1
  N  N39  1  0.80677668  0.07228048  0.62601124  1
  N  N40  1  0.58722395  0.19162363  0.37060339  1
  N  N41  1  0.45397255  0.06156240  0.07687630  1
  N  N42  1  0.22059039  0.20837646  0.82553104  1
  N  N43  1  0.08319552  0.11017026  0.58230633  1
  N  N44  1  0.88140781  0.19607787  0.32096208  1
  N  N45  1  0.76471609  0.09730904  0.14066614  1
  N  N46  1  0.55763576  0.20705481  0.87851491  1
  N  N47  1  0.43673045  0.10711998  0.58276919  1
  N  N48  1  0.22616251  0.54299446  0.37742894  1
  N  N49  1  0.10396586  0.42716043  0.08017823  1
  N  N50  1  0.88749163  0.54255094  0.82485522  1
  N  N51  1  0.79398417  0.39305058  0.58388130  1
  N  N52  1  0.55305535  0.53971877  0.38276118  1
  N  N53  1  0.44504567  0.42891714  0.12821846  1
  N  N54  1  0.22475234  0.54149159  0.87743273  1
  N  N55  1  0.10567674  0.42614555  0.57486420  1
  N  N56  1  0.88557760  0.54278141  0.33123918  1
  N  N57  1  0.77786791  0.42831762  0.07314451  1
  N  N58  1  0.53834257  0.56905793  0.87083163  1
  N  N59  1  0.44485433  0.42278306  0.62953743  1
  N  N60  1  0.22799469  0.86560484  0.38409100  1
  N  N61  1  0.11834447  0.76203015  0.12586325  1
  N  N62  1  0.89138278  0.87430733  0.89117972  1
  N  N63  1  0.80137365  0.77945548  0.59089876  1
  N  N64  1  0.55899225  0.86164578  0.39490980  1
  N  N65  1  0.45784876  0.77759003  0.13213114  1
  N  N66  1  0.25155263  0.85774391  0.86949505  1
  N  N67  1  0.08554456  0.77428896  0.63140048  1
  N  N68  1  0.87790547  0.89890138  0.33752785  1
  N  N69  1  0.74048839  0.77381288  0.08121330  1
  N  N70  1  0.54674712  0.86136108  0.81721236  1
  N  N71  1  0.43576938  0.75411987  0.64592511  1
