# generated using pymatgen
data_Al31B5N36
_symmetry_space_group_name_H-M   'P 1'
_cell_length_a   9.16978402
_cell_length_b   9.16822080
_cell_length_c   9.80037953
_cell_angle_alpha   90.11385528
_cell_angle_beta   90.03447754
_cell_angle_gamma   60.05092869
_symmetry_Int_Tables_number   1
_chemical_formula_structural   Al31B5N36
_chemical_formula_sum   'Al31 B5 N36'
_cell_volume   713.90338770
_cell_formula_units_Z   1
loop_
 _symmetry_equiv_pos_site_id
 _symmetry_equiv_pos_as_xyz
  1  'x, y, z'
loop_
 _atom_site_type_symbol
 _atom_site_label
 _atom_site_symmetry_multiplicity
 _atom_site_fract_x
 _atom_site_fract_y
 _atom_site_fract_z
 _atom_site_occupancy
  Al  Al0  1  0.10255541  0.09369494  0.41528070  1
  Al  Al1  1  0.22461401  0.20004726  0.16111676  1
  Al  Al2  1  0.77954602  0.09354196  0.89681527  1
  Al  Al3  1  0.45039316  0.08900160  0.40433417  1
  Al  Al4  1  0.56460938  0.19716880  0.16477747  1
  Al  Al5  1  0.11304676  0.09220485  0.90572273  1
  Al  Al6  1  0.21921053  0.20604123  0.66102498  1
  Al  Al7  1  0.88601340  0.20181961  0.16314252  1
  Al  Al8  1  0.44685271  0.08673207  0.91468068  1
  Al  Al9  1  0.56514575  0.19976176  0.65235227  1
  Al  Al10  1  0.10971456  0.42823792  0.41102279  1
  Al  Al11  1  0.22092543  0.54089370  0.16218380  1
  Al  Al12  1  0.77696090  0.42852976  0.90456782  1
  Al  Al13  1  0.88954587  0.54029886  0.65990251  1
  Al  Al14  1  0.44991600  0.42536137  0.41065416  1
  Al  Al15  1  0.55718680  0.54409112  0.15322212  1
  Al  Al16  1  0.11117543  0.42842370  0.91246186  1
  Al  Al17  1  0.21739747  0.54305963  0.66093110  1
  Al  Al18  1  0.77664672  0.41860991  0.41560548  1
  Al  Al19  1  0.88148225  0.54372139  0.16168107  1
  Al  Al20  1  0.44415175  0.43070016  0.91066468  1
  Al  Al21  1  0.55624579  0.54020818  0.66603714  1
  Al  Al22  1  0.10203549  0.77090739  0.41496678  1
  Al  Al23  1  0.22696023  0.87285303  0.15386149  1
  Al  Al24  1  0.77116568  0.76489303  0.90873034  1
  Al  Al25  1  0.44629219  0.76173347  0.40275881  1
  Al  Al26  1  0.11282265  0.76264005  0.90546409  1
  Al  Al27  1  0.22026413  0.87391740  0.66526001  1
  Al  Al28  1  0.77393569  0.77210963  0.40913543  1
  Al  Al29  1  0.88101626  0.88012366  0.16300679  1
  Al  Al30  1  0.55705868  0.87187129  0.66368707  1
  B  B31  1  0.89420514  0.19860545  0.66155174  1
  B  B32  1  0.78622774  0.09011530  0.41785611  1
  B  B33  1  0.89306446  0.87508477  0.66021636  1
  B  B34  1  0.55692019  0.87296165  0.15775712  1
  B  B35  1  0.44951493  0.76553134  0.91604621  1
  N  N36  1  0.22004060  0.20356411  0.35369115  1
  N  N37  1  0.10664443  0.09661163  0.09841397  1
  N  N38  1  0.88990495  0.20374000  0.82663654  1
  N  N39  1  0.80024100  0.08314679  0.59525543  1
  N  N40  1  0.58325584  0.19152844  0.36259488  1
  N  N41  1  0.45802547  0.07094968  0.11033842  1
  N  N42  1  0.22451054  0.20544739  0.85362634  1
  N  N43  1  0.08810600  0.10459509  0.61041309  1
  N  N44  1  0.87588980  0.19091916  0.35753234  1
  N  N45  1  0.77922846  0.09385324  0.08872560  1
  N  N46  1  0.55404256  0.20455490  0.84698765  1
  N  N47  1  0.44410864  0.09133303  0.59770415  1
  N  N48  1  0.22051736  0.54272368  0.35513978  1
  N  N49  1  0.10964178  0.42799845  0.10504827  1
  N  N50  1  0.88895106  0.54131247  0.85209566  1
  N  N51  1  0.78800246  0.40303138  0.61048067  1
  N  N52  1  0.55742584  0.53861306  0.34670382  1
  N  N53  1  0.44546047  0.42429601  0.10423908  1
  N  N54  1  0.22213274  0.53909303  0.85208226  1
  N  N55  1  0.11099866  0.42767712  0.60169012  1
  N  N56  1  0.88388598  0.54095067  0.35614672  1
  N  N57  1  0.78133439  0.42247618  0.09796892  1
  N  N58  1  0.54329986  0.56533218  0.86169167  1
  N  N59  1  0.44386304  0.43037338  0.60329170  1
  N  N60  1  0.22164355  0.87251900  0.34904018  1
  N  N61  1  0.10585512  0.76369687  0.09934271  1
  N  N62  1  0.88851650  0.87284034  0.82725609  1
  N  N63  1  0.78663169  0.77719434  0.60554900  1
  N  N64  1  0.55596704  0.87006245  0.32592434  1
  N  N65  1  0.45674423  0.77368933  0.08850912  1
  N  N66  1  0.24978071  0.85945022  0.86013883  1
  N  N67  1  0.08749979  0.77533155  0.61021407  1
  N  N68  1  0.87545873  0.90019157  0.35674884  1
  N  N69  1  0.75472871  0.77559488  0.10597644  1
  N  N70  1  0.54328167  0.86005897  0.85543903  1
  N  N71  1  0.44617749  0.76160395  0.59505284  1
