# generated using pymatgen
data_Al31B5N36
_symmetry_space_group_name_H-M   'P 1'
_cell_length_a   9.16978149
_cell_length_b   9.16821716
_cell_length_c   9.80038982
_cell_angle_alpha   90.11387302
_cell_angle_beta   90.03449356
_cell_angle_gamma   60.05093123
_symmetry_Int_Tables_number   1
_chemical_formula_structural   Al31B5N36
_chemical_formula_sum   'Al31 B5 N36'
_cell_volume   713.90367470
_cell_formula_units_Z   1
loop_
 _symmetry_equiv_pos_site_id
 _symmetry_equiv_pos_as_xyz
  1  'x, y, z'
loop_
 _atom_site_type_symbol
 _atom_site_label
 _atom_site_symmetry_multiplicity
 _atom_site_fract_x
 _atom_site_fract_y
 _atom_site_fract_z
 _atom_site_occupancy
  Al  Al0  1  0.10255842  0.09370081  0.41725628  1
  Al  Al1  1  0.22461714  0.20005314  0.16309684  1
  Al  Al2  1  0.77954981  0.09354754  0.89879017  1
  Al  Al3  1  0.45039699  0.08900786  0.40631135  1
  Al  Al4  1  0.56461331  0.19717441  0.16675439  1
  Al  Al5  1  0.11305034  0.09221054  0.90769718  1
  Al  Al6  1  0.21921430  0.20604665  0.66300439  1
  Al  Al7  1  0.88601705  0.20182527  0.16511673  1
  Al  Al8  1  0.44685604  0.08673743  0.91665789  1
  Al  Al9  1  0.56514881  0.19976787  0.65433282  1
  Al  Al10  1  0.10971780  0.42824437  0.41300580  1
  Al  Al11  1  0.22092853  0.54089976  0.16416302  1
  Al  Al12  1  0.77696383  0.42853581  0.90654519  1
  Al  Al13  1  0.88954901  0.54030500  0.66188457  1
  Al  Al14  1  0.44991949  0.42536710  0.41263556  1
  Al  Al15  1  0.55719052  0.54409741  0.15520306  1
  Al  Al16  1  0.11117922  0.42842905  0.91444142  1
  Al  Al17  1  0.21740108  0.54306570  0.66291312  1
  Al  Al18  1  0.77665075  0.41861574  0.41758286  1
  Al  Al19  1  0.88148637  0.54372663  0.16366032  1
  Al  Al20  1  0.44415550  0.43070659  0.91264676  1
  Al  Al21  1  0.55624920  0.54021393  0.66801600  1
  Al  Al22  1  0.10203891  0.77091327  0.41694255  1
  Al  Al23  1  0.22696376  0.87285898  0.15583645  1
  Al  Al24  1  0.77116846  0.76489931  0.91071116  1
  Al  Al25  1  0.44629496  0.76173994  0.40473874  1
  Al  Al26  1  0.11282587  0.76264642  0.90743932  1
  Al  Al27  1  0.22026684  0.87392366  0.66723583  1
  Al  Al28  1  0.77393959  0.77211544  0.41111507  1
  Al  Al29  1  0.88101991  0.88012979  0.16498253  1
  Al  Al30  1  0.55706226  0.87187749  0.66566358  1
  B  B31  1  0.89420805  0.19861165  0.66352804  1
  B  B32  1  0.78623022  0.09012187  0.41983177  1
  B  B33  1  0.89306776  0.87509011  0.66219348  1
  B  B34  1  0.55692346  0.87296750  0.15973555  1
  B  B35  1  0.44951924  0.76553663  0.91802330  1
  N  N36  1  0.22004365  0.20357101  0.35567021  1
  N  N37  1  0.10664834  0.09661783  0.10038858  1
  N  N38  1  0.88990826  0.20374627  0.82861249  1
  N  N39  1  0.80024381  0.08315351  0.59723238  1
  N  N40  1  0.58325966  0.19153466  0.36457171  1
  N  N41  1  0.45802867  0.07095538  0.11231588  1
  N  N42  1  0.22451422  0.20545336  0.85560398  1
  N  N43  1  0.08810917  0.10460138  0.61238888  1
  N  N44  1  0.87589298  0.19092538  0.35950706  1
  N  N45  1  0.77923176  0.09385894  0.09070037  1
  N  N46  1  0.55404527  0.20456161  0.84896668  1
  N  N47  1  0.44411219  0.09133945  0.59968123  1
  N  N48  1  0.22052102  0.54272884  0.35711862  1
  N  N49  1  0.10964566  0.42800388  0.10702683  1
  N  N50  1  0.88895446  0.54131877  0.85407607  1
  N  N51  1  0.78800587  0.40303765  0.61245797  1
  N  N52  1  0.55742890  0.53861928  0.34868374  1
  N  N53  1  0.44546417  0.42430251  0.10621921  1
  N  N54  1  0.22213695  0.53909823  0.85406262  1
  N  N55  1  0.11100179  0.42768352  0.60367195  1
  N  N56  1  0.88389022  0.54095648  0.35812518  1
  N  N57  1  0.78133716  0.42248284  0.09994595  1
  N  N58  1  0.54330304  0.56533826  0.86366932  1
  N  N59  1  0.44386604  0.43037923  0.60527169  1
  N  N60  1  0.22164725  0.87252478  0.35101532  1
  N  N61  1  0.10585874  0.76370236  0.10131801  1
  N  N62  1  0.88851979  0.87284564  0.82923259  1
  N  N63  1  0.78663561  0.77719993  0.60752724  1
  N  N64  1  0.55597044  0.87006816  0.32790291  1
  N  N65  1  0.45674814  0.77369478  0.09048644  1
  N  N66  1  0.24978432  0.85945597  0.86211426  1
  N  N67  1  0.08750318  0.77533691  0.61219059  1
  N  N68  1  0.87546188  0.90019753  0.35872462  1
  N  N69  1  0.75473197  0.77560057  0.10795531  1
  N  N70  1  0.54328567  0.86006453  0.85741568  1
  N  N71  1  0.44618068  0.76160990  0.59703118  1
