# generated using pymatgen
data_Al31B5N36
_symmetry_space_group_name_H-M   'P 1'
_cell_length_a   9.20720751
_cell_length_b   9.26429717
_cell_length_c   9.92482504
_cell_angle_alpha   89.72179336
_cell_angle_beta   89.64527480
_cell_angle_gamma   60.02707268
_symmetry_Int_Tables_number   1
_chemical_formula_structural   Al31B5N36
_chemical_formula_sum   'Al31 B5 N36'
_cell_volume   733.33614235
_cell_formula_units_Z   1
loop_
 _symmetry_equiv_pos_site_id
 _symmetry_equiv_pos_as_xyz
  1  'x, y, z'
loop_
 _atom_site_type_symbol
 _atom_site_label
 _atom_site_symmetry_multiplicity
 _atom_site_fract_x
 _atom_site_fract_y
 _atom_site_fract_z
 _atom_site_occupancy
  Al  Al0  1  0.10836557  0.08917067  0.32301900  1
  Al  Al1  1  0.22703972  0.19405198  0.07944632  1
  Al  Al2  1  0.78216258  0.08839976  0.82529764  1
  Al  Al3  1  0.45632322  0.08220247  0.32969071  1
  Al  Al4  1  0.56096993  0.20043010  0.07644986  1
  Al  Al5  1  0.10602801  0.09339887  0.81867229  1
  Al  Al6  1  0.21780082  0.19948628  0.56922400  1
  Al  Al7  1  0.88289751  0.21459935  0.07480802  1
  Al  Al8  1  0.43974913  0.09313065  0.81981589  1
  Al  Al9  1  0.57015068  0.19595110  0.56558414  1
  Al  Al10  1  0.11130507  0.43099544  0.38501734  1
  Al  Al11  1  0.22727425  0.54210448  0.07424374  1
  Al  Al12  1  0.76795073  0.43337629  0.81071752  1
  Al  Al13  1  0.89621414  0.55609124  0.64429027  1
  Al  Al14  1  0.45734606  0.42280926  0.31873320  1
  Al  Al15  1  0.56131131  0.54923607  0.06685874  1
  Al  Al16  1  0.10060646  0.43091796  0.89471185  1
  Al  Al17  1  0.22545453  0.54080586  0.57587732  1
  Al  Al18  1  0.78548300  0.42090846  0.40042708  1
  Al  Al19  1  0.87801542  0.54492701  0.15533296  1
  Al  Al20  1  0.44442384  0.42984703  0.82370841  1
  Al  Al21  1  0.54374638  0.54915274  0.58001460  1
  Al  Al22  1  0.11157311  0.76541528  0.31746028  1
  Al  Al23  1  0.23341265  0.87391814  0.06617426  1
  Al  Al24  1  0.75786554  0.76513775  0.89846340  1
  Al  Al25  1  0.45267667  0.75979319  0.32926483  1
  Al  Al26  1  0.10811468  0.76291823  0.83189407  1
  Al  Al27  1  0.21313625  0.87053096  0.57307379  1
  Al  Al28  1  0.78298980  0.77484679  0.40037932  1
  Al  Al29  1  0.88279537  0.88061256  0.10514065  1
  Al  Al30  1  0.55466204  0.87231976  0.61010884  1
  B  B31  1  0.91850210  0.13296964  0.55328808  1
  B  B32  1  0.77510945  0.08773013  0.31334807  1
  B  B33  1  0.89772658  0.87047340  0.61199674  1
  B  B34  1  0.55522867  0.87148148  0.11479715  1
  B  B35  1  0.43802716  0.76527365  0.81058908  1
  N  N36  1  0.22560188  0.19852573  0.37480649  1
  N  N37  1  0.10733152  0.09204616  0.13330919  1
  N  N38  1  0.88191327  0.21060310  0.87967589  1
  N  N39  1  0.81096701  0.06502350  0.62309072  1
  N  N40  1  0.58331064  0.18943472  0.37279967  1
  N  N41  1  0.46188509  0.06307181  0.13188061  1
  N  N42  1  0.21975872  0.19933463  0.88260460  1
  N  N43  1  0.08121287  0.09989994  0.62110560  1
  N  N44  1  0.88742330  0.17780536  0.40459009  1
  N  N45  1  0.77407400  0.10817549  0.15261350  1
  N  N46  1  0.55691216  0.20166931  0.88308031  1
  N  N47  1  0.43905651  0.10526276  0.62894312  1
  N  N48  1  0.23073875  0.54321115  0.38047601  1
  N  N49  1  0.10576275  0.43062907  0.09523177  1
  N  N50  1  0.88555101  0.54802661  0.83453986  1
  N  N51  1  0.77059780  0.45123288  0.61152987  1
  N  N52  1  0.55307948  0.54072159  0.38933978  1
  N  N53  1  0.44921841  0.42837592  0.12786976  1
  N  N54  1  0.22323723  0.54001585  0.87973996  1
  N  N55  1  0.11054325  0.42691687  0.58534167  1
  N  N56  1  0.88632419  0.54930408  0.34684328  1
  N  N57  1  0.77349003  0.42820494  0.12926336  1
  N  N58  1  0.53973014  0.56741832  0.87115561  1
  N  N59  1  0.45110395  0.41916480  0.63291334  1
  N  N60  1  0.22610715  0.86856864  0.38430844  1
  N  N61  1  0.12185935  0.76171020  0.12729517  1
  N  N62  1  0.88639857  0.87595853  0.89868359  1
  N  N63  1  0.79968501  0.78535000  0.59641633  1
  N  N64  1  0.55279681  0.87034276  0.40452052  1
  N  N65  1  0.45886230  0.77870902  0.13356469  1
  N  N66  1  0.24220781  0.86390724  0.87266329  1
  N  N67  1  0.08536203  0.77151404  0.63354596  1
  N  N68  1  0.87681136  0.89544554  0.33359933  1
  N  N69  1  0.74185116  0.77597511  0.09593082  1
  N  N70  1  0.54176497  0.85945232  0.82992038  1
  N  N71  1  0.42462858  0.76457194  0.64916723  1
