# generated using pymatgen
data_Al31B5N36
_symmetry_space_group_name_H-M   'P 1'
_cell_length_a   9.17357013
_cell_length_b   9.13932503
_cell_length_c   10.17768694
_cell_angle_alpha   89.45447822
_cell_angle_beta   89.33250455
_cell_angle_gamma   60.25787381
_symmetry_Int_Tables_number   1
_chemical_formula_structural   Al31B5N36
_chemical_formula_sum   'Al31 B5 N36'
_cell_volume   740.83481750
_cell_formula_units_Z   1
loop_
 _symmetry_equiv_pos_site_id
 _symmetry_equiv_pos_as_xyz
  1  'x, y, z'
loop_
 _atom_site_type_symbol
 _atom_site_label
 _atom_site_symmetry_multiplicity
 _atom_site_fract_x
 _atom_site_fract_y
 _atom_site_fract_z
 _atom_site_occupancy
  Al  Al0  1  0.09925573  0.09764316  0.38307607  1
  Al  Al1  1  0.22548987  0.19841802  0.13846002  1
  Al  Al2  1  0.78014868  0.08982088  0.81908214  1
  Al  Al3  1  0.44747121  0.08993248  0.39302164  1
  Al  Al4  1  0.55787661  0.20325405  0.06660266  1
  Al  Al5  1  0.10934844  0.09711075  0.88524130  1
  Al  Al6  1  0.21529453  0.20944898  0.64029578  1
  Al  Al7  1  0.88650594  0.20860634  0.13291810  1
  Al  Al8  1  0.44208134  0.08167075  0.87770063  1
  Al  Al9  1  0.57804815  0.20044585  0.56299666  1
  Al  Al10  1  0.10936645  0.42428293  0.38624882  1
  Al  Al11  1  0.22494897  0.54232412  0.06674790  1
  Al  Al12  1  0.77703901  0.42962929  0.88442309  1
  Al  Al13  1  0.89173025  0.53869789  0.64049230  1
  Al  Al14  1  0.45262623  0.42167505  0.31627573  1
  Al  Al15  1  0.54664845  0.55457213  0.06390900  1
  Al  Al16  1  0.10503227  0.42695285  0.88930832  1
  Al  Al17  1  0.22083551  0.54439051  0.56759011  1
  Al  Al18  1  0.78489374  0.41297523  0.38824319  1
  Al  Al19  1  0.87676025  0.54641558  0.14433243  1
  Al  Al20  1  0.44434540  0.43205856  0.81523438  1
  Al  Al21  1  0.55289625  0.53656059  0.57210144  1
  Al  Al22  1  0.10791016  0.76865087  0.31334729  1
  Al  Al23  1  0.23760584  0.86613875  0.06297630  1
  Al  Al24  1  0.76347966  0.76265390  0.88542643  1
  Al  Al25  1  0.45135092  0.76189528  0.32433145  1
  Al  Al26  1  0.11204500  0.76426850  0.82244844  1
  Al  Al27  1  0.21648338  0.87131413  0.57226149  1
  Al  Al28  1  0.78505356  0.77294819  0.39589518  1
  Al  Al29  1  0.88352869  0.87706050  0.08494698  1
  Al  Al30  1  0.55705079  0.87553589  0.61572007  1
  B  B31  1  0.89885437  0.19609936  0.62208984  1
  B  B32  1  0.77550572  0.08833424  0.30156366  1
  B  B33  1  0.89764167  0.87596506  0.60617414  1
  B  B34  1  0.55287969  0.87250544  0.10083369  1
  B  B35  1  0.44212205  0.75947762  0.80604451  1
  N  N36  1  0.22585977  0.20099966  0.32472167  1
  N  N37  1  0.10853889  0.09686967  0.07493932  1
  N  N38  1  0.88933498  0.20785552  0.83563514  1
  N  N39  1  0.80778194  0.07392689  0.62541419  1
  N  N40  1  0.58731119  0.19164363  0.37080849  1
  N  N41  1  0.45424472  0.06159375  0.07674907  1
  N  N42  1  0.22023739  0.20821521  0.82556027  1
  N  N43  1  0.08286384  0.11001773  0.58119200  1
  N  N44  1  0.88134049  0.19608494  0.31987499  1
  N  N45  1  0.76455338  0.09707443  0.14072776  1
  N  N46  1  0.55715481  0.20683173  0.87798476  1
  N  N47  1  0.43656311  0.10719498  0.58294707  1
  N  N48  1  0.22624853  0.54293743  0.37756765  1
  N  N49  1  0.10380939  0.42740225  0.08012720  1
  N  N50  1  0.88714998  0.54233120  0.82470709  1
  N  N51  1  0.79430838  0.39120015  0.58326405  1
  N  N52  1  0.55305007  0.53967930  0.38276273  1
  N  N53  1  0.44491187  0.42886420  0.12815611  1
  N  N54  1  0.22462009  0.54150231  0.87715534  1
  N  N55  1  0.10563189  0.42612329  0.57500665  1
  N  N56  1  0.88573818  0.54298630  0.33175098  1
  N  N57  1  0.77682003  0.43033578  0.07504025  1
  N  N58  1  0.53815165  0.56918850  0.87098175  1
  N  N59  1  0.44468933  0.42292185  0.62954147  1
  N  N60  1  0.22825815  0.86527980  0.38357302  1
  N  N61  1  0.11816654  0.76195441  0.12575117  1
  N  N62  1  0.89114181  0.87380275  0.89050112  1
  N  N63  1  0.80137583  0.78001294  0.59113515  1
  N  N64  1  0.55904528  0.86159821  0.39523507  1
  N  N65  1  0.45802133  0.77767895  0.13228368  1
  N  N66  1  0.25149713  0.85780146  0.86973922  1
  N  N67  1  0.08570696  0.77444359  0.63114876  1
  N  N68  1  0.87808850  0.89905678  0.33798412  1
  N  N69  1  0.74053920  0.77409145  0.08124546  1
  N  N70  1  0.54658866  0.86124272  0.81713569  1
  N  N71  1  0.43575587  0.75402449  0.64577096  1
