# generated using pymatgen
data_Al31B5N36
_symmetry_space_group_name_H-M   'P 1'
_cell_length_a   9.20783005
_cell_length_b   9.18107181
_cell_length_c   10.04136839
_cell_angle_alpha   89.97506171
_cell_angle_beta   89.91466463
_cell_angle_gamma   60.12316133
_symmetry_Int_Tables_number   1
_chemical_formula_structural   Al31B5N36
_chemical_formula_sum   'Al31 B5 N36'
_cell_volume   736.05683334
_cell_formula_units_Z   1
loop_
 _symmetry_equiv_pos_site_id
 _symmetry_equiv_pos_as_xyz
  1  'x, y, z'
loop_
 _atom_site_type_symbol
 _atom_site_label
 _atom_site_symmetry_multiplicity
 _atom_site_fract_x
 _atom_site_fract_y
 _atom_site_fract_z
 _atom_site_occupancy
  Al  Al0  1  0.10450569  0.08604207  0.32408565  1
  Al  Al1  1  0.23128711  0.20246075  0.14298637  1
  Al  Al2  1  0.78294876  0.08916549  0.81908785  1
  Al  Al3  1  0.45260076  0.08637043  0.37961291  1
  Al  Al4  1  0.56042004  0.19841181  0.07118097  1
  Al  Al5  1  0.10382003  0.09028753  0.81130373  1
  Al  Al6  1  0.21112485  0.21471702  0.62808192  1
  Al  Al7  1  0.88889787  0.20423210  0.07249225  1
  Al  Al8  1  0.44654225  0.09068654  0.81969670  1
  Al  Al9  1  0.57754078  0.19952899  0.56580073  1
  Al  Al10  1  0.10832576  0.42691321  0.38649426  1
  Al  Al11  1  0.22548556  0.54332345  0.06733827  1
  Al  Al12  1  0.77268831  0.43669872  0.88107558  1
  Al  Al13  1  0.89079641  0.53908076  0.64249386  1
  Al  Al14  1  0.45350846  0.42022752  0.31578561  1
  Al  Al15  1  0.54471049  0.55796095  0.06660381  1
  Al  Al16  1  0.10587266  0.42373525  0.89024096  1
  Al  Al17  1  0.22117565  0.54585069  0.56945091  1
  Al  Al18  1  0.78484948  0.41735305  0.39244200  1
  Al  Al19  1  0.87708955  0.54694543  0.14344701  1
  Al  Al20  1  0.44351327  0.43333466  0.81745801  1
  Al  Al21  1  0.55278726  0.53668369  0.57345844  1
  Al  Al22  1  0.11165666  0.76412143  0.31262461  1
  Al  Al23  1  0.23268534  0.87917373  0.06075622  1
  Al  Al24  1  0.76084459  0.76708399  0.89199020  1
  Al  Al25  1  0.45051810  0.76061044  0.32434445  1
  Al  Al26  1  0.10829513  0.76327746  0.82629895  1
  Al  Al27  1  0.21226764  0.87465243  0.56899260  1
  Al  Al28  1  0.78581113  0.76954259  0.39525753  1
  Al  Al29  1  0.88156863  0.88148724  0.10320046  1
  Al  Al30  1  0.55925209  0.86685739  0.60785603  1
  B  B31  1  0.89951919  0.18033405  0.55785284  1
  B  B32  1  0.77845636  0.08944888  0.31345786  1
  B  B33  1  0.89673213  0.87208861  0.60826571  1
  B  B34  1  0.55239753  0.87802525  0.10854190  1
  B  B35  1  0.44102682  0.76164780  0.80492273  1
  N  N36  1  0.22641835  0.20385784  0.33638820  1
  N  N37  1  0.10701505  0.09346775  0.13265392  1
  N  N38  1  0.88953500  0.20061206  0.88128019  1
  N  N39  1  0.80740618  0.07008484  0.62308701  1
  N  N40  1  0.58613276  0.18996367  0.37450363  1
  N  N41  1  0.46202647  0.06348570  0.10916368  1
  N  N42  1  0.21636000  0.20984739  0.82134828  1
  N  N43  1  0.08195483  0.10338518  0.61542089  1
  N  N44  1  0.88374663  0.17905130  0.39226162  1
  N  N45  1  0.77147575  0.11128581  0.15162220  1
  N  N46  1  0.55848646  0.20507152  0.87722132  1
  N  N47  1  0.44371481  0.10317673  0.60501309  1
  N  N48  1  0.22774703  0.54166752  0.37684432  1
  N  N49  1  0.10571537  0.42713072  0.08270126  1
  N  N50  1  0.88654665  0.54506362  0.82879263  1
  N  N51  1  0.79167979  0.40193515  0.58683442  1
  N  N52  1  0.55365569  0.53835214  0.38025088  1
  N  N53  1  0.44604157  0.42805584  0.12646335  1
  N  N54  1  0.22368801  0.53988879  0.87602960  1
  N  N55  1  0.10379946  0.43149241  0.57526747  1
  N  N56  1  0.88565242  0.54210849  0.33171825  1
  N  N57  1  0.77373321  0.43580534  0.07832282  1
  N  N58  1  0.53488853  0.57200443  0.87052749  1
  N  N59  1  0.44572998  0.42228120  0.62944736  1
  N  N60  1  0.22710712  0.86622735  0.38256548  1
  N  N61  1  0.12195004  0.76344452  0.12351809  1
  N  N62  1  0.88841159  0.87646658  0.89461407  1
  N  N63  1  0.80279952  0.77702464  0.59102489  1
  N  N64  1  0.55746482  0.86035682  0.40348032  1
  N  N65  1  0.45635905  0.78176331  0.13221421  1
  N  N66  1  0.24502724  0.86434494  0.86782155  1
  N  N67  1  0.08455159  0.77436125  0.63037030  1
  N  N68  1  0.87755960  0.89249775  0.32839943  1
  N  N69  1  0.74100205  0.77704350  0.08708178  1
  N  N70  1  0.54667903  0.85849799  0.81810934  1
  N  N71  1  0.43154107  0.75516125  0.64398906  1
