# generated using pymatgen
data_Gd5Al31N36
_symmetry_space_group_name_H-M   'P 1'
_cell_length_a   9.66349524
_cell_length_b   9.67544676
_cell_length_c   10.52135280
_cell_angle_alpha   90.60582796
_cell_angle_beta   90.77865572
_cell_angle_gamma   60.05208054
_symmetry_Int_Tables_number   1
_chemical_formula_structural   Gd5Al31N36
_chemical_formula_sum   'Gd5 Al31 N36'
_cell_volume   852.29687735
_cell_formula_units_Z   1
loop_
 _symmetry_equiv_pos_site_id
 _symmetry_equiv_pos_as_xyz
  1  'x, y, z'
loop_
 _atom_site_type_symbol
 _atom_site_label
 _atom_site_symmetry_multiplicity
 _atom_site_fract_x
 _atom_site_fract_y
 _atom_site_fract_z
 _atom_site_occupancy
  Al  Al0  1  0.11697289  0.09056204  0.41000747  1
  Al  Al1  1  0.22521104  0.20628477  0.14278454  1
  Al  Al2  1  0.88762745  0.20696963  0.65732435  1
  Al  Al3  1  0.43273522  0.09340190  0.40414587  1
  Al  Al4  1  0.54362965  0.21323610  0.15319269  1
  Al  Al5  1  0.11043344  0.10340717  0.89652307  1
  Al  Al6  1  0.22204113  0.19880645  0.65440649  1
  Al  Al7  1  0.89292368  0.22154653  0.15540887  1
  Al  Al8  1  0.43097339  0.10962586  0.89141148  1
  Al  Al9  1  0.54421509  0.21255879  0.65252378  1
  Al  Al10  1  0.22845796  0.54511828  0.14848429  1
  Al  Al11  1  0.77636464  0.42787062  0.89908843  1
  Al  Al12  1  0.88125464  0.53930271  0.59373533  1
  Al  Al13  1  0.44706726  0.43633572  0.39771620  1
  Al  Al14  1  0.56738052  0.53612164  0.14618326  1
  Al  Al15  1  0.10728565  0.43231082  0.82616064  1
  Al  Al16  1  0.22656176  0.54375958  0.65231708  1
  Al  Al17  1  0.77548649  0.41859056  0.41285712  1
  Al  Al18  1  0.90693416  0.53967461  0.06495804  1
  Al  Al19  1  0.43808194  0.43341346  0.90162326  1
  Al  Al20  1  0.55356929  0.53312128  0.65727232  1
  Al  Al21  1  0.11812841  0.75831791  0.40793875  1
  Al  Al22  1  0.77625655  0.75305185  0.82876228  1
  Al  Al23  1  0.89210490  0.86598012  0.65537551  1
  Al  Al24  1  0.43455978  0.75251647  0.42309924  1
  Al  Al25  1  0.57076050  0.87180516  0.05401620  1
  Al  Al26  1  0.11487313  0.75402575  0.89737559  1
  Al  Al27  1  0.21738409  0.87254716  0.65330576  1
  Al  Al28  1  0.90225673  0.86606078  0.14752206  1
  Al  Al29  1  0.44442005  0.75594787  0.88980126  1
  Al  Al30  1  0.55112937  0.87259200  0.59556911  1
  Gd  Gd31  1  0.77531624  0.09334036  0.90358891  1
  Gd  Gd32  1  0.77662609  0.09096639  0.39257544  1
  Gd  Gd33  1  0.13355739  0.41667111  0.37366350  1
  Gd  Gd34  1  0.23279607  0.87864867  0.15912400  1
  Gd  Gd35  1  0.75477832  0.74050803  0.31534710  1
  N  N36  1  0.23952306  0.15857769  0.32222435  1
  N  N37  1  0.09720326  0.12456777  0.07544511  1
  N  N38  1  0.89941304  0.22017842  0.83465323  1
  N  N39  1  0.77383615  0.09160332  0.61792400  1
  N  N40  1  0.51182065  0.22413202  0.33499179  1
  N  N41  1  0.44369502  0.10122676  0.07756670  1
  N  N42  1  0.22001666  0.20496195  0.83559679  1
  N  N43  1  0.10728690  0.09628195  0.59487794  1
  N  N44  1  0.90763705  0.21756156  0.33786977  1
  N  N45  1  0.77739286  0.09983976  0.12781598  1
  N  N46  1  0.52290454  0.22645885  0.83173646  1
  N  N47  1  0.43319679  0.10682723  0.59213420  1
  N  N48  1  0.24749096  0.56476404  0.32893212  1
  N  N49  1  0.11397463  0.43293961  0.13787106  1
  N  N50  1  0.89410027  0.53691432  0.88204349  1
  N  N51  1  0.76673963  0.41949750  0.59790946  1
  N  N52  1  0.56467651  0.53915514  0.33953029  1
  N  N53  1  0.44917922  0.43003777  0.08687609  1
  N  N54  1  0.22729320  0.54184650  0.83583770  1
  N  N55  1  0.10760616  0.42996393  0.63463153  1
  N  N56  1  0.88501013  0.52508475  0.41792084  1
  N  N57  1  0.78065323  0.43033333  0.08644858  1
  N  N58  1  0.55650271  0.53399319  0.83999706  1
  N  N59  1  0.44121025  0.42957762  0.58486125  1
  N  N60  1  0.22021983  0.87238973  0.37512300  1
  N  N61  1  0.10778563  0.75241424  0.07655098  1
  N  N62  1  0.90748408  0.84524864  0.83364305  1
  N  N63  1  0.76943947  0.75690118  0.64394811  1
  N  N64  1  0.53183596  0.87605349  0.41354708  1
  N  N65  1  0.47599228  0.74420582  0.07551103  1
  N  N66  1  0.21881872  0.87540803  0.84220924  1
  N  N67  1  0.10721033  0.75920415  0.59232399  1
  N  N68  1  0.91864343  0.84187356  0.32859322  1
  N  N69  1  0.78450832  0.76421261  0.10058774  1
  N  N70  1  0.55388039  0.87831511  0.87057547  1
  N  N71  1  0.43919921  0.75197131  0.60793915  1
