# generated using pymatgen
data_Gd5Al31N36
_symmetry_space_group_name_H-M   'P 1'
_cell_length_a   9.66145772
_cell_length_b   9.65508333
_cell_length_c   10.59039680
_cell_angle_alpha   91.00514332
_cell_angle_beta   90.91043901
_cell_angle_gamma   60.48984312
_symmetry_Int_Tables_number   1
_chemical_formula_structural   Gd5Al31N36
_chemical_formula_sum   'Gd5 Al31 N36'
_cell_volume   859.57192825
_cell_formula_units_Z   1
loop_
 _symmetry_equiv_pos_site_id
 _symmetry_equiv_pos_as_xyz
  1  'x, y, z'
loop_
 _atom_site_type_symbol
 _atom_site_label
 _atom_site_symmetry_multiplicity
 _atom_site_fract_x
 _atom_site_fract_y
 _atom_site_fract_z
 _atom_site_occupancy
  Al  Al0  1  0.11734858  0.07978104  0.40448626  1
  Al  Al1  1  0.22422697  0.21650920  0.03582561  1
  Al  Al2  1  0.88917769  0.20726387  0.59954698  1
  Al  Al3  1  0.43422948  0.09132986  0.31460499  1
  Al  Al4  1  0.54179362  0.21443411  0.05645574  1
  Al  Al5  1  0.11257515  0.09747785  0.85709130  1
  Al  Al6  1  0.23086226  0.20566138  0.57071930  1
  Al  Al7  1  0.88075973  0.21250005  0.04162524  1
  Al  Al8  1  0.43599670  0.09969047  0.80402931  1
  Al  Al9  1  0.54673167  0.21142472  0.55186142  1
  Al  Al10  1  0.22231997  0.53956411  0.05242265  1
  Al  Al11  1  0.76876143  0.43577700  0.85914490  1
  Al  Al12  1  0.89076431  0.54194595  0.57347958  1
  Al  Al13  1  0.44080591  0.43333098  0.30937814  1
  Al  Al14  1  0.56944114  0.53809084  0.12602575  1
  Al  Al15  1  0.11299433  0.43025629  0.80369202  1
  Al  Al16  1  0.22790179  0.54179195  0.56255590  1
  Al  Al17  1  0.76944923  0.42765291  0.39889729  1
  Al  Al18  1  0.89389797  0.54096308  0.03300806  1
  Al  Al19  1  0.43259190  0.43014686  0.80872937  1
  Al  Al20  1  0.55407332  0.54123084  0.63492463  1
  Al  Al21  1  0.11807662  0.75120200  0.31852164  1
  Al  Al22  1  0.78096661  0.75478445  0.80499425  1
  Al  Al23  1  0.89778631  0.86556323  0.55857156  1
  Al  Al24  1  0.43583585  0.75586177  0.39434361  1
  Al  Al25  1  0.56510353  0.87694552  0.04115761  1
  Al  Al26  1  0.11589407  0.75073951  0.80770809  1
  Al  Al27  1  0.22921637  0.87036376  0.63689842  1
  Al  Al28  1  0.89750395  0.85808836  0.04699699  1
  Al  Al29  1  0.44922311  0.75518069  0.87388239  1
  Al  Al30  1  0.55538231  0.87833292  0.56667205  1
  Gd  Gd31  1  0.76155609  0.08676081  0.80835463  1
  Gd  Gd32  1  0.78130370  0.09534355  0.30814541  1
  Gd  Gd33  1  0.11626383  0.41600087  0.30726896  1
  Gd  Gd34  1  0.22886471  0.88477558  0.12324162  1
  Gd  Gd35  1  0.76672715  0.75424608  0.30202751  1
  N  N36  1  0.23712173  0.18045327  0.39032591  1
  N  N37  1  0.09634619  0.12180602  0.04118110  1
  N  N38  1  0.89311792  0.21768450  0.82468455  1
  N  N39  1  0.77332661  0.09392861  0.58999575  1
  N  N40  1  0.52235708  0.22287106  0.37132549  1
  N  N41  1  0.43902564  0.09194320  0.11973256  1
  N  N42  1  0.22417796  0.21128103  0.85230584  1
  N  N43  1  0.11635587  0.08790802  0.59054913  1
  N  N44  1  0.90543252  0.21515133  0.37121389  1
  N  N45  1  0.77715449  0.09344106  0.07854185  1
  N  N46  1  0.51379725  0.22843183  0.88032468  1
  N  N47  1  0.44981264  0.09571102  0.62488321  1
  N  N48  1  0.24208612  0.54946657  0.38436675  1
  N  N49  1  0.11006323  0.42907589  0.08802721  1
  N  N50  1  0.89146529  0.53841578  0.85013313  1
  N  N51  1  0.76756176  0.43164404  0.58466083  1
  N  N52  1  0.56512383  0.54340812  0.31638960  1
  N  N53  1  0.43987607  0.42951609  0.12364897  1
  N  N54  1  0.22355217  0.54221315  0.86911164  1
  N  N55  1  0.11534920  0.42958527  0.61975063  1
  N  N56  1  0.88463356  0.53113974  0.39612151  1
  N  N57  1  0.77166696  0.43201671  0.04959198  1
  N  N58  1  0.55242669  0.54322707  0.81459644  1
  N  N59  1  0.44219601  0.42179437  0.62478963  1
  N  N60  1  0.22310245  0.87176938  0.33860257  1
  N  N61  1  0.09826460  0.74430083  0.13086227  1
  N  N62  1  0.91175532  0.83708844  0.87036438  1
  N  N63  1  0.77679182  0.76583720  0.62218458  1
  N  N64  1  0.53081760  0.88776368  0.38619087  1
  N  N65  1  0.47548056  0.74229441  0.05387980  1
  N  N66  1  0.22952562  0.87192953  0.82331489  1
  N  N67  1  0.11173691  0.75711762  0.62671288  1
  N  N68  1  0.91607874  0.84994299  0.38371667  1
  N  N69  1  0.77931097  0.75779288  0.08722617  1
  N  N70  1  0.55863906  0.88179613  0.85821538  1
  N  N71  1  0.44318646  0.75473924  0.57725597  1
