# generated using pymatgen
data_Gd5Al31N36
_symmetry_space_group_name_H-M   'P 1'
_cell_length_a   9.72707894
_cell_length_b   9.72818138
_cell_length_c   10.31004416
_cell_angle_alpha   90.03052456
_cell_angle_beta   90.48403183
_cell_angle_gamma   59.81890824
_symmetry_Int_Tables_number   1
_chemical_formula_structural   Gd5Al31N36
_chemical_formula_sum   'Gd5 Al31 N36'
_cell_volume   843.31602492
_cell_formula_units_Z   1
loop_
 _symmetry_equiv_pos_site_id
 _symmetry_equiv_pos_as_xyz
  1  'x, y, z'
loop_
 _atom_site_type_symbol
 _atom_site_label
 _atom_site_symmetry_multiplicity
 _atom_site_fract_x
 _atom_site_fract_y
 _atom_site_fract_z
 _atom_site_occupancy
  Al  Al0  1  0.11300360  0.09933988  0.31312617  1
  Al  Al1  1  0.22194673  0.21022186  0.05265340  1
  Al  Al2  1  0.89338503  0.20846296  0.55694904  1
  Al  Al3  1  0.43138516  0.09311064  0.31497281  1
  Al  Al4  1  0.54592179  0.21002766  0.05946430  1
  Al  Al5  1  0.11192486  0.10617685  0.81030091  1
  Al  Al6  1  0.22431089  0.20160233  0.56559211  1
  Al  Al7  1  0.89116503  0.21991346  0.06009351  1
  Al  Al8  1  0.43811401  0.09967383  0.80815647  1
  Al  Al9  1  0.54401583  0.21049218  0.55632383  1
  Al  Al10  1  0.22218657  0.53427693  0.05273793  1
  Al  Al11  1  0.78223248  0.42851433  0.80777051  1
  Al  Al12  1  0.88742944  0.53588596  0.57056005  1
  Al  Al13  1  0.44163770  0.43725587  0.31291818  1
  Al  Al14  1  0.56466955  0.53081367  0.05586718  1
  Al  Al15  1  0.11408456  0.42689701  0.81095941  1
  Al  Al16  1  0.22823374  0.54128721  0.56603593  1
  Al  Al17  1  0.77430047  0.42990317  0.31403470  1
  Al  Al18  1  0.88809996  0.53781855  0.04386429  1
  Al  Al19  1  0.44064054  0.42878592  0.81037375  1
  Al  Al20  1  0.56065878  0.52932058  0.56859392  1
  Al  Al21  1  0.11840465  0.75566770  0.31396063  1
  Al  Al22  1  0.78169860  0.75584907  0.80687543  1
  Al  Al23  1  0.89592527  0.86534254  0.56175461  1
  Al  Al24  1  0.42822001  0.76518033  0.37627619  1
  Al  Al25  1  0.56123788  0.87434464  0.04249832  1
  Al  Al26  1  0.11367275  0.74910045  0.80885265  1
  Al  Al27  1  0.22352400  0.87114656  0.63139142  1
  Al  Al28  1  0.89264682  0.85796774  0.04969610  1
  Al  Al29  1  0.45535185  0.75296072  0.83899789  1
  Al  Al30  1  0.55156890  0.87754196  0.57440194  1
  Gd  Gd31  1  0.77544264  0.10015465  0.81661345  1
  Gd  Gd32  1  0.77634384  0.09639996  0.31438625  1
  Gd  Gd33  1  0.11654356  0.42843268  0.31180684  1
  Gd  Gd34  1  0.21920737  0.87384737  0.08003075  1
  Gd  Gd35  1  0.76220352  0.76138715  0.30735973  1
  N  N36  1  0.22944932  0.18330403  0.38444737  1
  N  N37  1  0.09783064  0.13346929  0.12853002  1
  N  N38  1  0.90762585  0.22270086  0.87763618  1
  N  N39  1  0.77526628  0.09669627  0.58831873  1
  N  N40  1  0.51612931  0.22351279  0.37201989  1
  N  N41  1  0.44502218  0.09048403  0.12138466  1
  N  N42  1  0.22544362  0.20384196  0.86596533  1
  N  N43  1  0.10873496  0.09842964  0.62466644  1
  N  N44  1  0.90248077  0.21931361  0.37483659  1
  N  N45  1  0.78189508  0.09264727  0.08440070  1
  N  N46  1  0.52123911  0.22184945  0.87766463  1
  N  N47  1  0.44325126  0.09812771  0.62468677  1
  N  N48  1  0.24146882  0.55500303  0.38547145  1
  N  N49  1  0.11060575  0.42808135  0.08923075  1
  N  N50  1  0.88918547  0.53760795  0.85736428  1
  N  N51  1  0.77913727  0.42277583  0.62424031  1
  N  N52  1  0.55807416  0.53570969  0.37673563  1
  N  N53  1  0.44432103  0.43058941  0.12179703  1
  N  N54  1  0.22630193  0.53781542  0.86627137  1
  N  N55  1  0.11499483  0.42745339  0.61861057  1
  N  N56  1  0.87556182  0.52688975  0.39011839  1
  N  N57  1  0.77691470  0.43293775  0.12326442  1
  N  N58  1  0.56467526  0.52376453  0.86506332  1
  N  N59  1  0.44789212  0.42436531  0.62488391  1
  N  N60  1  0.21879523  0.87552166  0.32594531  1
  N  N61  1  0.09546386  0.73646910  0.12831544  1
  N  N62  1  0.90657656  0.84263358  0.86694244  1
  N  N63  1  0.77778337  0.76169924  0.61883365  1
  N  N64  1  0.52317534  0.88879529  0.39061537  1
  N  N65  1  0.47456380  0.74731030  0.06736213  1
  N  N66  1  0.22251379  0.87250268  0.83411466  1
  N  N67  1  0.11182754  0.75794569  0.62564802  1
  N  N68  1  0.91651614  0.84899095  0.38283942  1
  N  N69  1  0.77682615  0.75832096  0.08833761  1
  N  N70  1  0.55886595  0.87819147  0.85456515  1
  N  N71  1  0.44735703  0.75463014  0.61048361  1
