# generated using pymatgen
data_Gd5Al31N36
_symmetry_space_group_name_H-M   'P 1'
_cell_length_a   9.70153998
_cell_length_b   9.67263614
_cell_length_c   10.29073605
_cell_angle_alpha   90.00447365
_cell_angle_beta   90.22046283
_cell_angle_gamma   59.95397068
_symmetry_Int_Tables_number   1
_chemical_formula_structural   Gd5Al31N36
_chemical_formula_sum   'Gd5 Al31 N36'
_cell_volume   835.90470831
_cell_formula_units_Z   1
loop_
 _symmetry_equiv_pos_site_id
 _symmetry_equiv_pos_as_xyz
  1  'x, y, z'
loop_
 _atom_site_type_symbol
 _atom_site_label
 _atom_site_symmetry_multiplicity
 _atom_site_fract_x
 _atom_site_fract_y
 _atom_site_fract_z
 _atom_site_occupancy
  Al  Al0  1  0.11419128  0.09724939  0.30261613  1
  Al  Al1  1  0.22135711  0.20804790  0.03689009  1
  Al  Al2  1  0.89127510  0.21046544  0.54290889  1
  Al  Al3  1  0.43298835  0.09268737  0.30026459  1
  Al  Al4  1  0.54449224  0.21071367  0.04413924  1
  Al  Al5  1  0.11525888  0.09641061  0.78942370  1
  Al  Al6  1  0.22462687  0.20143226  0.55190243  1
  Al  Al7  1  0.89270024  0.21643456  0.04374418  1
  Al  Al8  1  0.43671572  0.09747196  0.79541471  1
  Al  Al9  1  0.54333655  0.21124793  0.54314118  1
  Al  Al10  1  0.22127666  0.53624865  0.03714783  1
  Al  Al11  1  0.77874993  0.43142466  0.79512992  1
  Al  Al12  1  0.88613478  0.53686685  0.55762724  1
  Al  Al13  1  0.44185963  0.43579442  0.29846902  1
  Al  Al14  1  0.56371942  0.53558356  0.04927243  1
  Al  Al15  1  0.11379360  0.42724209  0.79600855  1
  Al  Al16  1  0.22816576  0.54121637  0.55217718  1
  Al  Al17  1  0.77688261  0.42786304  0.29862202  1
  Al  Al18  1  0.89020931  0.53594254  0.02765538  1
  Al  Al19  1  0.43895712  0.43346588  0.79774372  1
  Al  Al20  1  0.55765535  0.53503541  0.54743193  1
  Al  Al21  1  0.11901141  0.75575769  0.30346777  1
  Al  Al22  1  0.77856147  0.75685346  0.79558166  1
  Al  Al23  1  0.89389562  0.86612782  0.54829471  1
  Al  Al24  1  0.44614400  0.75811298  0.30543651  1
  Al  Al25  1  0.55850416  0.87060840  0.03589101  1
  Al  Al26  1  0.11734480  0.75625971  0.78760890  1
  Al  Al27  1  0.22221946  0.87197047  0.54510509  1
  Al  Al28  1  0.89313222  0.85977121  0.03259895  1
  Al  Al29  1  0.44490400  0.75905987  0.78893458  1
  Al  Al30  1  0.55004095  0.87558790  0.55330127  1
  Gd  Gd31  1  0.77341038  0.10148945  0.80050041  1
  Gd  Gd32  1  0.77496340  0.09748082  0.29950069  1
  Gd  Gd33  1  0.11746350  0.42665908  0.29744125  1
  Gd  Gd34  1  0.22408661  0.86993396  0.05520629  1
  Gd  Gd35  1  0.76742525  0.75899846  0.28986673  1
  N  N36  1  0.23143846  0.18213225  0.37029873  1
  N  N37  1  0.10045511  0.12459858  0.11694984  1
  N  N38  1  0.90832613  0.22181980  0.86077824  1
  N  N39  1  0.77354466  0.09797881  0.57327199  1
  N  N40  1  0.51590490  0.22351151  0.35845346  1
  N  N41  1  0.44323480  0.09102021  0.10678726  1
  N  N42  1  0.22267263  0.20256842  0.84975462  1
  N  N43  1  0.10968397  0.09399690  0.60361444  1
  N  N44  1  0.90326808  0.21837954  0.36039384  1
  N  N45  1  0.77986146  0.09329281  0.06900911  1
  N  N46  1  0.51848262  0.22388010  0.86275823  1
  N  N47  1  0.44407910  0.09555154  0.61087946  1
  N  N48  1  0.24172284  0.55309864  0.37087637  1
  N  N49  1  0.11107343  0.42726490  0.07409844  1
  N  N50  1  0.88952132  0.53736983  0.84220476  1
  N  N51  1  0.77487081  0.42546769  0.61068156  1
  N  N52  1  0.56021385  0.53339869  0.35818336  1
  N  N53  1  0.44264371  0.43201759  0.10727125  1
  N  N54  1  0.22340812  0.54266183  0.85028373  1
  N  N55  1  0.11453712  0.42771460  0.60407610  1
  N  N56  1  0.87628905  0.52612766  0.37675938  1
  N  N57  1  0.78035819  0.43038457  0.10713776  1
  N  N58  1  0.55687931  0.53868029  0.85818457  1
  N  N59  1  0.44804599  0.42696034  0.61105802  1
  N  N60  1  0.22211456  0.87300448  0.34798640  1
  N  N61  1  0.09624769  0.74142097  0.11706771  1
  N  N62  1  0.90799839  0.84330536  0.84936969  1
  N  N63  1  0.77454035  0.76324368  0.60605105  1
  N  N64  1  0.52674675  0.88600570  0.37121583  1
  N  N65  1  0.47954145  0.74627970  0.11885371  1
  N  N66  1  0.22330273  0.87254117  0.83538712  1
  N  N67  1  0.11344363  0.76180878  0.60445952  1
  N  N68  1  0.91580538  0.85070286  0.36891254  1
  N  N69  1  0.77803996  0.75753637  0.06980901  1
  N  N70  1  0.55119908  0.87376716  0.84829558  1
  N  N71  1  0.44505064  0.75699082  0.60236112  1
