# generated using pymatgen
data_Gd5Al31N36
_symmetry_space_group_name_H-M   'P 1'
_cell_length_a   9.71079067
_cell_length_b   9.71057296
_cell_length_c   10.53635439
_cell_angle_alpha   91.11045792
_cell_angle_beta   90.74053817
_cell_angle_gamma   59.93832938
_symmetry_Int_Tables_number   1
_chemical_formula_structural   Gd5Al31N36
_chemical_formula_sum   'Gd5 Al31 N36'
_cell_volume   859.73707629
_cell_formula_units_Z   1
loop_
 _symmetry_equiv_pos_site_id
 _symmetry_equiv_pos_as_xyz
  1  'x, y, z'
loop_
 _atom_site_type_symbol
 _atom_site_label
 _atom_site_symmetry_multiplicity
 _atom_site_fract_x
 _atom_site_fract_y
 _atom_site_fract_z
 _atom_site_occupancy
  Al  Al0  1  0.11457037  0.08544701  0.40722434  1
  Al  Al1  1  0.22589141  0.21666637  0.05108243  1
  Al  Al2  1  0.89127206  0.21163704  0.64103112  1
  Al  Al3  1  0.43248254  0.08754205  0.31837710  1
  Al  Al4  1  0.54529561  0.20902422  0.09424350  1
  Al  Al5  1  0.10989008  0.09898572  0.87946024  1
  Al  Al6  1  0.22799342  0.19966231  0.58120439  1
  Al  Al7  1  0.89670986  0.22350881  0.13287341  1
  Al  Al8  1  0.43842506  0.09483547  0.82026181  1
  Al  Al9  1  0.54873790  0.20698140  0.59057880  1
  Al  Al10  1  0.22729510  0.54684741  0.13682178  1
  Al  Al11  1  0.77431862  0.43107076  0.88341767  1
  Al  Al12  1  0.88520239  0.53895617  0.58194130  1
  Al  Al13  1  0.43770864  0.43847541  0.38167775  1
  Al  Al14  1  0.56602352  0.53804357  0.13732889  1
  Al  Al15  1  0.10897642  0.42271162  0.81455729  1
  Al  Al16  1  0.22746643  0.53707014  0.64266257  1
  Al  Al17  1  0.77184980  0.42677451  0.39796083  1
  Al  Al18  1  0.89891246  0.54295617  0.04908243  1
  Al  Al19  1  0.43329938  0.43479486  0.89827418  1
  Al  Al20  1  0.55340818  0.53305456  0.64270103  1
  Al  Al21  1  0.12695831  0.75439141  0.40743600  1
  Al  Al22  1  0.77717625  0.75580429  0.81560177  1
  Al  Al23  1  0.88931530  0.86721665  0.58066701  1
  Al  Al24  1  0.43841157  0.75612581  0.40705762  1
  Al  Al25  1  0.56318155  0.87337350  0.05036214  1
  Al  Al26  1  0.12124425  0.74682509  0.88297387  1
  Al  Al27  1  0.22325862  0.86857535  0.64710146  1
  Al  Al28  1  0.89003211  0.86453326  0.05592938  1
  Al  Al29  1  0.44750979  0.75143081  0.88176299  1
  Al  Al30  1  0.55370109  0.87536580  0.57951286  1
  Gd  Gd31  1  0.77143224  0.10208613  0.85199773  1
  Gd  Gd32  1  0.77828758  0.10172989  0.34054794  1
  Gd  Gd33  1  0.11353781  0.41172443  0.32708798  1
  Gd  Gd34  1  0.22685406  0.87943923  0.14161080  1
  Gd  Gd35  1  0.76788347  0.76007265  0.31430547  1
  N  N36  1  0.24201513  0.17457090  0.40287251  1
  N  N37  1  0.09706931  0.12196599  0.06039575  1
  N  N38  1  0.90493770  0.22768173  0.81745714  1
  N  N39  1  0.77141394  0.09811756  0.61262386  1
  N  N40  1  0.51565367  0.22468008  0.33800771  1
  N  N41  1  0.43712474  0.08511941  0.12787276  1
  N  N42  1  0.22486326  0.20755237  0.86770083  1
  N  N43  1  0.10709405  0.08767537  0.59046459  1
  N  N44  1  0.91864045  0.22668244  0.31826436  1
  N  N45  1  0.78322095  0.09339047  0.10611922  1
  N  N46  1  0.51860390  0.21587620  0.89450779  1
  N  N47  1  0.44559410  0.09481146  0.63831606  1
  N  N48  1  0.23286105  0.56271979  0.31989286  1
  N  N49  1  0.11482976  0.43110055  0.10751740  1
  N  N50  1  0.89037177  0.53980788  0.86662301  1
  N  N51  1  0.76731179  0.42184512  0.58246587  1
  N  N52  1  0.55994713  0.53912333  0.32828120  1
  N  N53  1  0.44421072  0.43966684  0.08276530  1
  N  N54  1  0.22875108  0.53473607  0.82399910  1
  N  N55  1  0.10899806  0.42238636  0.62812374  1
  N  N56  1  0.87676225  0.53700548  0.40546456  1
  N  N57  1  0.77764132  0.43168195  0.07066687  1
  N  N58  1  0.55473526  0.52957752  0.82614133  1
  N  N59  1  0.43956151  0.42994798  0.57233850  1
  N  N60  1  0.22229156  0.87122163  0.35780630  1
  N  N61  1  0.11170429  0.74691126  0.06562746  1
  N  N62  1  0.89953046  0.84482893  0.87116192  1
  N  N63  1  0.77459842  0.76112381  0.63313538  1
  N  N64  1  0.53037570  0.88660241  0.39738410  1
  N  N65  1  0.47316538  0.74209481  0.06462667  1
  N  N66  1  0.22251031  0.87097434  0.83296190  1
  N  N67  1  0.12089763  0.75219602  0.59340172  1
  N  N68  1  0.90842716  0.85635438  0.40046555  1
  N  N69  1  0.77961673  0.76098635  0.09882431  1
  N  N70  1  0.55535723  0.87467041  0.86708752  1
  N  N71  1  0.44432441  0.75267864  0.59234478  1
