# generated using pymatgen
data_Gd5Al31N36
_symmetry_space_group_name_H-M   'P 1'
_cell_length_a   9.74894988
_cell_length_b   9.70153019
_cell_length_c   10.29403406
_cell_angle_alpha   90.45076960
_cell_angle_beta   90.18358021
_cell_angle_gamma   59.79437121
_symmetry_Int_Tables_number   1
_chemical_formula_structural   Gd5Al31N36
_chemical_formula_sum   'Gd5 Al31 N36'
_cell_volume   841.38950110
_cell_formula_units_Z   1
loop_
 _symmetry_equiv_pos_site_id
 _symmetry_equiv_pos_as_xyz
  1  'x, y, z'
loop_
 _atom_site_type_symbol
 _atom_site_label
 _atom_site_symmetry_multiplicity
 _atom_site_fract_x
 _atom_site_fract_y
 _atom_site_fract_z
 _atom_site_occupancy
  Al  Al0  1  0.11421285  0.09551629  0.40976973  1
  Al  Al1  1  0.22244591  0.20294222  0.13967078  1
  Al  Al2  1  0.89078339  0.20742894  0.65412990  1
  Al  Al3  1  0.42963171  0.08875912  0.39192787  1
  Al  Al4  1  0.54051738  0.21209631  0.15015643  1
  Al  Al5  1  0.11263416  0.09992743  0.89270557  1
  Al  Al6  1  0.22252804  0.20389628  0.65532352  1
  Al  Al7  1  0.89111823  0.21805360  0.15161971  1
  Al  Al8  1  0.43755938  0.09604302  0.89689132  1
  Al  Al9  1  0.54454149  0.20699655  0.64761702  1
  Al  Al10  1  0.22816724  0.54361742  0.13918863  1
  Al  Al11  1  0.77677855  0.42988803  0.89679207  1
  Al  Al12  1  0.88884372  0.53228912  0.59581059  1
  Al  Al13  1  0.44286487  0.43775861  0.39476337  1
  Al  Al14  1  0.56300177  0.53449854  0.14572064  1
  Al  Al15  1  0.11950489  0.42455442  0.89375971  1
  Al  Al16  1  0.22390442  0.53568726  0.65566904  1
  Al  Al17  1  0.77288582  0.42522777  0.40320779  1
  Al  Al18  1  0.89112796  0.54036882  0.08176483  1
  Al  Al19  1  0.44024635  0.43072207  0.89643296  1
  Al  Al20  1  0.55534844  0.53347006  0.65020156  1
  Al  Al21  1  0.12472180  0.75994663  0.40917824  1
  Al  Al22  1  0.77690915  0.76033410  0.89006674  1
  Al  Al23  1  0.89304611  0.86242133  0.65786519  1
  Al  Al24  1  0.44355186  0.75791734  0.40823823  1
  Al  Al25  1  0.55287302  0.87182370  0.13838397  1
  Al  Al26  1  0.11544244  0.75411346  0.89227422  1
  Al  Al27  1  0.22333122  0.87104820  0.64465166  1
  Al  Al28  1  0.89663848  0.86567480  0.14573820  1
  Al  Al29  1  0.44823084  0.75606339  0.89268948  1
  Al  Al30  1  0.55400333  0.87050654  0.65562767  1
  Gd  Gd31  1  0.77320424  0.09953252  0.89730272  1
  Gd  Gd32  1  0.77302605  0.10400064  0.38903399  1
  Gd  Gd33  1  0.13488976  0.42184226  0.38256045  1
  Gd  Gd34  1  0.22420094  0.87354404  0.15866035  1
  Gd  Gd35  1  0.76502594  0.77736699  0.39021361  1
  N  N36  1  0.22772772  0.17296039  0.32274647  1
  N  N37  1  0.09605351  0.12024517  0.07533710  1
  N  N38  1  0.90218269  0.22165158  0.83378680  1
  N  N39  1  0.77679883  0.09085967  0.61935781  1
  N  N40  1  0.50732894  0.22513117  0.33413022  1
  N  N41  1  0.44328348  0.09369251  0.08254368  1
  N  N42  1  0.22439911  0.20358300  0.84069144  1
  N  N43  1  0.10950750  0.09826534  0.59662177  1
  N  N44  1  0.90757052  0.21963057  0.33588430  1
  N  N45  1  0.77273849  0.10091191  0.12488368  1
  N  N46  1  0.52065048  0.22057791  0.83062406  1
  N  N47  1  0.44192320  0.08860197  0.58419142  1
  N  N48  1  0.24526938  0.56758926  0.32106362  1
  N  N49  1  0.12086029  0.42626376  0.09802778  1
  N  N50  1  0.89285677  0.53723519  0.88816898  1
  N  N51  1  0.77060146  0.42028360  0.59273245  1
  N  N52  1  0.56109603  0.53561709  0.33826605  1
  N  N53  1  0.44916029  0.42741468  0.08335939  1
  N  N54  1  0.22648243  0.53670528  0.84048051  1
  N  N55  1  0.11533576  0.42382079  0.61064629  1
  N  N56  1  0.88215984  0.52878634  0.39857261  1
  N  N57  1  0.77574393  0.42760269  0.08803118  1
  N  N58  1  0.55744607  0.53294035  0.83651014  1
  N  N59  1  0.44139034  0.42800709  0.58493911  1
  N  N60  1  0.22440941  0.87501827  0.38072094  1
  N  N61  1  0.10147539  0.75114684  0.07271597  1
  N  N62  1  0.90329127  0.84496252  0.83854488  1
  N  N63  1  0.77493782  0.75960270  0.61456298  1
  N  N64  1  0.51822565  0.87993696  0.32217639  1
  N  N65  1  0.47085584  0.74359352  0.07536328  1
  N  N66  1  0.22308040  0.87181739  0.83866225  1
  N  N67  1  0.11168292  0.75490144  0.59635310  1
  N  N68  1  0.93082021  0.85607641  0.32577476  1
  N  N69  1  0.77417169  0.76929643  0.09659740  1
  N  N70  1  0.55355784  0.87394316  0.84147103  1
  N  N71  1  0.45082801  0.75489272  0.59659270  1
