# generated using pymatgen
data_Gd5Al31N36
_symmetry_space_group_name_H-M   'P 1'
_cell_length_a   9.72358111
_cell_length_b   9.71479627
_cell_length_c   10.30335181
_cell_angle_alpha   90.01482025
_cell_angle_beta   90.43757260
_cell_angle_gamma   59.82974796
_symmetry_Int_Tables_number   1
_chemical_formula_structural   Gd5Al31N36
_chemical_formula_sum   'Gd5 Al31 N36'
_cell_volume   841.40499984
_cell_formula_units_Z   1
loop_
 _symmetry_equiv_pos_site_id
 _symmetry_equiv_pos_as_xyz
  1  'x, y, z'
loop_
 _atom_site_type_symbol
 _atom_site_label
 _atom_site_symmetry_multiplicity
 _atom_site_fract_x
 _atom_site_fract_y
 _atom_site_fract_z
 _atom_site_occupancy
  Al  Al0  1  0.11308976  0.09874343  0.31335778  1
  Al  Al1  1  0.22230778  0.20984453  0.05286919  1
  Al  Al2  1  0.89263344  0.20921002  0.55701900  1
  Al  Al3  1  0.43140334  0.09306158  0.31537992  1
  Al  Al4  1  0.54608354  0.20981476  0.05957375  1
  Al  Al5  1  0.11212668  0.10561390  0.81001356  1
  Al  Al6  1  0.22456336  0.20154756  0.56566778  1
  Al  Al7  1  0.89139084  0.21937435  0.05991373  1
  Al  Al8  1  0.43817961  0.09861380  0.80924651  1
  Al  Al9  1  0.54424438  0.21045720  0.55696628  1
  Al  Al10  1  0.22242811  0.53421150  0.05290393  1
  Al  Al11  1  0.78135565  0.42957918  0.80859244  1
  Al  Al12  1  0.88698883  0.53623864  0.57095734  1
  Al  Al13  1  0.44151592  0.43660366  0.31312922  1
  Al  Al14  1  0.56374296  0.53413278  0.05971936  1
  Al  Al15  1  0.11425573  0.42684693  0.81095455  1
  Al  Al16  1  0.22846783  0.54108891  0.56597194  1
  Al  Al17  1  0.77470804  0.42964342  0.31369565  1
  Al  Al18  1  0.88901992  0.53711842  0.04388131  1
  Al  Al19  1  0.44059570  0.43003392  0.81140041  1
  Al  Al20  1  0.55882974  0.53300615  0.56590851  1
  Al  Al21  1  0.11834136  0.75599786  0.31424461  1
  Al  Al22  1  0.78092486  0.75581727  0.80821954  1
  Al  Al23  1  0.89524282  0.86534957  0.56187397  1
  Al  Al24  1  0.43555007  0.76251635  0.33622596  1
  Al  Al25  1  0.55982025  0.87148649  0.04659391  1
  Al  Al26  1  0.11402054  0.74958639  0.80845075  1
  Al  Al27  1  0.22286128  0.87168692  0.62483436  1
  Al  Al28  1  0.89277409  0.85808260  0.04937947  1
  Al  Al29  1  0.45564514  0.75285445  0.81491026  1
  Al  Al30  1  0.55017289  0.87607836  0.57210279  1
  Gd  Gd31  1  0.77554140  0.10008323  0.81638928  1
  Gd  Gd32  1  0.77653160  0.09631816  0.31440070  1
  Gd  Gd33  1  0.11610931  0.42856104  0.31195335  1
  Gd  Gd34  1  0.21967929  0.87345514  0.07594188  1
  Gd  Gd35  1  0.76234963  0.76132936  0.30648849  1
  N  N36  1  0.22937559  0.18343750  0.38453277  1
  N  N37  1  0.09841947  0.13195915  0.12825646  1
  N  N38  1  0.90723520  0.22299553  0.87730116  1
  N  N39  1  0.77530095  0.09672390  0.58835962  1
  N  N40  1  0.51641481  0.22307788  0.37263951  1
  N  N41  1  0.44502282  0.09054467  0.12172883  1
  N  N42  1  0.22529194  0.20376191  0.86604875  1
  N  N43  1  0.10843771  0.09861869  0.62436325  1
  N  N44  1  0.90242932  0.21949330  0.37492683  1
  N  N45  1  0.78189108  0.09251038  0.08431996  1
  N  N46  1  0.52130496  0.22197987  0.87756009  1
  N  N47  1  0.44384070  0.09682224  0.62528659  1
  N  N48  1  0.24129054  0.55454984  0.38536127  1
  N  N49  1  0.11096181  0.42783001  0.08934296  1
  N  N50  1  0.88967436  0.53728250  0.85738131  1
  N  N51  1  0.77757591  0.42376318  0.62463469  1
  N  N52  1  0.55773800  0.53626209  0.37567890  1
  N  N53  1  0.44433501  0.43044824  0.12194846  1
  N  N54  1  0.22614911  0.53812170  0.86632562  1
  N  N55  1  0.11499965  0.42750229  0.61866058  1
  N  N56  1  0.87510691  0.52724742  0.39044798  1
  N  N57  1  0.77822826  0.43194665  0.12283766  1
  N  N58  1  0.56173817  0.53051188  0.86940763  1
  N  N59  1  0.44834629  0.42540231  0.62535873  1
  N  N60  1  0.21688633  0.87634835  0.32876768  1
  N  N61  1  0.09583673  0.73722113  0.12809805  1
  N  N62  1  0.90653293  0.84269819  0.86647635  1
  N  N63  1  0.77651954  0.76231526  0.61959354  1
  N  N64  1  0.52222270  0.88719229  0.38992627  1
  N  N65  1  0.47731015  0.74686136  0.10841896  1
  N  N66  1  0.22334979  0.87217583  0.83589074  1
  N  N67  1  0.11178732  0.75818849  0.62518887  1
  N  N68  1  0.91612727  0.84871305  0.38295028  1
  N  N69  1  0.77763409  0.75772535  0.08724497  1
  N  N70  1  0.55616945  0.87546981  0.85932769  1
  N  N71  1  0.45012410  0.75379563  0.62413762  1
