# generated using pymatgen
data_Gd5Al31N36
_symmetry_space_group_name_H-M   'P 1'
_cell_length_a   9.74409315
_cell_length_b   9.70683206
_cell_length_c   10.28412077
_cell_angle_alpha   90.41419269
_cell_angle_beta   90.15915481
_cell_angle_gamma   59.80732202
_symmetry_Int_Tables_number   1
_chemical_formula_structural   Gd5Al31N36
_chemical_formula_sum   'Gd5 Al31 N36'
_cell_volume   840.73416732
_cell_formula_units_Z   1
loop_
 _symmetry_equiv_pos_site_id
 _symmetry_equiv_pos_as_xyz
  1  'x, y, z'
loop_
 _atom_site_type_symbol
 _atom_site_label
 _atom_site_symmetry_multiplicity
 _atom_site_fract_x
 _atom_site_fract_y
 _atom_site_fract_z
 _atom_site_occupancy
  Al  Al0  1  0.11409147  0.09486630  0.40960444  1
  Al  Al1  1  0.22225851  0.20252407  0.13980806  1
  Al  Al2  1  0.89094980  0.20848794  0.65351323  1
  Al  Al3  1  0.43015867  0.08792403  0.39197901  1
  Al  Al4  1  0.54018386  0.21221487  0.14970637  1
  Al  Al5  1  0.11241088  0.10031210  0.89263981  1
  Al  Al6  1  0.22250998  0.20388091  0.65568635  1
  Al  Al7  1  0.89062518  0.21692412  0.15171990  1
  Al  Al8  1  0.43751223  0.09627041  0.89679152  1
  Al  Al9  1  0.54391946  0.20784262  0.64777635  1
  Al  Al10  1  0.22783636  0.54352596  0.13915637  1
  Al  Al11  1  0.77683809  0.43066418  0.89736575  1
  Al  Al12  1  0.88902375  0.53289455  0.59663656  1
  Al  Al13  1  0.44294263  0.43806748  0.39441922  1
  Al  Al14  1  0.56263075  0.53450955  0.14575703  1
  Al  Al15  1  0.11898669  0.42503625  0.89446275  1
  Al  Al16  1  0.22357899  0.53635231  0.65591426  1
  Al  Al17  1  0.77391498  0.42446543  0.40153270  1
  Al  Al18  1  0.89187943  0.53858550  0.08475745  1
  Al  Al19  1  0.43991376  0.43141470  0.89637508  1
  Al  Al20  1  0.55571311  0.53398315  0.64971303  1
  Al  Al21  1  0.12445397  0.75989081  0.40913221  1
  Al  Al22  1  0.77658984  0.76119049  0.89593486  1
  Al  Al23  1  0.89221742  0.86226707  0.65799497  1
  Al  Al24  1  0.44388563  0.75780617  0.40839543  1
  Al  Al25  1  0.55186536  0.87228645  0.13834275  1
  Al  Al26  1  0.11482681  0.75453437  0.89185022  1
  Al  Al27  1  0.22323035  0.87135713  0.64431405  1
  Al  Al28  1  0.89648159  0.86654319  0.14490737  1
  Al  Al29  1  0.44826473  0.75637717  0.89218337  1
  Al  Al30  1  0.55526414  0.87030451  0.65545254  1
  Gd  Gd31  1  0.77306306  0.10062951  0.89566785  1
  Gd  Gd32  1  0.77204647  0.10300941  0.38999910  1
  Gd  Gd33  1  0.13790562  0.41966878  0.38392235  1
  Gd  Gd34  1  0.22395065  0.87304611  0.15869480  1
  Gd  Gd35  1  0.76716172  0.77438915  0.38666116  1
  N  N36  1  0.22800722  0.17187741  0.32274054  1
  N  N37  1  0.09570195  0.11983579  0.07547493  1
  N  N38  1  0.90221872  0.22316598  0.83320856  1
  N  N39  1  0.77660633  0.09162998  0.62038542  1
  N  N40  1  0.50642585  0.22566348  0.33388194  1
  N  N41  1  0.44308906  0.09355094  0.08251394  1
  N  N42  1  0.22422734  0.20397848  0.84096569  1
  N  N43  1  0.10966127  0.09846671  0.59645997  1
  N  N44  1  0.90702058  0.21761488  0.33621512  1
  N  N45  1  0.77208529  0.10076353  0.12365913  1
  N  N46  1  0.51991373  0.22151130  0.83075485  1
  N  N47  1  0.44188221  0.08902357  0.58444176  1
  N  N48  1  0.24503890  0.56784747  0.32091550  1
  N  N49  1  0.12157823  0.42544216  0.09793622  1
  N  N50  1  0.89242655  0.53813489  0.88943874  1
  N  N51  1  0.77125204  0.42154464  0.59125617  1
  N  N52  1  0.56111686  0.53581973  0.33827772  1
  N  N53  1  0.44888457  0.42764916  0.08334024  1
  N  N54  1  0.22607699  0.53719513  0.84055406  1
  N  N55  1  0.11469923  0.42428473  0.61130452  1
  N  N56  1  0.88502154  0.52578900  0.39101449  1
  N  N57  1  0.77561954  0.42679099  0.08868834  1
  N  N58  1  0.55765433  0.53317117  0.83621107  1
  N  N59  1  0.44122505  0.42857033  0.58478994  1
  N  N60  1  0.22475222  0.87445296  0.38111627  1
  N  N61  1  0.10131277  0.75087971  0.07234427  1
  N  N62  1  0.90196733  0.84522935  0.83905469  1
  N  N63  1  0.77525413  0.75966418  0.61078571  1
  N  N64  1  0.51859190  0.87965820  0.32219602  1
  N  N65  1  0.47077033  0.74349847  0.07515354  1
  N  N66  1  0.22270415  0.87228733  0.83844423  1
  N  N67  1  0.11108095  0.75531642  0.59655648  1
  N  N68  1  0.93106573  0.85669754  0.32487483  1
  N  N69  1  0.77398703  0.76911433  0.09696620  1
  N  N70  1  0.55450576  0.87397675  0.84176372  1
  N  N71  1  0.45110525  0.75532123  0.59684170  1
