# generated using pymatgen
data_Gd5Al31N36
_symmetry_space_group_name_H-M   'P 1'
_cell_length_a   9.75763663
_cell_length_b   9.70062393
_cell_length_c   10.29253928
_cell_angle_alpha   90.43826001
_cell_angle_beta   90.17102856
_cell_angle_gamma   59.77359437
_symmetry_Int_Tables_number   1
_chemical_formula_structural   Gd5Al31N36
_chemical_formula_sum   'Gd5 Al31 N36'
_cell_volume   841.76181083
_cell_formula_units_Z   1
loop_
 _symmetry_equiv_pos_site_id
 _symmetry_equiv_pos_as_xyz
  1  'x, y, z'
loop_
 _atom_site_type_symbol
 _atom_site_label
 _atom_site_symmetry_multiplicity
 _atom_site_fract_x
 _atom_site_fract_y
 _atom_site_fract_z
 _atom_site_occupancy
  Al  Al0  1  0.11421783  0.09575723  0.40965151  1
  Al  Al1  1  0.22229493  0.20324167  0.13938767  1
  Al  Al2  1  0.89068794  0.20703617  0.65443469  1
  Al  Al3  1  0.42892567  0.08946602  0.39174106  1
  Al  Al4  1  0.54043175  0.21195549  0.15030469  1
  Al  Al5  1  0.11262510  0.09973710  0.89278167  1
  Al  Al6  1  0.22231375  0.20414148  0.65540735  1
  Al  Al7  1  0.89132922  0.21884963  0.15148297  1
  Al  Al8  1  0.43778645  0.09566137  0.89719707  1
  Al  Al9  1  0.54479201  0.20679195  0.64762779  1
  Al  Al10  1  0.22804745  0.54369509  0.13896741  1
  Al  Al11  1  0.77669739  0.42905770  0.89721359  1
  Al  Al12  1  0.88940565  0.53081862  0.59580529  1
  Al  Al13  1  0.44259211  0.43772731  0.39469364  1
  Al  Al14  1  0.56333082  0.53451438  0.14557165  1
  Al  Al15  1  0.12021344  0.42397740  0.89483257  1
  Al  Al16  1  0.22427945  0.53520737  0.65576070  1
  Al  Al17  1  0.77261581  0.42576477  0.40360105  1
  Al  Al18  1  0.88861567  0.54496570  0.08053257  1
  Al  Al19  1  0.44057670  0.43027786  0.89653022  1
  Al  Al20  1  0.55530010  0.53309498  0.65036439  1
  Al  Al21  1  0.12529762  0.76008243  0.40924275  1
  Al  Al22  1  0.77845180  0.75613866  0.86627774  1
  Al  Al23  1  0.89509334  0.86378791  0.65629395  1
  Al  Al24  1  0.44327042  0.75790138  0.40800859  1
  Al  Al25  1  0.55443627  0.87082835  0.13940754  1
  Al  Al26  1  0.11605931  0.75371273  0.89277111  1
  Al  Al27  1  0.22348570  0.87089219  0.64487886  1
  Al  Al28  1  0.89649018  0.86477112  0.14760009  1
  Al  Al29  1  0.44823642  0.75582440  0.89319803  1
  Al  Al30  1  0.55058896  0.87201454  0.65421215  1
  Gd  Gd31  1  0.77349205  0.09801377  0.89877837  1
  Gd  Gd32  1  0.77268258  0.10560346  0.38819253  1
  Gd  Gd33  1  0.13349935  0.42289787  0.38182413  1
  Gd  Gd34  1  0.22428294  0.87372452  0.15849403  1
  Gd  Gd35  1  0.76437522  0.77845736  0.39042877  1
  N  N36  1  0.22725007  0.17374971  0.32263563  1
  N  N37  1  0.09612838  0.12038522  0.07527697  1
  N  N38  1  0.90193025  0.22064805  0.83420891  1
  N  N39  1  0.77672815  0.09084585  0.61845359  1
  N  N40  1  0.50691057  0.22528338  0.33415775  1
  N  N41  1  0.44347392  0.09333732  0.08268928  1
  N  N42  1  0.22457729  0.20330983  0.84079347  1
  N  N43  1  0.10948688  0.09822391  0.59679009  1
  N  N44  1  0.90791579  0.22071523  0.33575173  1
  N  N45  1  0.77286415  0.10115031  0.12587619  1
  N  N46  1  0.52135323  0.21981063  0.83072112  1
  N  N47  1  0.44159248  0.08899099  0.58395011  1
  N  N48  1  0.24516003  0.56761392  0.32101781  1
  N  N49  1  0.12016117  0.42681843  0.09722886  1
  N  N50  1  0.89295133  0.53668975  0.88696676  1
  N  N51  1  0.77038908  0.41969922  0.59331903  1
  N  N52  1  0.56115748  0.53537092  0.33827925  1
  N  N53  1  0.44919676  0.42742111  0.08338241  1
  N  N54  1  0.22677365  0.53628372  0.84068717  1
  N  N55  1  0.11576540  0.42363917  0.61040792  1
  N  N56  1  0.88105102  0.53016944  0.40186796  1
  N  N57  1  0.77592134  0.42826341  0.08756463  1
  N  N58  1  0.55748425  0.53283334  0.83664389  1
  N  N59  1  0.44153202  0.42775919  0.58506552  1
  N  N60  1  0.22447586  0.87528558  0.38044262  1
  N  N61  1  0.10101689  0.75162281  0.07313616  1
  N  N62  1  0.90531615  0.84489432  0.83685707  1
  N  N63  1  0.77524022  0.75833130  0.62184268  1
  N  N64  1  0.51747729  0.88046151  0.32372027  1
  N  N65  1  0.47094709  0.74384604  0.07564249  1
  N  N66  1  0.22338986  0.87148476  0.83886481  1
  N  N67  1  0.11286432  0.75437156  0.59615088  1
  N  N68  1  0.93090849  0.85722435  0.32818242  1
  N  N69  1  0.77507400  0.76782923  0.10809903  1
  N  N70  1  0.55196039  0.87420470  0.83993147  1
  N  N71  1  0.45039707  0.75448633  0.59623601  1
