# generated using pymatgen
data_Gd5Al31N36
_symmetry_space_group_name_H-M   'P 1'
_cell_length_a   9.64257708
_cell_length_b   9.63327678
_cell_length_c   10.65138050
_cell_angle_alpha   90.72259390
_cell_angle_beta   90.58803913
_cell_angle_gamma   60.15305232
_symmetry_Int_Tables_number   1
_chemical_formula_structural   Gd5Al31N36
_chemical_formula_sum   'Gd5 Al31 N36'
_cell_volume   858.08891443
_cell_formula_units_Z   1
loop_
 _symmetry_equiv_pos_site_id
 _symmetry_equiv_pos_as_xyz
  1  'x, y, z'
loop_
 _atom_site_type_symbol
 _atom_site_label
 _atom_site_symmetry_multiplicity
 _atom_site_fract_x
 _atom_site_fract_y
 _atom_site_fract_z
 _atom_site_occupancy
  Al  Al0  1  0.11218828  0.08789970  0.41919078  1
  Al  Al1  1  0.22615945  0.21601128  0.06606536  1
  Al  Al2  1  0.88928431  0.20611233  0.65968546  1
  Al  Al3  1  0.43075254  0.08865909  0.33188211  1
  Al  Al4  1  0.54739586  0.21483402  0.15613466  1
  Al  Al5  1  0.11054899  0.09799456  0.89478313  1
  Al  Al6  1  0.22726163  0.19999173  0.59040260  1
  Al  Al7  1  0.89322929  0.22174025  0.15407437  1
  Al  Al8  1  0.43587680  0.09363331  0.82485475  1
  Al  Al9  1  0.54891916  0.21205247  0.65582544  1
  Al  Al10  1  0.22896708  0.54627947  0.14214005  1
  Al  Al11  1  0.77546598  0.42891205  0.89798018  1
  Al  Al12  1  0.88612330  0.53518372  0.59451829  1
  Al  Al13  1  0.44022961  0.43806926  0.39803951  1
  Al  Al14  1  0.56720351  0.53588816  0.14651488  1
  Al  Al15  1  0.11106604  0.42354283  0.82687114  1
  Al  Al16  1  0.22551827  0.53876235  0.65180908  1
  Al  Al17  1  0.77359750  0.42352581  0.41250677  1
  Al  Al18  1  0.89956867  0.54629647  0.06050080  1
  Al  Al19  1  0.43796302  0.43281099  0.90041896  1
  Al  Al20  1  0.55371397  0.53311212  0.65500700  1
  Al  Al21  1  0.11898941  0.75845280  0.40733747  1
  Al  Al22  1  0.77559230  0.75272998  0.82578717  1
  Al  Al23  1  0.89388338  0.86456241  0.65479105  1
  Al  Al24  1  0.43566181  0.75647511  0.41992711  1
  Al  Al25  1  0.56541190  0.87609414  0.06175548  1
  Al  Al26  1  0.11450559  0.75129024  0.89510264  1
  Al  Al27  1  0.22041877  0.86909329  0.65487470  1
  Al  Al28  1  0.89935517  0.87041768  0.14768328  1
  Al  Al29  1  0.44672476  0.75393096  0.89389338  1
  Al  Al30  1  0.55136295  0.87524378  0.58920973  1
  Gd  Gd31  1  0.77711531  0.09308711  0.90330146  1
  Gd  Gd32  1  0.77479021  0.10083774  0.39821641  1
  Gd  Gd33  1  0.11523016  0.41683300  0.33596381  1
  Gd  Gd34  1  0.22935809  0.87733080  0.15623733  1
  Gd  Gd35  1  0.75821780  0.74996666  0.32252860  1
  N  N36  1  0.23900543  0.18003558  0.41343526  1
  N  N37  1  0.09483924  0.12060494  0.07543427  1
  N  N38  1  0.90168072  0.22141083  0.83401476  1
  N  N39  1  0.77481182  0.09056122  0.61931425  1
  N  N40  1  0.51777536  0.22843674  0.33341943  1
  N  N41  1  0.43839963  0.08579776  0.14045243  1
  N  N42  1  0.22780640  0.20876944  0.88584234  1
  N  N43  1  0.10377441  0.08898472  0.60096308  1
  N  N44  1  0.91232290  0.22225409  0.33470217  1
  N  N45  1  0.77613275  0.10141302  0.12384085  1
  N  N46  1  0.52828087  0.22622048  0.83479297  1
  N  N47  1  0.44045767  0.08876796  0.64715440  1
  N  N48  1  0.24094876  0.56295977  0.32539381  1
  N  N49  1  0.11477467  0.43162409  0.11966805  1
  N  N50  1  0.89246970  0.53881777  0.88112990  1
  N  N51  1  0.76773620  0.41677365  0.59540907  1
  N  N52  1  0.56232985  0.54081254  0.33878432  1
  N  N53  1  0.44848403  0.42880845  0.08469041  1
  N  N54  1  0.22816809  0.53973072  0.83403557  1
  N  N55  1  0.10917225  0.42092128  0.64345414  1
  N  N56  1  0.88304974  0.53141187  0.42090877  1
  N  N57  1  0.77968639  0.43028724  0.08433708  1
  N  N58  1  0.55684125  0.53456825  0.83724936  1
  N  N59  1  0.44096716  0.42635849  0.58412331  1
  N  N60  1  0.22228209  0.87423973  0.36986524  1
  N  N61  1  0.10360110  0.75281974  0.07293953  1
  N  N62  1  0.90781844  0.84457767  0.83102103  1
  N  N63  1  0.76910735  0.75579397  0.64269765  1
  N  N64  1  0.52750347  0.88990165  0.41048813  1
  N  N65  1  0.47363867  0.74217805  0.07512954  1
  N  N66  1  0.22255080  0.87193932  0.84148405  1
  N  N67  1  0.10991590  0.75528073  0.59049016  1
  N  N68  1  0.91919199  0.85451104  0.32822288  1
  N  N69  1  0.78138250  0.76503241  0.10918819  1
  N  N70  1  0.55721037  0.87853373  0.88172187  1
  N  N71  1  0.44143323  0.75098865  0.60174506  1
