# generated using pymatgen
data_Gd5Al31N36
_symmetry_space_group_name_H-M   'P 1'
_cell_length_a   9.71147912
_cell_length_b   9.71851949
_cell_length_c   10.37464364
_cell_angle_alpha   90.04731002
_cell_angle_beta   90.55255987
_cell_angle_gamma   59.85497383
_symmetry_Int_Tables_number   1
_chemical_formula_structural   Gd5Al31N36
_chemical_formula_sum   'Gd5 Al31 N36'
_cell_volume   846.69676559
_cell_formula_units_Z   1
loop_
 _symmetry_equiv_pos_site_id
 _symmetry_equiv_pos_as_xyz
  1  'x, y, z'
loop_
 _atom_site_type_symbol
 _atom_site_label
 _atom_site_symmetry_multiplicity
 _atom_site_fract_x
 _atom_site_fract_y
 _atom_site_fract_z
 _atom_site_occupancy
  Al  Al0  1  0.11404056  0.09814880  0.31325158  1
  Al  Al1  1  0.22083315  0.21099327  0.05136215  1
  Al  Al2  1  0.89393363  0.20750985  0.55663282  1
  Al  Al3  1  0.43232081  0.09218855  0.31414712  1
  Al  Al4  1  0.54502424  0.21074380  0.05818254  1
  Al  Al5  1  0.11253079  0.10543746  0.81049968  1
  Al  Al6  1  0.22384437  0.20104516  0.56541306  1
  Al  Al7  1  0.89058048  0.22038990  0.05925476  1
  Al  Al8  1  0.43779583  0.09925872  0.80689730  1
  Al  Al9  1  0.54306671  0.21059777  0.55521124  1
  Al  Al10  1  0.22036040  0.53543791  0.05208129  1
  Al  Al11  1  0.78277091  0.42871048  0.80721120  1
  Al  Al12  1  0.88844375  0.53523922  0.56974238  1
  Al  Al13  1  0.44180553  0.43803996  0.31390132  1
  Al  Al14  1  0.56532397  0.52824528  0.06080013  1
  Al  Al15  1  0.11366346  0.42713673  0.81032405  1
  Al  Al16  1  0.22679565  0.54212013  0.56593484  1
  Al  Al17  1  0.77602755  0.42854996  0.31536977  1
  Al  Al18  1  0.88787770  0.53861616  0.04309934  1
  Al  Al19  1  0.43922316  0.42914978  0.80982785  1
  Al  Al20  1  0.56020287  0.52858696  0.57220997  1
  Al  Al21  1  0.11863252  0.75611547  0.31443483  1
  Al  Al22  1  0.78059505  0.75658804  0.80533207  1
  Al  Al23  1  0.89578295  0.86624567  0.56145008  1
  Al  Al24  1  0.42751070  0.76478790  0.39077451  1
  Al  Al25  1  0.56212915  0.87772530  0.04258402  1
  Al  Al26  1  0.11332811  0.74954791  0.80931897  1
  Al  Al27  1  0.22593725  0.86956590  0.63510233  1
  Al  Al28  1  0.89110859  0.85937316  0.04885704  1
  Al  Al29  1  0.45566884  0.75240997  0.86590439  1
  Al  Al30  1  0.55188952  0.87856989  0.56991786  1
  Gd  Gd31  1  0.77440731  0.10129693  0.81513542  1
  Gd  Gd32  1  0.77506082  0.09752484  0.31366398  1
  Gd  Gd33  1  0.11963998  0.42581641  0.31059573  1
  Gd  Gd34  1  0.21847255  0.87431503  0.08754559  1
  Gd  Gd35  1  0.76607448  0.75886676  0.30701032  1
  N  N36  1  0.23059848  0.18147022  0.38517943  1
  N  N37  1  0.09681258  0.13466889  0.12874362  1
  N  N38  1  0.90787854  0.22252064  0.87789255  1
  N  N39  1  0.77418131  0.09739149  0.58824649  1
  N  N40  1  0.51476771  0.22437484  0.37186417  1
  N  N41  1  0.44369164  0.09154524  0.12076515  1
  N  N42  1  0.22522647  0.20418507  0.86583830  1
  N  N43  1  0.10876547  0.09765745  0.62583339  1
  N  N44  1  0.90414770  0.21725276  0.37548266  1
  N  N45  1  0.78075742  0.09377620  0.08434474  1
  N  N46  1  0.52052875  0.22204942  0.87739915  1
  N  N47  1  0.44311382  0.09742450  0.62418595  1
  N  N48  1  0.24086368  0.55581642  0.38629659  1
  N  N49  1  0.10987943  0.42847634  0.08896930  1
  N  N50  1  0.88884658  0.53860850  0.85759450  1
  N  N51  1  0.78015900  0.42239150  0.62440346  1
  N  N52  1  0.56052826  0.53338147  0.37355486  1
  N  N53  1  0.44249357  0.43118821  0.12220562  1
  N  N54  1  0.22525622  0.53833207  0.86683462  1
  N  N55  1  0.11512282  0.42698205  0.61930034  1
  N  N56  1  0.87966426  0.52415701  0.39052078  1
  N  N57  1  0.77775207  0.43324862  0.12399649  1
  N  N58  1  0.56463024  0.52316893  0.86104019  1
  N  N59  1  0.44622445  0.42379737  0.62518022  1
  N  N60  1  0.22319113  0.87323603  0.32046236  1
  N  N61  1  0.09331464  0.73726948  0.12866539  1
  N  N62  1  0.90555485  0.84381238  0.86716143  1
  N  N63  1  0.77729362  0.76157171  0.61820987  1
  N  N64  1  0.52722572  0.88854825  0.38659621  1
  N  N65  1  0.47447690  0.74694557  0.05431670  1
  N  N66  1  0.22606806  0.87050943  0.83334347  1
  N  N67  1  0.11112614  0.75837234  0.62704803  1
  N  N68  1  0.91700151  0.85095463  0.38359782  1
  N  N69  1  0.77595560  0.75896876  0.08897996  1
  N  N70  1  0.55881772  0.87900868  0.85462518  1
  N  N71  1  0.44045355  0.75759546  0.58482534  1
