# generated using pymatgen
data_Gd5Al31N36
_symmetry_space_group_name_H-M   'P 1'
_cell_length_a   9.70167732
_cell_length_b   9.67271565
_cell_length_c   10.29059291
_cell_angle_alpha   90.00530686
_cell_angle_beta   90.22130853
_cell_angle_gamma   59.95412148
_symmetry_Int_Tables_number   1
_chemical_formula_structural   Gd5Al31N36
_chemical_formula_sum   'Gd5 Al31 N36'
_cell_volume   835.91302683
_cell_formula_units_Z   1
loop_
 _symmetry_equiv_pos_site_id
 _symmetry_equiv_pos_as_xyz
  1  'x, y, z'
loop_
 _atom_site_type_symbol
 _atom_site_label
 _atom_site_symmetry_multiplicity
 _atom_site_fract_x
 _atom_site_fract_y
 _atom_site_fract_z
 _atom_site_occupancy
  Al  Al0  1  0.11419634  0.09723056  0.30775581  1
  Al  Al1  1  0.22137044  0.20806476  0.04201086  1
  Al  Al2  1  0.89128439  0.21043331  0.54804860  1
  Al  Al3  1  0.43301149  0.09266206  0.30538762  1
  Al  Al4  1  0.54451169  0.21070437  0.04924713  1
  Al  Al5  1  0.11528719  0.09639977  0.79454287  1
  Al  Al6  1  0.22465074  0.20139979  0.55702627  1
  Al  Al7  1  0.89271636  0.21645100  0.04886891  1
  Al  Al8  1  0.43674839  0.09744647  0.80053525  1
  Al  Al9  1  0.54337152  0.21120839  0.54828178  1
  Al  Al10  1  0.22131019  0.53624800  0.04226503  1
  Al  Al11  1  0.77877238  0.43140828  0.80024733  1
  Al  Al12  1  0.88615846  0.53682307  0.56273744  1
  Al  Al13  1  0.44188259  0.43575359  0.30358298  1
  Al  Al14  1  0.56372983  0.53557863  0.05438041  1
  Al  Al15  1  0.11381597  0.42722816  0.80112624  1
  Al  Al16  1  0.22818691  0.54118047  0.55727670  1
  Al  Al17  1  0.77688343  0.42783441  0.30374224  1
  Al  Al18  1  0.89022184  0.53595229  0.03278486  1
  Al  Al19  1  0.43898889  0.43343878  0.80284722  1
  Al  Al20  1  0.55766613  0.53501689  0.55254813  1
  Al  Al21  1  0.11904231  0.75572658  0.30857231  1
  Al  Al22  1  0.77859512  0.75682372  0.80067321  1
  Al  Al23  1  0.89393161  0.86609707  0.55341884  1
  Al  Al24  1  0.44615233  0.75809214  0.31054050  1
  Al  Al25  1  0.55854055  0.87059836  0.04101909  1
  Al  Al26  1  0.11738866  0.75622145  0.79273126  1
  Al  Al27  1  0.22224269  0.87194130  0.55023736  1
  Al  Al28  1  0.89317502  0.85973857  0.03772444  1
  Al  Al29  1  0.44493566  0.75904047  0.79406304  1
  Al  Al30  1  0.55005121  0.87556166  0.55841768  1
  Gd  Gd31  1  0.77346666  0.10144280  0.80566571  1
  Gd  Gd32  1  0.77498377  0.09744341  0.30460884  1
  Gd  Gd33  1  0.11747439  0.42661037  0.30255326  1
  Gd  Gd34  1  0.22409315  0.86998154  0.06032503  1
  Gd  Gd35  1  0.76744450  0.75897178  0.29502653  1
  N  N36  1  0.23146362  0.18209435  0.37542912  1
  N  N37  1  0.10045594  0.12464529  0.12209327  1
  N  N38  1  0.90836293  0.22181231  0.86589925  1
  N  N39  1  0.77357439  0.09793705  0.57842993  1
  N  N40  1  0.51593957  0.22347150  0.36358811  1
  N  N41  1  0.44324816  0.09102026  0.11190365  1
  N  N42  1  0.22270225  0.20255542  0.85487477  1
  N  N43  1  0.10970244  0.09397264  0.60873466  1
  N  N44  1  0.90327103  0.21835120  0.36552823  1
  N  N45  1  0.77989385  0.09327999  0.07411131  1
  N  N46  1  0.51852072  0.22385390  0.86785837  1
  N  N47  1  0.44409721  0.09551919  0.61599909  1
  N  N48  1  0.24172997  0.55305733  0.37597061  1
  N  N49  1  0.11108785  0.42728272  0.07921311  1
  N  N50  1  0.88954226  0.53735619  0.84732679  1
  N  N51  1  0.77488473  0.42544527  0.61579739  1
  N  N52  1  0.56021650  0.53338336  0.36329808  1
  N  N53  1  0.44267441  0.43199487  0.11238360  1
  N  N54  1  0.22344735  0.54262837  0.85539662  1
  N  N55  1  0.11455527  0.42768449  0.60918764  1
  N  N56  1  0.87631159  0.52607730  0.38187652  1
  N  N57  1  0.78036478  0.43039374  0.11225881  1
  N  N58  1  0.55690640  0.53865741  0.86329270  1
  N  N59  1  0.44806022  0.42693750  0.61616169  1
  N  N60  1  0.22213127  0.87298057  0.35310720  1
  N  N61  1  0.09629999  0.74142767  0.12216577  1
  N  N62  1  0.90804501  0.84324407  0.85448992  1
  N  N63  1  0.77456595  0.76320680  0.61114240  1
  N  N64  1  0.52674997  0.88598125  0.37633280  1
  N  N65  1  0.47955013  0.74627784  0.12395509  1
  N  N66  1  0.22332883  0.87252787  0.84050370  1
  N  N67  1  0.11347966  0.76176619  0.60957623  1
  N  N68  1  0.91584427  0.85067438  0.37403307  1
  N  N69  1  0.77806904  0.75753232  0.07497428  1
  N  N70  1  0.55124723  0.87374113  0.85341599  1
  N  N71  1  0.44507011  0.75696819  0.60748733  1
