# generated using pymatgen
data_Gd5Al31N36
_symmetry_space_group_name_H-M   'P 1'
_cell_length_a   9.65239742
_cell_length_b   9.64274344
_cell_length_c   10.57514325
_cell_angle_alpha   91.23049561
_cell_angle_beta   91.24730816
_cell_angle_gamma   60.41003173
_symmetry_Int_Tables_number   1
_chemical_formula_structural   Gd5Al31N36
_chemical_formula_sum   'Gd5 Al31 N36'
_cell_volume   855.65035483
_cell_formula_units_Z   1
loop_
 _symmetry_equiv_pos_site_id
 _symmetry_equiv_pos_as_xyz
  1  'x, y, z'
loop_
 _atom_site_type_symbol
 _atom_site_label
 _atom_site_symmetry_multiplicity
 _atom_site_fract_x
 _atom_site_fract_y
 _atom_site_fract_z
 _atom_site_occupancy
  Al  Al0  1  0.11182629  0.08594471  0.39026237  1
  Al  Al1  1  0.22463873  0.21575720  0.03734252  1
  Al  Al2  1  0.89005939  0.20952827  0.62340070  1
  Al  Al3  1  0.43285043  0.09132640  0.31373205  1
  Al  Al4  1  0.54431310  0.21344081  0.05964993  1
  Al  Al5  1  0.10600458  0.10169446  0.86458868  1
  Al  Al6  1  0.22765477  0.20468040  0.56673691  1
  Al  Al7  1  0.89119159  0.22077908  0.11626201  1
  Al  Al8  1  0.43553779  0.09966995  0.80464611  1
  Al  Al9  1  0.54444342  0.21141866  0.55493107  1
  Al  Al10  1  0.22249507  0.53892676  0.05169772  1
  Al  Al11  1  0.77397305  0.42680908  0.86888461  1
  Al  Al12  1  0.89003587  0.53851112  0.57033533  1
  Al  Al13  1  0.44080533  0.43518809  0.30948987  1
  Al  Al14  1  0.56788132  0.53921181  0.12472237  1
  Al  Al15  1  0.11217496  0.42886466  0.80435537  1
  Al  Al16  1  0.22708723  0.54173061  0.56341594  1
  Al  Al17  1  0.77445569  0.42299929  0.38613366  1
  Al  Al18  1  0.89429648  0.54199353  0.03457700  1
  Al  Al19  1  0.43388921  0.42976358  0.80924406  1
  Al  Al20  1  0.55708811  0.53710274  0.63196142  1
  Al  Al21  1  0.11862834  0.75219933  0.31771693  1
  Al  Al22  1  0.78128044  0.75349252  0.80582249  1
  Al  Al23  1  0.89689418  0.86430216  0.56133064  1
  Al  Al24  1  0.43476617  0.75686874  0.39343523  1
  Al  Al25  1  0.56488838  0.87685750  0.04046972  1
  Al  Al26  1  0.11574022  0.75163141  0.80816668  1
  Al  Al27  1  0.22485417  0.87365938  0.63312085  1
  Al  Al28  1  0.89613047  0.86040398  0.05100695  1
  Al  Al29  1  0.45079029  0.75445587  0.87011596  1
  Al  Al30  1  0.55433639  0.87772661  0.56761507  1
  Gd  Gd31  1  0.76595302  0.09010517  0.81825694  1
  Gd  Gd32  1  0.77584284  0.09255807  0.31883819  1
  Gd  Gd33  1  0.11943845  0.41878834  0.30580996  1
  Gd  Gd34  1  0.22918737  0.88182502  0.11852198  1
  Gd  Gd35  1  0.76607883  0.75270693  0.30251012  1
  N  N36  1  0.23542012  0.18260166  0.38678223  1
  N  N37  1  0.09133259  0.12539495  0.04441757  1
  N  N38  1  0.89853989  0.22108296  0.80233839  1
  N  N39  1  0.77335780  0.09450031  0.59056529  1
  N  N40  1  0.51773333  0.22558994  0.37331984  1
  N  N41  1  0.43948044  0.09120218  0.12036731  1
  N  N42  1  0.22392224  0.20978562  0.85434261  1
  N  N43  1  0.10722406  0.08974048  0.57422226  1
  N  N44  1  0.91124686  0.22243274  0.30450246  1
  N  N45  1  0.77754652  0.09375922  0.09026460  1
  N  N46  1  0.51524332  0.22758804  0.88206370  1
  N  N47  1  0.44626223  0.09568452  0.62499094  1
  N  N48  1  0.24388593  0.55220254  0.38592907  1
  N  N49  1  0.11087467  0.42896719  0.08790982  1
  N  N50  1  0.89082977  0.53692653  0.85250857  1
  N  N51  1  0.76823669  0.42280538  0.56937375  1
  N  N52  1  0.56472759  0.54560408  0.31370755  1
  N  N53  1  0.43911734  0.42996297  0.12385551  1
  N  N54  1  0.22412563  0.54220689  0.86879290  1
  N  N55  1  0.11406887  0.42816709  0.61955574  1
  N  N56  1  0.88808783  0.52790230  0.39336885  1
  N  N57  1  0.77454956  0.42909855  0.05493304  1
  N  N58  1  0.55856683  0.53919248  0.81326375  1
  N  N59  1  0.44104969  0.42151008  0.62598119  1
  N  N60  1  0.22327642  0.87319984  0.33382873  1
  N  N61  1  0.09847569  0.74238166  0.13135523  1
  N  N62  1  0.91150626  0.83766035  0.87263745  1
  N  N63  1  0.77659262  0.76250086  0.62223113  1
  N  N64  1  0.53048364  0.88847806  0.38688274  1
  N  N65  1  0.47593971  0.74141836  0.05059667  1
  N  N66  1  0.22753760  0.87585183  0.82190665  1
  N  N67  1  0.11070991  0.75689472  0.62760354  1
  N  N68  1  0.91779180  0.84634542  0.38572836  1
  N  N69  1  0.77875347  0.75853737  0.08845548  1
  N  N70  1  0.55918379  0.88143867  0.85744687  1
  N  N71  1  0.44193157  0.75396042  0.57693206  1
