# generated using pymatgen
data_Gd5Al31N36
_symmetry_space_group_name_H-M   'P 1'
_cell_length_a   9.71180312
_cell_length_b   9.71162059
_cell_length_c   10.53484998
_cell_angle_alpha   91.10275998
_cell_angle_beta   90.70513914
_cell_angle_gamma   59.93999485
_symmetry_Int_Tables_number   1
_chemical_formula_structural   Gd5Al31N36
_chemical_formula_sum   'Gd5 Al31 N36'
_cell_volume   859.81524864
_cell_formula_units_Z   1
loop_
 _symmetry_equiv_pos_site_id
 _symmetry_equiv_pos_as_xyz
  1  'x, y, z'
loop_
 _atom_site_type_symbol
 _atom_site_label
 _atom_site_symmetry_multiplicity
 _atom_site_fract_x
 _atom_site_fract_y
 _atom_site_fract_z
 _atom_site_occupancy
  Al  Al0  1  0.11488598  0.08545905  0.40711863  1
  Al  Al1  1  0.22585440  0.21653894  0.05088835  1
  Al  Al2  1  0.89130866  0.21157022  0.64128238  1
  Al  Al3  1  0.43227599  0.08744059  0.31751579  1
  Al  Al4  1  0.54495420  0.21027181  0.10467067  1
  Al  Al5  1  0.10980619  0.09913377  0.87940457  1
  Al  Al6  1  0.22792408  0.19967234  0.58108219  1
  Al  Al7  1  0.89666153  0.22336343  0.13318388  1
  Al  Al8  1  0.43813757  0.09435903  0.82002800  1
  Al  Al9  1  0.54895986  0.20778418  0.60064658  1
  Al  Al10  1  0.22733235  0.54675409  0.13662488  1
  Al  Al11  1  0.77425734  0.43129168  0.88321002  1
  Al  Al12  1  0.88522274  0.53889514  0.58195805  1
  Al  Al13  1  0.43808544  0.43758076  0.38098933  1
  Al  Al14  1  0.56594898  0.53795586  0.13698724  1
  Al  Al15  1  0.10906463  0.42273294  0.81460290  1
  Al  Al16  1  0.22724375  0.53708520  0.64258123  1
  Al  Al17  1  0.77184009  0.42693411  0.39786209  1
  Al  Al18  1  0.89887907  0.54285512  0.04901673  1
  Al  Al19  1  0.43343770  0.43440559  0.89777323  1
  Al  Al20  1  0.55354649  0.53307372  0.64257637  1
  Al  Al21  1  0.12703502  0.75442043  0.40736714  1
  Al  Al22  1  0.77712127  0.75592568  0.81560975  1
  Al  Al23  1  0.88941019  0.86706102  0.58098772  1
  Al  Al24  1  0.43844893  0.75606613  0.40683813  1
  Al  Al25  1  0.56315563  0.87327992  0.05006976  1
  Al  Al26  1  0.12105033  0.74694165  0.88293878  1
  Al  Al27  1  0.22325700  0.86859549  0.64707088  1
  Al  Al28  1  0.89009892  0.86419105  0.05631376  1
  Al  Al29  1  0.44747585  0.75140359  0.88169358  1
  Al  Al30  1  0.55376067  0.87519478  0.57927565  1
  Gd  Gd31  1  0.77233031  0.10252143  0.85557627  1
  Gd  Gd32  1  0.77806760  0.10255330  0.34323871  1
  Gd  Gd33  1  0.11341639  0.41187315  0.32688564  1
  Gd  Gd34  1  0.22681135  0.87949058  0.14147035  1
  Gd  Gd35  1  0.76799849  0.76017629  0.31424919  1
  N  N36  1  0.24236397  0.17481102  0.40274958  1
  N  N37  1  0.09683769  0.12198398  0.06038773  1
  N  N38  1  0.90512729  0.22809716  0.81721817  1
  N  N39  1  0.77172775  0.09789805  0.61244868  1
  N  N40  1  0.51519209  0.22615392  0.32724865  1
  N  N41  1  0.43665791  0.08435147  0.12672793  1
  N  N42  1  0.22470038  0.20759295  0.86770314  1
  N  N43  1  0.10708211  0.08765010  0.59026884  1
  N  N44  1  0.91882619  0.22656290  0.31835365  1
  N  N45  1  0.78334347  0.09319398  0.10659495  1
  N  N46  1  0.51870404  0.21702426  0.88726213  1
  N  N47  1  0.44502807  0.09399839  0.63788740  1
  N  N48  1  0.23293050  0.56266972  0.31999615  1
  N  N49  1  0.11480814  0.43105606  0.10744702  1
  N  N50  1  0.89036878  0.53988633  0.86658337  1
  N  N51  1  0.76731276  0.42169030  0.58232347  1
  N  N52  1  0.55996441  0.53895946  0.32815764  1
  N  N53  1  0.44420377  0.43916659  0.08191043  1
  N  N54  1  0.22842733  0.53518855  0.82383275  1
  N  N55  1  0.10901498  0.42232767  0.62804004  1
  N  N56  1  0.87667835  0.53712103  0.40544445  1
  N  N57  1  0.77764409  0.43146913  0.07061027  1
  N  N58  1  0.55468033  0.52991331  0.82591214  1
  N  N59  1  0.44006431  0.42852197  0.57175610  1
  N  N60  1  0.22239463  0.87126264  0.35771316  1
  N  N61  1  0.11171966  0.74684584  0.06569423  1
  N  N62  1  0.89941869  0.84470811  0.87126804  1
  N  N63  1  0.77458615  0.76108038  0.63305297  1
  N  N64  1  0.53035821  0.88679047  0.39711988  1
  N  N65  1  0.47314581  0.74191400  0.06455554  1
  N  N66  1  0.22242610  0.87109365  0.83290773  1
  N  N67  1  0.12105834  0.75208714  0.59327154  1
  N  N68  1  0.90848023  0.85644436  0.40052494  1
  N  N69  1  0.77950440  0.76081314  0.09886337  1
  N  N70  1  0.55534755  0.87445252  0.86694021  1
  N  N71  1  0.44433199  0.75247305  0.59206305  1
