# generated using pymatgen
data_Gd5Al31N36
_symmetry_space_group_name_H-M   'P 1'
_cell_length_a   9.70861627
_cell_length_b   9.68480350
_cell_length_c   10.29015602
_cell_angle_alpha   89.99675627
_cell_angle_beta   90.28300401
_cell_angle_gamma   59.88810356
_symmetry_Int_Tables_number   1
_chemical_formula_structural   Gd5Al31N36
_chemical_formula_sum   'Gd5 Al31 N36'
_cell_volume   836.95631063
_cell_formula_units_Z   1
loop_
 _symmetry_equiv_pos_site_id
 _symmetry_equiv_pos_as_xyz
  1  'x, y, z'
loop_
 _atom_site_type_symbol
 _atom_site_label
 _atom_site_symmetry_multiplicity
 _atom_site_fract_x
 _atom_site_fract_y
 _atom_site_fract_z
 _atom_site_occupancy
  Al  Al0  1  0.11427574  0.09720848  0.31650022  1
  Al  Al1  1  0.22187284  0.20870922  0.05244276  1
  Al  Al2  1  0.89137802  0.21053254  0.55784874  1
  Al  Al3  1  0.43252107  0.09287372  0.31573367  1
  Al  Al4  1  0.54537013  0.21021067  0.05941984  1
  Al  Al5  1  0.11476460  0.09848599  0.80677436  1
  Al  Al6  1  0.22462588  0.20162454  0.56678761  1
  Al  Al7  1  0.89215327  0.21744675  0.05919107  1
  Al  Al8  1  0.43745042  0.09732137  0.81056942  1
  Al  Al9  1  0.54380390  0.21086699  0.55822269  1
  Al  Al10  1  0.22190391  0.53543381  0.05262064  1
  Al  Al11  1  0.77894657  0.43140682  0.81011783  1
  Al  Al12  1  0.88607605  0.53672057  0.57260215  1
  Al  Al13  1  0.44188449  0.43570319  0.31374065  1
  Al  Al14  1  0.56375473  0.53531956  0.06441724  1
  Al  Al15  1  0.11405410  0.42710452  0.81113301  1
  Al  Al16  1  0.22838222  0.54091581  0.56704624  1
  Al  Al17  1  0.77630801  0.42819203  0.31389559  1
  Al  Al18  1  0.89017857  0.53609337  0.04332042  1
  Al  Al19  1  0.43977653  0.43259803  0.81276440  1
  Al  Al20  1  0.55756272  0.53517126  0.56237098  1
  Al  Al21  1  0.11937439  0.75584323  0.31743344  1
  Al  Al22  1  0.77869114  0.75656243  0.81029903  1
  Al  Al23  1  0.89412288  0.86564698  0.56320483  1
  Al  Al24  1  0.44422167  0.75911042  0.31900353  1
  Al  Al25  1  0.55883827  0.87068352  0.05128122  1
  Al  Al26  1  0.11682827  0.75449427  0.80507235  1
  Al  Al27  1  0.22224395  0.87198478  0.57288435  1
  Al  Al28  1  0.89287099  0.85912265  0.04838609  1
  Al  Al29  1  0.44709506  0.75777251  0.80674973  1
  Al  Al30  1  0.54954896  0.87553548  0.56848394  1
  Gd  Gd31  1  0.77467107  0.10067793  0.81583894  1
  Gd  Gd32  1  0.77579405  0.09681824  0.31492911  1
  Gd  Gd33  1  0.11664490  0.42749312  0.31282857  1
  Gd  Gd34  1  0.22275302  0.87110607  0.07109525  1
  Gd  Gd35  1  0.76620333  0.75957922  0.30614891  1
  N  N36  1  0.23064825  0.18272073  0.38525433  1
  N  N37  1  0.10006723  0.12642633  0.13071002  1
  N  N38  1  0.90775624  0.22255375  0.87640685  1
  N  N39  1  0.77431942  0.09743976  0.58838981  1
  N  N40  1  0.51635192  0.22305274  0.37362750  1
  N  N41  1  0.44383477  0.09097244  0.12215988  1
  N  N42  1  0.22360520  0.20303426  0.86546332  1
  N  N43  1  0.10916271  0.09565704  0.62093856  1
  N  N44  1  0.90336227  0.21848622  0.37537663  1
  N  N45  1  0.78071883  0.09288211  0.08442296  1
  N  N46  1  0.51993149  0.22296527  0.87770392  1
  N  N47  1  0.44419130  0.09545632  0.62594989  1
  N  N48  1  0.24160517  0.55329661  0.38589141  1
  N  N49  1  0.11118219  0.42748994  0.08970416  1
  N  N50  1  0.88962231  0.53729228  0.85749370  1
  N  N51  1  0.77496451  0.42540032  0.62562427  1
  N  N52  1  0.55942065  0.53430135  0.37310849  1
  N  N53  1  0.44330909  0.43136581  0.12249093  1
  N  N54  1  0.22446593  0.54094579  0.86588852  1
  N  N55  1  0.11462239  0.42770938  0.61910915  1
  N  N56  1  0.87564590  0.52629616  0.39195253  1
  N  N57  1  0.78005376  0.43086622  0.12263509  1
  N  N58  1  0.55771232  0.53745577  0.87362027  1
  N  N59  1  0.44839001  0.42672740  0.62601769  1
  N  N60  1  0.22118580  0.87370944  0.35659810  1
  N  N61  1  0.09648439  0.74053238  0.13075896  1
  N  N62  1  0.90737545  0.84269621  0.86528202  1
  N  N63  1  0.77447233  0.76317185  0.62078350  1
  N  N64  1  0.52504154  0.88604450  0.38656399  1
  N  N65  1  0.47929627  0.74638536  0.13191639  1
  N  N66  1  0.22325073  0.87242744  0.84872781  1
  N  N67  1  0.11289523  0.76058592  0.62182306  1
  N  N68  1  0.91649062  0.84962122  0.38398358  1
  N  N69  1  0.77807991  0.75722122  0.08631975  1
  N  N70  1  0.55211737  0.87378215  0.86385093  1
  N  N71  1  0.44652546  0.75614395  0.62015537  1
