# generated using pymatgen
data_Gd5Al31N36
_symmetry_space_group_name_H-M   'P 1'
_cell_length_a   9.72040430
_cell_length_b   9.70215490
_cell_length_c   10.37458138
_cell_angle_alpha   90.57178536
_cell_angle_beta   90.38855832
_cell_angle_gamma   59.93241247
_symmetry_Int_Tables_number   1
_chemical_formula_structural   Gd5Al31N36
_chemical_formula_sum   'Gd5 Al31 N36'
_cell_volume   846.71063972
_cell_formula_units_Z   1
loop_
 _symmetry_equiv_pos_site_id
 _symmetry_equiv_pos_as_xyz
  1  'x, y, z'
loop_
 _atom_site_type_symbol
 _atom_site_label
 _atom_site_symmetry_multiplicity
 _atom_site_fract_x
 _atom_site_fract_y
 _atom_site_fract_z
 _atom_site_occupancy
  Al  Al0  1  0.11242156  0.09442519  0.40981755  1
  Al  Al1  1  0.21871046  0.20918170  0.14429148  1
  Al  Al2  1  0.88743314  0.20689590  0.65712200  1
  Al  Al3  1  0.43404145  0.08480725  0.39331356  1
  Al  Al4  1  0.53895754  0.21533154  0.15113173  1
  Al  Al5  1  0.11047805  0.10149508  0.89579961  1
  Al  Al6  1  0.22423367  0.19512188  0.65357926  1
  Al  Al7  1  0.89022572  0.22051822  0.15284269  1
  Al  Al8  1  0.43371098  0.10032111  0.89581523  1
  Al  Al9  1  0.54241386  0.20960993  0.64941980  1
  Al  Al10  1  0.22529578  0.54605673  0.14569155  1
  Al  Al11  1  0.77532084  0.42894938  0.89850216  1
  Al  Al12  1  0.88568469  0.53155373  0.59581092  1
  Al  Al13  1  0.44589316  0.44012953  0.39453279  1
  Al  Al14  1  0.56629198  0.53642528  0.14524469  1
  Al  Al15  1  0.11036797  0.42917728  0.83111472  1
  Al  Al16  1  0.22766471  0.54312758  0.65391934  1
  Al  Al17  1  0.77626831  0.41839191  0.40945396  1
  Al  Al18  1  0.90183965  0.54116780  0.07210933  1
  Al  Al19  1  0.43736247  0.43312457  0.89968957  1
  Al  Al20  1  0.55344362  0.53419601  0.65337893  1
  Al  Al21  1  0.12392720  0.76201118  0.40893050  1
  Al  Al22  1  0.77966890  0.75128377  0.83347524  1
  Al  Al23  1  0.89392266  0.86521147  0.65361412  1
  Al  Al24  1  0.44345667  0.75930724  0.41148461  1
  Al  Al25  1  0.55592254  0.87427225  0.12711913  1
  Al  Al26  1  0.11515139  0.75521215  0.89527058  1
  Al  Al27  1  0.22011007  0.87278395  0.64744999  1
  Al  Al28  1  0.89895992  0.86884795  0.14617197  1
  Al  Al29  1  0.44668774  0.75803174  0.89152723  1
  Al  Al30  1  0.54750417  0.87408240  0.65082744  1
  Gd  Gd31  1  0.77131064  0.09608249  0.89898755  1
  Gd  Gd32  1  0.76938703  0.10032027  0.39142882  1
  Gd  Gd33  1  0.14612776  0.41394145  0.38377171  1
  Gd  Gd34  1  0.22890170  0.87656678  0.16061448  1
  Gd  Gd35  1  0.78043487  0.74465896  0.34500960  1
  N  N36  1  0.23111319  0.16691092  0.32576125  1
  N  N37  1  0.09598085  0.12262404  0.07683300  1
  N  N38  1  0.89962611  0.22038052  0.83577735  1
  N  N39  1  0.77343067  0.09148506  0.61970209  1
  N  N40  1  0.50390139  0.22858089  0.33402982  1
  N  N41  1  0.44121490  0.09737858  0.08078728  1
  N  N42  1  0.22249819  0.20148397  0.83698833  1
  N  N43  1  0.10552949  0.09797745  0.59587445  1
  N  N44  1  0.90507015  0.21614112  0.33658630  1
  N  N45  1  0.77173703  0.10193547  0.12472620  1
  N  N46  1  0.51793074  0.22428823  0.83067209  1
  N  N47  1  0.43924404  0.09163650  0.58415984  1
  N  N48  1  0.24740635  0.57005765  0.32595727  1
  N  N49  1  0.11312480  0.43356196  0.13568329  1
  N  N50  1  0.89404650  0.53708690  0.88330197  1
  N  N51  1  0.76673489  0.41854170  0.59769440  1
  N  N52  1  0.56617083  0.53753300  0.33883193  1
  N  N53  1  0.44759075  0.43075455  0.08550023  1
  N  N54  1  0.22664887  0.54145215  0.83736737  1
  N  N55  1  0.11226726  0.42620863  0.63529053  1
  N  N56  1  0.89690879  0.51052714  0.41713022  1
  N  N57  1  0.77880706  0.42963355  0.08612588  1
  N  N58  1  0.55545434  0.53473103  0.83793505  1
  N  N59  1  0.44074185  0.42889678  0.58383024  1
  N  N60  1  0.22484481  0.87526316  0.38024988  1
  N  N61  1  0.10396732  0.75373889  0.07501119  1
  N  N62  1  0.90648758  0.84479711  0.83438889  1
  N  N63  1  0.77455579  0.75463804  0.63358080  1
  N  N64  1  0.52236385  0.87857411  0.32848361  1
  N  N65  1  0.47268096  0.74518953  0.07293826  1
  N  N66  1  0.22082959  0.87404292  0.83943270  1
  N  N67  1  0.11035150  0.75767430  0.59390799  1
  N  N68  1  0.92842578  0.85678595  0.32883774  1
  N  N69  1  0.78033520  0.76312609  0.11646347  1
  N  N70  1  0.54946542  0.87773769  0.83837363  1
  N  N71  1  0.44653175  0.75551330  0.59866191  1
