# generated using pymatgen
data_Gd5Al31N36
_symmetry_space_group_name_H-M   'P 1'
_cell_length_a   9.65028914
_cell_length_b   9.62150833
_cell_length_c   10.64289722
_cell_angle_alpha   90.82382471
_cell_angle_beta   90.83882040
_cell_angle_gamma   60.32676878
_symmetry_Int_Tables_number   1
_chemical_formula_structural   Gd5Al31N36
_chemical_formula_sum   'Gd5 Al31 N36'
_cell_volume   858.48642973
_cell_formula_units_Z   1
loop_
 _symmetry_equiv_pos_site_id
 _symmetry_equiv_pos_as_xyz
  1  'x, y, z'
loop_
 _atom_site_type_symbol
 _atom_site_label
 _atom_site_symmetry_multiplicity
 _atom_site_fract_x
 _atom_site_fract_y
 _atom_site_fract_z
 _atom_site_occupancy
  Al  Al0  1  0.11113893  0.08654795  0.42673059  1
  Al  Al1  1  0.22532861  0.22264408  0.05297018  1
  Al  Al2  1  0.88407294  0.20479423  0.66170846  1
  Al  Al3  1  0.43939781  0.09925313  0.42698189  1
  Al  Al4  1  0.54370753  0.21146345  0.15595620  1
  Al  Al5  1  0.10659554  0.09729102  0.89137086  1
  Al  Al6  1  0.21600375  0.20543853  0.60652886  1
  Al  Al7  1  0.89640421  0.22357620  0.15647353  1
  Al  Al8  1  0.44052088  0.10008369  0.86066966  1
  Al  Al9  1  0.55230988  0.21127597  0.65640159  1
  Al  Al10  1  0.23176801  0.54761078  0.14342909  1
  Al  Al11  1  0.77453714  0.42726291  0.89990619  1
  Al  Al12  1  0.88630893  0.53683379  0.59133995  1
  Al  Al13  1  0.43989158  0.43502569  0.39898152  1
  Al  Al14  1  0.56816314  0.53750831  0.14725020  1
  Al  Al15  1  0.10680128  0.42928351  0.82539214  1
  Al  Al16  1  0.22564798  0.53896872  0.65218219  1
  Al  Al17  1  0.77315927  0.42294870  0.41430708  1
  Al  Al18  1  0.90126393  0.54828045  0.05761527  1
  Al  Al19  1  0.43911274  0.43287502  0.90221006  1
  Al  Al20  1  0.55400949  0.53091758  0.65710187  1
  Al  Al21  1  0.11732824  0.75348875  0.40720639  1
  Al  Al22  1  0.77951127  0.74914941  0.82359040  1
  Al  Al23  1  0.89356139  0.86499246  0.65403259  1
  Al  Al24  1  0.43184871  0.75568876  0.42621697  1
  Al  Al25  1  0.57196296  0.87597783  0.04892867  1
  Al  Al26  1  0.11530432  0.75155989  0.89784442  1
  Al  Al27  1  0.21727472  0.86683897  0.65855580  1
  Al  Al28  1  0.90409988  0.86803811  0.15138186  1
  Al  Al29  1  0.44629648  0.75273729  0.89117977  1
  Al  Al30  1  0.55427117  0.86661339  0.60239204  1
  Gd  Gd31  1  0.77524572  0.08863956  0.91306956  1
  Gd  Gd32  1  0.77954861  0.09510386  0.39062466  1
  Gd  Gd33  1  0.11278268  0.40981013  0.32945120  1
  Gd  Gd34  1  0.23496138  0.88339717  0.15813942  1
  Gd  Gd35  1  0.74540221  0.74915063  0.31485484  1
  N  N36  1  0.22734006  0.18732160  0.42681180  1
  N  N37  1  0.09720507  0.12532189  0.07377089  1
  N  N38  1  0.89423372  0.21824351  0.83761344  1
  N  N39  1  0.77488875  0.08902290  0.61345689  1
  N  N40  1  0.51411980  0.21941937  0.33728369  1
  N  N41  1  0.45163134  0.10045195  0.07177863  1
  N  N42  1  0.21902850  0.21044393  0.86940500  1
  N  N43  1  0.10050315  0.08720867  0.60933566  1
  N  N44  1  0.91555901  0.22215624  0.33725408  1
  N  N45  1  0.77930903  0.10252080  0.13397675  1
  N  N46  1  0.53142904  0.22733954  0.83213267  1
  N  N47  1  0.44534832  0.09513403  0.62184104  1
  N  N48  1  0.24028771  0.55685189  0.32689686  1
  N  N49  1  0.11789261  0.43406546  0.11179079  1
  N  N50  1  0.89116265  0.53691418  0.88013322  1
  N  N51  1  0.76803002  0.41711776  0.59693352  1
  N  N52  1  0.56077451  0.54053748  0.34075845  1
  N  N53  1  0.45129481  0.43012687  0.08758834  1
  N  N54  1  0.22910428  0.53993341  0.83596999  1
  N  N55  1  0.10453050  0.42768534  0.64506123  1
  N  N56  1  0.88094510  0.53366342  0.41722867  1
  N  N57  1  0.78152521  0.43288378  0.08754064  1
  N  N58  1  0.55709583  0.53303763  0.83930579  1
  N  N59  1  0.44096619  0.42636870  0.58477905  1
  N  N60  1  0.21869669  0.87356924  0.37276444  1
  N  N61  1  0.10820265  0.75676323  0.07685604  1
  N  N62  1  0.90923169  0.84462460  0.83139592  1
  N  N63  1  0.77286138  0.75297907  0.64362457  1
  N  N64  1  0.52874403  0.88206066  0.42072545  1
  N  N65  1  0.47812543  0.74553698  0.07463419  1
  N  N66  1  0.22168791  0.87065586  0.84398154  1
  N  N67  1  0.10883863  0.75411119  0.59069235  1
  N  N68  1  0.91674372  0.84408764  0.32920696  1
  N  N69  1  0.78438050  0.76882392  0.10099279  1
  N  N70  1  0.55834886  0.87187411  0.86696041  1
  N  N71  1  0.43792846  0.74959346  0.60846931  1
