# generated using pymatgen
data_Gd5Al31N36
_symmetry_space_group_name_H-M   'P 1'
_cell_length_a   9.69234414
_cell_length_b   9.66988019
_cell_length_c   10.29210215
_cell_angle_alpha   90.09793842
_cell_angle_beta   89.93214045
_cell_angle_gamma   59.98160477
_symmetry_Int_Tables_number   1
_chemical_formula_structural   Gd5Al31N36
_chemical_formula_sum   'Gd5 Al31 N36'
_cell_volume   835.22265922
_cell_formula_units_Z   1
loop_
 _symmetry_equiv_pos_site_id
 _symmetry_equiv_pos_as_xyz
  1  'x, y, z'
loop_
 _atom_site_type_symbol
 _atom_site_label
 _atom_site_symmetry_multiplicity
 _atom_site_fract_x
 _atom_site_fract_y
 _atom_site_fract_z
 _atom_site_occupancy
  Al  Al0  1  0.11597452  0.09247561  0.41279895  1
  Al  Al1  1  0.22139780  0.20436165  0.14399242  1
  Al  Al2  1  0.89235769  0.21163919  0.65463238  1
  Al  Al3  1  0.43170873  0.09002003  0.39685182  1
  Al  Al4  1  0.54102696  0.21187278  0.15477429  1
  Al  Al5  1  0.11226321  0.10130532  0.89660394  1
  Al  Al6  1  0.22354916  0.20493130  0.66054011  1
  Al  Al7  1  0.89038344  0.21558820  0.15635218  1
  Al  Al8  1  0.43761521  0.09687872  0.90182150  1
  Al  Al9  1  0.54498016  0.20965361  0.65314264  1
  Al  Al10  1  0.22561787  0.54118481  0.14417843  1
  Al  Al11  1  0.77835132  0.43158933  0.90252652  1
  Al  Al12  1  0.89019132  0.53657703  0.66768582  1
  Al  Al13  1  0.44158640  0.43751697  0.39929066  1
  Al  Al14  1  0.56263858  0.53381439  0.14942972  1
  Al  Al15  1  0.11454540  0.42703303  0.90278047  1
  Al  Al16  1  0.22443850  0.53732660  0.66073023  1
  Al  Al17  1  0.77878564  0.42768634  0.40110367  1
  Al  Al18  1  0.88751699  0.53540342  0.13998427  1
  Al  Al19  1  0.43963510  0.43226266  0.90042034  1
  Al  Al20  1  0.55854250  0.53588945  0.65156685  1
  Al  Al21  1  0.12258366  0.75821719  0.41282262  1
  Al  Al22  1  0.77844298  0.75755750  0.90344441  1
  Al  Al23  1  0.89290699  0.86449671  0.66403271  1
  Al  Al24  1  0.44298773  0.75903540  0.41123848  1
  Al  Al25  1  0.55488705  0.87112496  0.14311529  1
  Al  Al26  1  0.11476574  0.75422097  0.89773863  1
  Al  Al27  1  0.22381549  0.87184899  0.65039233  1
  Al  Al28  1  0.89462974  0.86272960  0.15017938  1
  Al  Al29  1  0.44950842  0.75634335  0.89680669  1
  Al  Al30  1  0.55512128  0.87269131  0.66145649  1
  Gd  Gd31  1  0.77422536  0.10128816  0.90093178  1
  Gd  Gd32  1  0.77199116  0.09947837  0.39525680  1
  Gd  Gd33  1  0.12424377  0.42295122  0.39387537  1
  Gd  Gd34  1  0.22394851  0.87264553  0.15938335  1
  Gd  Gd35  1  0.77063324  0.75944748  0.40123874  1
  N  N36  1  0.22870288  0.17458004  0.32777109  1
  N  N37  1  0.09511930  0.12041713  0.07950008  1
  N  N38  1  0.90281615  0.22460919  0.83457989  1
  N  N39  1  0.77735682  0.09419408  0.62465219  1
  N  N40  1  0.50900566  0.22604795  0.33827299  1
  N  N41  1  0.44347977  0.09355089  0.08751978  1
  N  N42  1  0.22411911  0.20546385  0.84538944  1
  N  N43  1  0.11236160  0.09769345  0.59933886  1
  N  N44  1  0.90764137  0.21576261  0.34235255  1
  N  N45  1  0.77356267  0.09794895  0.12934479  1
  N  N46  1  0.52098137  0.22220618  0.83555217  1
  N  N47  1  0.44298016  0.09095416  0.58923085  1
  N  N48  1  0.24047659  0.56246495  0.32761383  1
  N  N49  1  0.11599558  0.42701696  0.09590393  1
  N  N50  1  0.88979553  0.53806790  0.85476913  1
  N  N51  1  0.77910829  0.43077303  0.59091565  1
  N  N52  1  0.56036529  0.53662602  0.34302927  1
  N  N53  1  0.44772541  0.42782411  0.08797815  1
  N  N54  1  0.22512235  0.53774391  0.84527725  1
  N  N55  1  0.11098191  0.42778990  0.61652026  1
  N  N56  1  0.88006861  0.52340134  0.32117997  1
  N  N57  1  0.77593661  0.42513058  0.08781503  1
  N  N58  1  0.55864579  0.53388416  0.83870732  1
  N  N59  1  0.44294244  0.42983896  0.58942417  1
  N  N60  1  0.22389759  0.87286355  0.38070451  1
  N  N61  1  0.10086225  0.74965393  0.07845862  1
  N  N62  1  0.90219459  0.84609978  0.84481554  1
  N  N63  1  0.77788375  0.75785427  0.62023284  1
  N  N64  1  0.52387382  0.88075296  0.32812116  1
  N  N65  1  0.47204439  0.74299852  0.07987194  1
  N  N66  1  0.22305226  0.87259159  0.84404538  1
  N  N67  1  0.11157896  0.75680114  0.60067119  1
  N  N68  1  0.92501982  0.85008610  0.33158088  1
  N  N69  1  0.77627364  0.76263088  0.09459661  1
  N  N70  1  0.55434698  0.87506111  0.84690525  1
  N  N71  1  0.45089121  0.75798767  0.59965964  1
