# generated using pymatgen
data_Gd5Al31N36
_symmetry_space_group_name_H-M   'P 1'
_cell_length_a   9.71258916
_cell_length_b   9.67741607
_cell_length_c   10.52639157
_cell_angle_alpha   90.65886444
_cell_angle_beta   90.57202368
_cell_angle_gamma   59.98622619
_symmetry_Int_Tables_number   1
_chemical_formula_structural   Gd5Al31N36
_chemical_formula_sum   'Gd5 Al31 N36'
_cell_volume   856.66374791
_cell_formula_units_Z   1
loop_
 _symmetry_equiv_pos_site_id
 _symmetry_equiv_pos_as_xyz
  1  'x, y, z'
loop_
 _atom_site_type_symbol
 _atom_site_label
 _atom_site_symmetry_multiplicity
 _atom_site_fract_x
 _atom_site_fract_y
 _atom_site_fract_z
 _atom_site_occupancy
  Al  Al0  1  0.12157179  0.07814405  0.39918866  1
  Al  Al1  1  0.22626216  0.21469678  0.03999733  1
  Al  Al2  1  0.88245512  0.21347745  0.56145857  1
  Al  Al3  1  0.43364231  0.08984094  0.31294421  1
  Al  Al4  1  0.54347050  0.21308085  0.05617038  1
  Al  Al5  1  0.11335578  0.09927432  0.85998668  1
  Al  Al6  1  0.22762983  0.20608121  0.57147270  1
  Al  Al7  1  0.88286250  0.22144973  0.04535042  1
  Al  Al8  1  0.43784653  0.09890545  0.80402354  1
  Al  Al9  1  0.54458755  0.21043928  0.55239005  1
  Al  Al10  1  0.21980806  0.53938624  0.05187200  1
  Al  Al11  1  0.78325292  0.43139396  0.80208687  1
  Al  Al12  1  0.88783857  0.53680690  0.56684656  1
  Al  Al13  1  0.43926233  0.43319577  0.31086035  1
  Al  Al14  1  0.56184109  0.54062118  0.12829034  1
  Al  Al15  1  0.11151188  0.43152938  0.80669471  1
  Al  Al16  1  0.22563779  0.54259839  0.56414396  1
  Al  Al17  1  0.78617664  0.42183438  0.31339820  1
  Al  Al18  1  0.88963025  0.53706831  0.04095439  1
  Al  Al19  1  0.43365422  0.43003337  0.80940957  1
  Al  Al20  1  0.55196261  0.54030408  0.63134842  1
  Al  Al21  1  0.11689171  0.75276133  0.31810602  1
  Al  Al22  1  0.78016559  0.75625497  0.80527078  1
  Al  Al23  1  0.89567704  0.86677635  0.56103360  1
  Al  Al24  1  0.43591821  0.75398393  0.39343959  1
  Al  Al25  1  0.56516646  0.87614969  0.04090273  1
  Al  Al26  1  0.11397395  0.75204173  0.80831817  1
  Al  Al27  1  0.22603108  0.87227386  0.63701813  1
  Al  Al28  1  0.89375687  0.86041087  0.04692599  1
  Al  Al29  1  0.45335154  0.75135666  0.87215183  1
  Al  Al30  1  0.55382024  0.87744026  0.56651470  1
  Gd  Gd31  1  0.76780524  0.09685844  0.81116053  1
  Gd  Gd32  1  0.77893899  0.09533299  0.30711352  1
  Gd  Gd33  1  0.12048547  0.41864815  0.30692289  1
  Gd  Gd34  1  0.22927889  0.87749520  0.11679988  1
  Gd  Gd35  1  0.76786097  0.75663594  0.30395976  1
  N  N36  1  0.23590333  0.18149810  0.38930307  1
  N  N37  1  0.10164634  0.12220817  0.05727629  1
  N  N38  1  0.89191940  0.22637781  0.86276750  1
  N  N39  1  0.77161606  0.09785060  0.58964197  1
  N  N40  1  0.52063152  0.22074879  0.37042065  1
  N  N41  1  0.44197477  0.09136951  0.11953831  1
  N  N42  1  0.22479376  0.21063657  0.85418909  1
  N  N43  1  0.11130931  0.09058560  0.59088080  1
  N  N44  1  0.90147937  0.21666377  0.37970727  1
  N  N45  1  0.77755520  0.09601230  0.08080106  1
  N  N46  1  0.51639305  0.22553047  0.87837726  1
  N  N47  1  0.44727798  0.09559840  0.62376538  1
  N  N48  1  0.24056944  0.55125665  0.38561043  1
  N  N49  1  0.11093668  0.42902109  0.08808745  1
  N  N50  1  0.88871223  0.53892331  0.85797454  1
  N  N51  1  0.77938602  0.42758692  0.62059572  1
  N  N52  1  0.55708636  0.54416775  0.31786975  1
  N  N53  1  0.43790460  0.42987774  0.12218229  1
  N  N54  1  0.22281758  0.54227600  0.86820018  1
  N  N55  1  0.11237904  0.43120713  0.61946955  1
  N  N56  1  0.88158362  0.52383756  0.38993296  1
  N  N57  1  0.78865513  0.42663779  0.12301838  1
  N  N58  1  0.55536640  0.53838136  0.81636503  1
  N  N59  1  0.44156932  0.42204678  0.62358523  1
  N  N60  1  0.22316756  0.87077258  0.33540423  1
  N  N61  1  0.09389893  0.74353737  0.13110397  1
  N  N62  1  0.90760045  0.84145612  0.86810685  1
  N  N63  1  0.77676990  0.76255452  0.61927319  1
  N  N64  1  0.52948217  0.88586198  0.38485330  1
  N  N65  1  0.48032154  0.73872764  0.05212063  1
  N  N66  1  0.22802940  0.87219519  0.82644642  1
  N  N67  1  0.11047821  0.75884780  0.62707755  1
  N  N68  1  0.91516633  0.85191126  0.38504463  1
  N  N69  1  0.77799257  0.75928182  0.08861847  1
  N  N70  1  0.55793874  0.88028678  0.85671703  1
  N  N71  1  0.44140139  0.75520800  0.57772361  1
