# generated using pymatgen
data_Gd5Al31N36
_symmetry_space_group_name_H-M   'P 1'
_cell_length_a   9.74282182
_cell_length_b   9.70592601
_cell_length_c   10.27715798
_cell_angle_alpha   90.40268551
_cell_angle_beta   90.15082061
_cell_angle_gamma   59.81172414
_symmetry_Int_Tables_number   1
_chemical_formula_structural   Gd5Al31N36
_chemical_formula_sum   'Gd5 Al31 N36'
_cell_volume   840.01563144
_cell_formula_units_Z   1
loop_
 _symmetry_equiv_pos_site_id
 _symmetry_equiv_pos_as_xyz
  1  'x, y, z'
loop_
 _atom_site_type_symbol
 _atom_site_label
 _atom_site_symmetry_multiplicity
 _atom_site_fract_x
 _atom_site_fract_y
 _atom_site_fract_z
 _atom_site_occupancy
  Al  Al0  1  0.11416170  0.09467650  0.40944488  1
  Al  Al1  1  0.22217975  0.20265473  0.13989071  1
  Al  Al2  1  0.89117375  0.20849760  0.65314406  1
  Al  Al3  1  0.43016430  0.08805138  0.39178368  1
  Al  Al4  1  0.54011785  0.21223023  0.14968299  1
  Al  Al5  1  0.11236841  0.10037333  0.89258418  1
  Al  Al6  1  0.22271307  0.20355897  0.65580772  1
  Al  Al7  1  0.89064262  0.21680782  0.15197014  1
  Al  Al8  1  0.43750419  0.09625664  0.89689497  1
  Al  Al9  1  0.54393438  0.20787757  0.64783788  1
  Al  Al10  1  0.22772597  0.54339616  0.13917538  1
  Al  Al11  1  0.77686988  0.43062243  0.89770442  1
  Al  Al12  1  0.88905830  0.53325610  0.60484924  1
  Al  Al13  1  0.44267401  0.43793686  0.39427120  1
  Al  Al14  1  0.56261941  0.53442328  0.14594014  1
  Al  Al15  1  0.11893661  0.42501834  0.89529169  1
  Al  Al16  1  0.22374476  0.53645952  0.65602430  1
  Al  Al17  1  0.77459146  0.42512234  0.40075637  1
  Al  Al18  1  0.89165424  0.53850890  0.08760918  1
  Al  Al19  1  0.43992513  0.43143009  0.89635277  1
  Al  Al20  1  0.55581612  0.53412007  0.64943317  1
  Al  Al21  1  0.12435873  0.75982539  0.40890011  1
  Al  Al22  1  0.77661134  0.76120272  0.89659925  1
  Al  Al23  1  0.89243855  0.86250219  0.65818546  1
  Al  Al24  1  0.44406482  0.75764597  0.40815030  1
  Al  Al25  1  0.55208783  0.87216168  0.13846905  1
  Al  Al26  1  0.11484083  0.75450521  0.89187855  1
  Al  Al27  1  0.22331469  0.87130105  0.64423056  1
  Al  Al28  1  0.89641070  0.86639176  0.14491990  1
  Al  Al29  1  0.44837244  0.75629819  0.89218517  1
  Al  Al30  1  0.55493272  0.87049890  0.65568403  1
  Gd  Gd31  1  0.77312117  0.10075328  0.89575549  1
  Gd  Gd32  1  0.77176431  0.10283869  0.38981766  1
  Gd  Gd33  1  0.13667559  0.42019411  0.38458539  1
  Gd  Gd34  1  0.22397261  0.87300688  0.15850197  1
  Gd  Gd35  1  0.76744193  0.77397892  0.38780386  1
  N  N36  1  0.22789521  0.17210203  0.32285607  1
  N  N37  1  0.09559323  0.11990937  0.07549855  1
  N  N38  1  0.90220365  0.22331209  0.83288792  1
  N  N39  1  0.77659705  0.09180869  0.62034371  1
  N  N40  1  0.50636120  0.22570790  0.33381353  1
  N  N41  1  0.44306591  0.09350609  0.08261984  1
  N  N42  1  0.22424275  0.20401229  0.84099052  1
  N  N43  1  0.10986451  0.09835634  0.59641662  1
  N  N44  1  0.90700099  0.21715230  0.33666438  1
  N  N45  1  0.77207238  0.10072818  0.12373516  1
  N  N46  1  0.51996331  0.22148290  0.83082987  1
  N  N47  1  0.44195552  0.08905154  0.58449696  1
  N  N48  1  0.24465582  0.56759206  0.32096138  1
  N  N49  1  0.12166883  0.42533393  0.09695095  1
  N  N50  1  0.89222412  0.53809380  0.88755589  1
  N  N51  1  0.77222837  0.42253105  0.59070732  1
  N  N52  1  0.56091818  0.53558282  0.33854536  1
  N  N53  1  0.44884396  0.42768487  0.08335945  1
  N  N54  1  0.22604900  0.53715572  0.84056277  1
  N  N55  1  0.11406590  0.42452913  0.61161991  1
  N  N56  1  0.88455357  0.52615310  0.38023468  1
  N  N57  1  0.77555567  0.42654912  0.08843327  1
  N  N58  1  0.55780587  0.53306526  0.83598531  1
  N  N59  1  0.44133868  0.42853812  0.58483978  1
  N  N60  1  0.22487990  0.87424809  0.38104987  1
  N  N61  1  0.10132032  0.75081659  0.07239676  1
  N  N62  1  0.90194106  0.84535108  0.83915511  1
  N  N63  1  0.77560759  0.75901403  0.61158014  1
  N  N64  1  0.51890193  0.87964426  0.32231706  1
  N  N65  1  0.47092561  0.74335755  0.07522058  1
  N  N66  1  0.22274988  0.87225492  0.83844661  1
  N  N67  1  0.11107706  0.75528095  0.59651745  1
  N  N68  1  0.93088929  0.85656747  0.32486569  1
  N  N69  1  0.77396260  0.76920007  0.09609985  1
  N  N70  1  0.55446069  0.87403986  0.84184285  1
  N  N71  1  0.45119314  0.75536726  0.59677783  1
