# generated using pymatgen
data_Gd5Al31N36
_symmetry_space_group_name_H-M   'P 1'
_cell_length_a   9.71248616
_cell_length_b   9.71191689
_cell_length_c   10.53661110
_cell_angle_alpha   91.09086328
_cell_angle_beta   90.66020434
_cell_angle_gamma   59.94152450
_symmetry_Int_Tables_number   1
_chemical_formula_structural   Gd5Al31N36
_chemical_formula_sum   'Gd5 Al31 N36'
_cell_volume   860.06422920
_cell_formula_units_Z   1
loop_
 _symmetry_equiv_pos_site_id
 _symmetry_equiv_pos_as_xyz
  1  'x, y, z'
loop_
 _atom_site_type_symbol
 _atom_site_label
 _atom_site_symmetry_multiplicity
 _atom_site_fract_x
 _atom_site_fract_y
 _atom_site_fract_z
 _atom_site_occupancy
  Al  Al0  1  0.11522325  0.08540964  0.40701750  1
  Al  Al1  1  0.22569089  0.21646986  0.05087158  1
  Al  Al2  1  0.89126471  0.21128640  0.64146505  1
  Al  Al3  1  0.43209631  0.08716599  0.31701730  1
  Al  Al4  1  0.54460250  0.21192268  0.11905540  1
  Al  Al5  1  0.10977973  0.09932983  0.87939921  1
  Al  Al6  1  0.22809206  0.19950263  0.58075512  1
  Al  Al7  1  0.89642814  0.22319031  0.13368278  1
  Al  Al8  1  0.43738488  0.09342517  0.81873950  1
  Al  Al9  1  0.54870923  0.20920078  0.61487606  1
  Al  Al10  1  0.22742314  0.54644895  0.13622750  1
  Al  Al11  1  0.77421507  0.43157392  0.88290778  1
  Al  Al12  1  0.88525734  0.53880057  0.58200357  1
  Al  Al13  1  0.43839266  0.43678558  0.38119902  1
  Al  Al14  1  0.56593362  0.53762905  0.13647164  1
  Al  Al15  1  0.10920711  0.42279453  0.81457723  1
  Al  Al16  1  0.22720941  0.53704083  0.64252256  1
  Al  Al17  1  0.77180114  0.42710519  0.39780477  1
  Al  Al18  1  0.89882215  0.54272712  0.04891255  1
  Al  Al19  1  0.43367665  0.43410840  0.89636581  1
  Al  Al20  1  0.55359375  0.53306300  0.64239092  1
  Al  Al21  1  0.12726300  0.75428407  0.40731151  1
  Al  Al22  1  0.77708403  0.75611741  0.81554248  1
  Al  Al23  1  0.88944112  0.86712988  0.58141528  1
  Al  Al24  1  0.43848934  0.75593235  0.40661131  1
  Al  Al25  1  0.56319723  0.87317373  0.04981812  1
  Al  Al26  1  0.12069679  0.74723458  0.88290891  1
  Al  Al27  1  0.22326630  0.86863532  0.64696315  1
  Al  Al28  1  0.89004087  0.86384709  0.05679982  1
  Al  Al29  1  0.44742275  0.75146159  0.88161868  1
  Al  Al30  1  0.55372303  0.87512202  0.57887036  1
  Gd  Gd31  1  0.77363280  0.10315655  0.85970136  1
  Gd  Gd32  1  0.77785815  0.10360482  0.34806901  1
  Gd  Gd33  1  0.11311726  0.41219037  0.32671992  1
  Gd  Gd34  1  0.22669015  0.87952682  0.14141728  1
  Gd  Gd35  1  0.76819846  0.76023538  0.31411764  1
  N  N36  1  0.24253575  0.17514676  0.40230122  1
  N  N37  1  0.09650650  0.12196859  0.06045519  1
  N  N38  1  0.90549608  0.22853232  0.81689531  1
  N  N39  1  0.77232736  0.09754537  0.61182682  1
  N  N40  1  0.51503316  0.22730209  0.31857363  1
  N  N41  1  0.43660142  0.08407540  0.12545120  1
  N  N42  1  0.22472368  0.20773179  0.86813051  1
  N  N43  1  0.10709054  0.08763572  0.58996105  1
  N  N44  1  0.91895800  0.22627224  0.31842386  1
  N  N45  1  0.78251731  0.09338153  0.10716219  1
  N  N46  1  0.51907160  0.21962486  0.87032523  1
  N  N47  1  0.44411612  0.09246107  0.63688903  1
  N  N48  1  0.23336190  0.56233990  0.31990288  1
  N  N49  1  0.11468706  0.43102924  0.10746892  1
  N  N50  1  0.89039396  0.53999474  0.86657945  1
  N  N51  1  0.76733567  0.42151711  0.58215218  1
  N  N52  1  0.55997054  0.53856889  0.32787401  1
  N  N53  1  0.44469147  0.43710155  0.08029748  1
  N  N54  1  0.22773364  0.53605183  0.82378323  1
  N  N55  1  0.10908971  0.42218943  0.62796002  1
  N  N56  1  0.87653552  0.53724498  0.40543564  1
  N  N57  1  0.77765444  0.43116581  0.07050798  1
  N  N58  1  0.55465025  0.53057590  0.82570979  1
  N  N59  1  0.44068626  0.42701483  0.57134523  1
  N  N60  1  0.22253223  0.87123183  0.35758242  1
  N  N61  1  0.11174949  0.74675422  0.06580447  1
  N  N62  1  0.89916159  0.84475049  0.87150770  1
  N  N63  1  0.77458565  0.76100489  0.63295061  1
  N  N64  1  0.53040954  0.88680132  0.39659244  1
  N  N65  1  0.47304630  0.74168496  0.06452443  1
  N  N66  1  0.22233466  0.87131088  0.83283714  1
  N  N67  1  0.12121903  0.75195736  0.59306641  1
  N  N68  1  0.90871503  0.85636973  0.40042272  1
  N  N69  1  0.77937143  0.76054963  0.09892785  1
  N  N70  1  0.55534029  0.87437453  0.86699327  1
  N  N71  1  0.44436730  0.75221150  0.59165859  1
