# generated using pymatgen
data_Gd5Al31N36
_symmetry_space_group_name_H-M   'P 1'
_cell_length_a   9.76254190
_cell_length_b   9.70511192
_cell_length_c   10.31526145
_cell_angle_alpha   90.42022801
_cell_angle_beta   90.15583903
_cell_angle_gamma   59.75324500
_symmetry_Int_Tables_number   1
_chemical_formula_structural   Gd5Al31N36
_chemical_formula_sum   'Gd5 Al31 N36'
_cell_volume   844.26179219
_cell_formula_units_Z   1
loop_
 _symmetry_equiv_pos_site_id
 _symmetry_equiv_pos_as_xyz
  1  'x, y, z'
loop_
 _atom_site_type_symbol
 _atom_site_label
 _atom_site_symmetry_multiplicity
 _atom_site_fract_x
 _atom_site_fract_y
 _atom_site_fract_z
 _atom_site_occupancy
  Al  Al0  1  0.11372192  0.09525111  0.40825407  1
  Al  Al1  1  0.22022661  0.20606641  0.14040832  1
  Al  Al2  1  0.88969447  0.20676190  0.65521411  1
  Al  Al3  1  0.42944408  0.08919614  0.39115618  1
  Al  Al4  1  0.53904792  0.21276138  0.14975570  1
  Al  Al5  1  0.11199388  0.09960059  0.89373938  1
  Al  Al6  1  0.22431650  0.19822064  0.65325306  1
  Al  Al7  1  0.89126155  0.22012807  0.15066625  1
  Al  Al8  1  0.43765440  0.09501117  0.89732367  1
  Al  Al9  1  0.54450856  0.20720457  0.64799588  1
  Al  Al10  1  0.22555193  0.54364876  0.13992783  1
  Al  Al11  1  0.77619501  0.42913939  0.89839073  1
  Al  Al12  1  0.88869697  0.52860404  0.59471259  1
  Al  Al13  1  0.44333965  0.43885193  0.39339027  1
  Al  Al14  1  0.56481302  0.53475198  0.14451656  1
  Al  Al15  1  0.11330751  0.42689927  0.85192200  1
  Al  Al16  1  0.22752360  0.53847580  0.65375876  1
  Al  Al17  1  0.77399777  0.42474076  0.40427709  1
  Al  Al18  1  0.89384687  0.54671489  0.07913368  1
  Al  Al19  1  0.44009155  0.43024065  0.89741632  1
  Al  Al20  1  0.55497288  0.53300671  0.65094950  1
  Al  Al21  1  0.12658848  0.76167532  0.40863620  1
  Al  Al22  1  0.77999450  0.75071127  0.82927265  1
  Al  Al23  1  0.89747604  0.86662004  0.65223667  1
  Al  Al24  1  0.44277146  0.75814421  0.40729279  1
  Al  Al25  1  0.55595509  0.86983149  0.14149675  1
  Al  Al26  1  0.11483438  0.75367642  0.89326060  1
  Al  Al27  1  0.22321784  0.87103970  0.64612371  1
  Al  Al28  1  0.89646953  0.86485350  0.15102316  1
  Al  Al29  1  0.44903499  0.75622444  0.89316029  1
  Al  Al30  1  0.54506980  0.87458242  0.65026535  1
  Gd  Gd31  1  0.77378186  0.09479350  0.89945685  1
  Gd  Gd32  1  0.77037293  0.10848668  0.38765799  1
  Gd  Gd33  1  0.13634259  0.42157395  0.37776380  1
  Gd  Gd34  1  0.22471719  0.87323761  0.15697825  1
  Gd  Gd35  1  0.76877595  0.77197178  0.37972117  1
  N  N36  1  0.22809727  0.17233874  0.32437377  1
  N  N37  1  0.09646911  0.12049191  0.07539543  1
  N  N38  1  0.90110368  0.22010955  0.83473937  1
  N  N39  1  0.77563170  0.09172655  0.61735773  1
  N  N40  1  0.50457647  0.22709312  0.33328023  1
  N  N41  1  0.44351926  0.09251679  0.08252478  1
  N  N42  1  0.22543023  0.19969699  0.83813935  1
  N  N43  1  0.10827195  0.09740467  0.59558824  1
  N  N44  1  0.90764385  0.22119542  0.33467052  1
  N  N45  1  0.77207582  0.10117682  0.12592032  1
  N  N46  1  0.52117660  0.21970798  0.83063473  1
  N  N47  1  0.44073116  0.09040957  0.58258315  1
  N  N48  1  0.24619468  0.56969580  0.32215772  1
  N  N49  1  0.11576779  0.42978566  0.11913999  1
  N  N50  1  0.89142290  0.53978953  0.88507472  1
  N  N51  1  0.76909341  0.41862637  0.59429602  1
  N  N52  1  0.56330127  0.53549456  0.33765357  1
  N  N53  1  0.44812999  0.42868032  0.08346898  1
  N  N54  1  0.22807173  0.53812408  0.83813290  1
  N  N55  1  0.11313911  0.42523961  0.62771744  1
  N  N56  1  0.88631081  0.52511633  0.41019853  1
  N  N57  1  0.77719110  0.42929395  0.08607615  1
  N  N58  1  0.55701481  0.53322523  0.83668749  1
  N  N59  1  0.44202699  0.42745850  0.58384282  1
  N  N60  1  0.22529932  0.87587177  0.37795547  1
  N  N61  1  0.09893793  0.75238796  0.07313461  1
  N  N62  1  0.90647793  0.84354246  0.83251277  1
  N  N63  1  0.77506162  0.75647077  0.62870552  1
  N  N64  1  0.51724569  0.88088326  0.32666344  1
  N  N65  1  0.47202786  0.74459334  0.07525042  1
  N  N66  1  0.22297656  0.87140166  0.83930014  1
  N  N67  1  0.11420775  0.75522162  0.59442797  1
  N  N68  1  0.93111939  0.86167131  0.33210582  1
  N  N69  1  0.77840629  0.76177544  0.13338811  1
  N  N70  1  0.55099621  0.87446449  0.83606934  1
  N  N71  1  0.44871604  0.75419183  0.59525038  1
