# generated using pymatgen
data_Gd5Al31N36
_symmetry_space_group_name_H-M   'P 1'
_cell_length_a   9.66576548
_cell_length_b   9.65233077
_cell_length_c   10.62917602
_cell_angle_alpha   90.78122604
_cell_angle_beta   90.46802915
_cell_angle_gamma   60.04312677
_symmetry_Int_Tables_number   1
_chemical_formula_structural   Gd5Al31N36
_chemical_formula_sum   'Gd5 Al31 N36'
_cell_volume   859.10519004
_cell_formula_units_Z   1
loop_
 _symmetry_equiv_pos_site_id
 _symmetry_equiv_pos_as_xyz
  1  'x, y, z'
loop_
 _atom_site_type_symbol
 _atom_site_label
 _atom_site_symmetry_multiplicity
 _atom_site_fract_x
 _atom_site_fract_y
 _atom_site_fract_z
 _atom_site_occupancy
  Al  Al0  1  0.11256049  0.08675378  0.41815432  1
  Al  Al1  1  0.22639766  0.21506730  0.06659153  1
  Al  Al2  1  0.89122715  0.20785732  0.65948990  1
  Al  Al3  1  0.43088722  0.08772848  0.33106867  1
  Al  Al4  1  0.54778103  0.21315882  0.15456591  1
  Al  Al5  1  0.11136507  0.09797936  0.89506964  1
  Al  Al6  1  0.22784658  0.19880711  0.58974246  1
  Al  Al7  1  0.89367801  0.22010395  0.15274713  1
  Al  Al8  1  0.43538612  0.09289816  0.82501067  1
  Al  Al9  1  0.54669341  0.21304135  0.65636487  1
  Al  Al10  1  0.22844951  0.54538309  0.14279329  1
  Al  Al11  1  0.77543111  0.43037822  0.89766889  1
  Al  Al12  1  0.88622337  0.53558131  0.59322845  1
  Al  Al13  1  0.43876322  0.43838412  0.39664916  1
  Al  Al14  1  0.56712055  0.53502830  0.14670858  1
  Al  Al15  1  0.11065606  0.42319413  0.82679826  1
  Al  Al16  1  0.22693852  0.53746264  0.65271902  1
  Al  Al17  1  0.77353600  0.42448477  0.41009962  1
  Al  Al18  1  0.89973409  0.54420618  0.06171526  1
  Al  Al19  1  0.43646289  0.43345594  0.90102575  1
  Al  Al20  1  0.55442700  0.53247333  0.65405466  1
  Al  Al21  1  0.11983005  0.75937876  0.41181839  1
  Al  Al22  1  0.77568276  0.75339325  0.82612750  1
  Al  Al23  1  0.89483542  0.86450826  0.65407936  1
  Al  Al24  1  0.43734220  0.75543528  0.41882302  1
  Al  Al25  1  0.56450574  0.87491085  0.06239963  1
  Al  Al26  1  0.11443663  0.75168775  0.89354796  1
  Al  Al27  1  0.22267956  0.86863412  0.65570425  1
  Al  Al28  1  0.89611239  0.87152537  0.13801953  1
  Al  Al29  1  0.44716391  0.75316561  0.89391321  1
  Al  Al30  1  0.55244288  0.87440430  0.58839013  1
  Gd  Gd31  1  0.77516229  0.09840824  0.89589858  1
  Gd  Gd32  1  0.77093422  0.10778165  0.40334776  1
  Gd  Gd33  1  0.11568410  0.41651298  0.33754492  1
  Gd  Gd34  1  0.22835743  0.87572261  0.15626451  1
  Gd  Gd35  1  0.76165409  0.75434786  0.32492168  1
  N  N36  1  0.23907379  0.17870825  0.41265186  1
  N  N37  1  0.09604024  0.11914980  0.07567467  1
  N  N38  1  0.90428889  0.22406891  0.83327251  1
  N  N39  1  0.77457118  0.09283686  0.62486528  1
  N  N40  1  0.51621820  0.22843785  0.33205281  1
  N  N41  1  0.43859914  0.08481259  0.13971200  1
  N  N42  1  0.22755055  0.20875256  0.88589462  1
  N  N43  1  0.10482764  0.08804434  0.60055760  1
  N  N44  1  0.91294821  0.22177693  0.33341668  1
  N  N45  1  0.77634098  0.09991853  0.11842647  1
  N  N46  1  0.52406700  0.22779872  0.83474210  1
  N  N47  1  0.44083239  0.08795881  0.64660615  1
  N  N48  1  0.23867562  0.56471645  0.32615223  1
  N  N49  1  0.11464563  0.43065451  0.12083581  1
  N  N50  1  0.89234124  0.53979530  0.88171822  1
  N  N51  1  0.76837652  0.41692968  0.59388543  1
  N  N52  1  0.56181902  0.53898890  0.33825590  1
  N  N53  1  0.44812656  0.42835300  0.08503585  1
  N  N54  1  0.22743435  0.53929395  0.83456606  1
  N  N55  1  0.10951109  0.42065512  0.64241165  1
  N  N56  1  0.88160583  0.53259590  0.41919652  1
  N  N57  1  0.77955296  0.42911494  0.08391411  1
  N  N58  1  0.55694363  0.53348735  0.83690534  1
  N  N59  1  0.44164296  0.42564738  0.58342727  1
  N  N60  1  0.22392543  0.87264115  0.37005293  1
  N  N61  1  0.10368415  0.75095679  0.07227138  1
  N  N62  1  0.90655937  0.84615735  0.83240773  1
  N  N63  1  0.77017650  0.75596833  0.64265359  1
  N  N64  1  0.52782627  0.88890169  0.40942454  1
  N  N65  1  0.47323864  0.74117499  0.07537418  1
  N  N66  1  0.22333808  0.87183324  0.84206020  1
  N  N67  1  0.11364023  0.75422203  0.59496167  1
  N  N68  1  0.91519441  0.86045630  0.34367827  1
  N  N69  1  0.78094367  0.76370540  0.10986354  1
  N  N70  1  0.55699816  0.87778736  0.88189100  1
  N  N71  1  0.44325476  0.75023944  0.60147561  1
