# generated using pymatgen
data_Gd5Al31N36
_symmetry_space_group_name_H-M   'P 1'
_cell_length_a   9.66563046
_cell_length_b   9.63232698
_cell_length_c   10.66109524
_cell_angle_alpha   90.84808645
_cell_angle_beta   90.91142515
_cell_angle_gamma   60.31266865
_symmetry_Int_Tables_number   1
_chemical_formula_structural   Gd5Al31N36
_chemical_formula_sum   'Gd5 Al31 N36'
_cell_volume   862.15394895
_cell_formula_units_Z   1
loop_
 _symmetry_equiv_pos_site_id
 _symmetry_equiv_pos_as_xyz
  1  'x, y, z'
loop_
 _atom_site_type_symbol
 _atom_site_label
 _atom_site_symmetry_multiplicity
 _atom_site_fract_x
 _atom_site_fract_y
 _atom_site_fract_z
 _atom_site_occupancy
  Al  Al0  1  0.11111965  0.09018919  0.39739982  1
  Al  Al1  1  0.22575136  0.21379068  0.04485457  1
  Al  Al2  1  0.89273575  0.20977390  0.62901831  1
  Al  Al3  1  0.43280351  0.09245046  0.31901632  1
  Al  Al4  1  0.54525190  0.21254910  0.06553927  1
  Al  Al5  1  0.10661704  0.09953743  0.87358618  1
  Al  Al6  1  0.22817312  0.20365713  0.57090479  1
  Al  Al7  1  0.89381945  0.22068314  0.12244523  1
  Al  Al8  1  0.43402800  0.09905254  0.81097215  1
  Al  Al9  1  0.54640628  0.20942356  0.55835570  1
  Al  Al10  1  0.22965886  0.52995957  0.04718195  1
  Al  Al11  1  0.77542272  0.42733547  0.87613200  1
  Al  Al12  1  0.88943230  0.53730580  0.57211146  1
  Al  Al13  1  0.44221425  0.43530472  0.31437652  1
  Al  Al14  1  0.56865283  0.53975469  0.12963314  1
  Al  Al15  1  0.11034151  0.42657431  0.80735108  1
  Al  Al16  1  0.23260118  0.53112176  0.57690457  1
  Al  Al17  1  0.77518786  0.42200934  0.38999260  1
  Al  Al18  1  0.89638088  0.54382729  0.03922603  1
  Al  Al19  1  0.43518058  0.42676731  0.81314256  1
  Al  Al20  1  0.55914271  0.53575093  0.63891419  1
  Al  Al21  1  0.12643046  0.76189603  0.41204431  1
  Al  Al22  1  0.77633428  0.75429291  0.80683408  1
  Al  Al23  1  0.88680654  0.86692448  0.57047060  1
  Al  Al24  1  0.43686951  0.75571752  0.40207632  1
  Al  Al25  1  0.56345179  0.87683833  0.04533838  1
  Al  Al26  1  0.11667506  0.75720205  0.87121041  1
  Al  Al27  1  0.22279348  0.87176766  0.64251184  1
  Al  Al28  1  0.88656718  0.86923240  0.04429358  1
  Al  Al29  1  0.44827591  0.75401734  0.87747556  1
  Al  Al30  1  0.55161903  0.87734903  0.57295282  1
  Gd  Gd31  1  0.76014666  0.09947294  0.81859926  1
  Gd  Gd32  1  0.77814621  0.08951289  0.32099257  1
  Gd  Gd33  1  0.12132855  0.42569547  0.31161069  1
  Gd  Gd34  1  0.22690200  0.87635836  0.13666298  1
  Gd  Gd35  1  0.76326716  0.75319886  0.30618407  1
  N  N36  1  0.23456494  0.18660362  0.39126755  1
  N  N37  1  0.09567495  0.11940682  0.05293503  1
  N  N38  1  0.90136775  0.22265068  0.80750664  1
  N  N39  1  0.77335313  0.09569397  0.59618270  1
  N  N40  1  0.52085981  0.22357824  0.37788145  1
  N  N41  1  0.44128039  0.09067267  0.12699238  1
  N  N42  1  0.22318026  0.20843207  0.86257466  1
  N  N43  1  0.10840287  0.09026347  0.57968384  1
  N  N44  1  0.91222433  0.22133325  0.30906462  1
  N  N45  1  0.77784824  0.09569782  0.09524074  1
  N  N46  1  0.51278591  0.22653338  0.89009891  1
  N  N47  1  0.44597305  0.09549874  0.63103988  1
  N  N48  1  0.25144324  0.54511847  0.39766706  1
  N  N49  1  0.11276547  0.42997077  0.09463193  1
  N  N50  1  0.89058167  0.53865019  0.85908628  1
  N  N51  1  0.76853784  0.42201974  0.57256189  1
  N  N52  1  0.56520853  0.54653380  0.31770317  1
  N  N53  1  0.43938486  0.43058118  0.12914475  1
  N  N54  1  0.22511543  0.53357015  0.86375602  1
  N  N55  1  0.11236841  0.42585263  0.62486609  1
  N  N56  1  0.88863232  0.52723593  0.39663692  1
  N  N57  1  0.77663914  0.42998458  0.06103585  1
  N  N58  1  0.55941997  0.53736725  0.81989291  1
  N  N59  1  0.44707335  0.41617064  0.63328379  1
  N  N60  1  0.22102042  0.87254135  0.35038251  1
  N  N61  1  0.10753209  0.75199381  0.05883116  1
  N  N62  1  0.89617189  0.84786267  0.86324364  1
  N  N63  1  0.77288234  0.75948236  0.62570403  1
  N  N64  1  0.52847928  0.88944402  0.39329453  1
  N  N65  1  0.47192066  0.74369191  0.05729016  1
  N  N66  1  0.22482640  0.87364481  0.82520385  1
  N  N67  1  0.11386214  0.76016146  0.59757714  1
  N  N68  1  0.91100294  0.84584368  0.39139939  1
  N  N69  1  0.77998567  0.76095836  0.09288981  1
  N  N70  1  0.55594534  0.87994670  0.86316574  1
  N  N71  1  0.44217082  0.75248963  0.58413194  1
