# generated using pymatgen
data_Gd5Al31N36
_symmetry_space_group_name_H-M   'P 1'
_cell_length_a   9.66600691
_cell_length_b   9.63257397
_cell_length_c   10.66069746
_cell_angle_alpha   90.84209096
_cell_angle_beta   90.91090322
_cell_angle_gamma   60.31029436
_symmetry_Int_Tables_number   1
_chemical_formula_structural   Gd5Al31N36
_chemical_formula_sum   'Gd5 Al31 N36'
_cell_volume   862.15801080
_cell_formula_units_Z   1
loop_
 _symmetry_equiv_pos_site_id
 _symmetry_equiv_pos_as_xyz
  1  'x, y, z'
loop_
 _atom_site_type_symbol
 _atom_site_label
 _atom_site_symmetry_multiplicity
 _atom_site_fract_x
 _atom_site_fract_y
 _atom_site_fract_z
 _atom_site_occupancy
  Al  Al0  1  0.11113188  0.09023109  0.40578290  1
  Al  Al1  1  0.22582354  0.21368963  0.05331791  1
  Al  Al2  1  0.89277832  0.20976248  0.63744169  1
  Al  Al3  1  0.43280816  0.09246589  0.32743946  1
  Al  Al4  1  0.54531568  0.21245412  0.07397655  1
  Al  Al5  1  0.10669062  0.09948721  0.88202487  1
  Al  Al6  1  0.22819804  0.20365913  0.57929853  1
  Al  Al7  1  0.89388042  0.22060733  0.13087339  1
  Al  Al8  1  0.43408578  0.09900311  0.81939768  1
  Al  Al9  1  0.54644611  0.20939160  0.56681070  1
  Al  Al10  1  0.22972966  0.52984523  0.05559070  1
  Al  Al11  1  0.77547944  0.42729788  0.88453928  1
  Al  Al12  1  0.88944944  0.53730479  0.58052267  1
  Al  Al13  1  0.44224925  0.43529067  0.32281343  1
  Al  Al14  1  0.56870666  0.53967827  0.13803977  1
  Al  Al15  1  0.11039478  0.42651178  0.81577105  1
  Al  Al16  1  0.23264508  0.53111311  0.58533946  1
  Al  Al17  1  0.77518603  0.42204084  0.39839454  1
  Al  Al18  1  0.89644384  0.54372129  0.04766271  1
  Al  Al19  1  0.43524039  0.42670747  0.82156356  1
  Al  Al20  1  0.55917573  0.53572479  0.64732487  1
  Al  Al21  1  0.12646604  0.76192339  0.42049556  1
  Al  Al22  1  0.77637622  0.75424705  0.81526274  1
  Al  Al23  1  0.88684482  0.86691109  0.57894202  1
  Al  Al24  1  0.43687553  0.75573077  0.41049735  1
  Al  Al25  1  0.56350113  0.87673863  0.05375157  1
  Al  Al26  1  0.11671490  0.75713150  0.87962178  1
  Al  Al27  1  0.22282062  0.87177117  0.65093706  1
  Al  Al28  1  0.88662323  0.86911786  0.05273640  1
  Al  Al29  1  0.44831567  0.75396054  0.88587665  1
  Al  Al30  1  0.55163872  0.87733492  0.58138556  1
  Gd  Gd31  1  0.76024438  0.09944602  0.82709814  1
  Gd  Gd32  1  0.77817479  0.08953257  0.32946109  1
  Gd  Gd33  1  0.12132030  0.42579661  0.32004924  1
  Gd  Gd34  1  0.22695247  0.87622656  0.14507030  1
  Gd  Gd35  1  0.76326084  0.75327721  0.31462682  1
  N  N36  1  0.23455556  0.18666905  0.39964875  1
  N  N37  1  0.09574658  0.11930776  0.06138475  1
  N  N38  1  0.90145454  0.22262463  0.81592932  1
  N  N39  1  0.77339109  0.09567726  0.60465912  1
  N  N40  1  0.52088419  0.22356279  0.38632726  1
  N  N41  1  0.44136682  0.09057157  0.13542188  1
  N  N42  1  0.22325062  0.20837072  0.87102537  1
  N  N43  1  0.10843441  0.09026692  0.58808111  1
  N  N44  1  0.91221594  0.22136538  0.31748436  1
  N  N45  1  0.77792107  0.09559189  0.10368475  1
  N  N46  1  0.51285605  0.22646374  0.89852308  1
  N  N47  1  0.44598695  0.09548294  0.63945922  1
  N  N48  1  0.25148346  0.54516091  0.40610399  1
  N  N49  1  0.11283714  0.42986739  0.10306911  1
  N  N50  1  0.89064312  0.53859629  0.86751323  1
  N  N51  1  0.76856692  0.42201211  0.58097481  1
  N  N52  1  0.56520393  0.54654405  0.32611303  1
  N  N53  1  0.43945287  0.43048856  0.13757214  1
  N  N54  1  0.22517272  0.53350002  0.87216476  1
  N  N55  1  0.11239806  0.42584255  0.63327161  1
  N  N56  1  0.88860203  0.52729248  0.40503327  1
  N  N57  1  0.77668877  0.42989746  0.06944024  1
  N  N58  1  0.55947182  0.53731008  0.82830676  1
  N  N59  1  0.44711801  0.41614127  0.64170471  1
  N  N60  1  0.22102489  0.87257830  0.35879916  1
  N  N61  1  0.10757917  0.75186939  0.06725934  1
  N  N62  1  0.89620899  0.84780749  0.87167216  1
  N  N63  1  0.77291116  0.75946374  0.63412933  1
  N  N64  1  0.52846311  0.88946297  0.40172917  1
  N  N65  1  0.47196270  0.74361154  0.06568871  1
  N  N66  1  0.22485471  0.87360412  0.83363555  1
  N  N67  1  0.11390342  0.76015123  0.60603392  1
  N  N68  1  0.91103332  0.84585521  0.39985859  1
  N  N69  1  0.78003537  0.76084569  0.10131593  1
  N  N70  1  0.55598719  0.87988200  0.87157710  1
  N  N71  1  0.44219247  0.75247803  0.59256173  1
