# generated using pymatgen
data_Gd5Al31N36
_symmetry_space_group_name_H-M   'P 1'
_cell_length_a   9.70167913
_cell_length_b   9.67271466
_cell_length_c   10.29059074
_cell_angle_alpha   90.00529839
_cell_angle_beta   90.22139928
_cell_angle_gamma   59.95412897
_symmetry_Int_Tables_number   1
_chemical_formula_structural   Gd5Al31N36
_chemical_formula_sum   'Gd5 Al31 N36'
_cell_volume   835.91297676
_cell_formula_units_Z   1
loop_
 _symmetry_equiv_pos_site_id
 _symmetry_equiv_pos_as_xyz
  1  'x, y, z'
loop_
 _atom_site_type_symbol
 _atom_site_label
 _atom_site_symmetry_multiplicity
 _atom_site_fract_x
 _atom_site_fract_y
 _atom_site_fract_z
 _atom_site_occupancy
  Al  Al0  1  0.11422030  0.09720967  0.31295899  1
  Al  Al1  1  0.22139386  0.20804336  0.04721460  1
  Al  Al2  1  0.89130843  0.21041201  0.55324931  1
  Al  Al3  1  0.43303463  0.09263967  0.31058892  1
  Al  Al4  1  0.54453594  0.21068318  0.05445204  1
  Al  Al5  1  0.11531059  0.09637801  0.79974729  1
  Al  Al6  1  0.22467489  0.20137821  0.56223122  1
  Al  Al7  1  0.89273991  0.21642898  0.05407147  1
  Al  Al8  1  0.43677178  0.09742622  0.80574140  1
  Al  Al9  1  0.54339455  0.21118678  0.55348174  1
  Al  Al10  1  0.22133447  0.53622667  0.04746967  1
  Al  Al11  1  0.77879685  0.43138654  0.80545158  1
  Al  Al12  1  0.88618216  0.53680185  0.56793686  1
  Al  Al13  1  0.44190625  0.43573325  0.30878772  1
  Al  Al14  1  0.56375392  0.53555738  0.05958322  1
  Al  Al15  1  0.11383953  0.42720699  0.80633059  1
  Al  Al16  1  0.22821049  0.54115944  0.56248241  1
  Al  Al17  1  0.77690656  0.42781326  0.30894467  1
  Al  Al18  1  0.89024613  0.53593058  0.03798643  1
  Al  Al19  1  0.43901244  0.43341704  0.80805188  1
  Al  Al20  1  0.55769017  0.53499519  0.55775487  1
  Al  Al21  1  0.11906639  0.75570449  0.31377561  1
  Al  Al22  1  0.77861981  0.75680192  0.80587642  1
  Al  Al23  1  0.89395564  0.86607481  0.55861833  1
  Al  Al24  1  0.44617713  0.75807033  0.31574715  1
  Al  Al25  1  0.55856490  0.87057619  0.04621966  1
  Al  Al26  1  0.11741206  0.75620103  0.79793679  1
  Al  Al27  1  0.22226622  0.87191990  0.55543936  1
  Al  Al28  1  0.89319903  0.85971779  0.04292555  1
  Al  Al29  1  0.44495847  0.75901925  0.79926858  1
  Al  Al30  1  0.55007485  0.87554077  0.56362476  1
  Gd  Gd31  1  0.77348873  0.10142255  0.81086538  1
  Gd  Gd32  1  0.77500745  0.09742183  0.30981108  1
  Gd  Gd33  1  0.11749932  0.42658896  0.30775639  1
  Gd  Gd34  1  0.22411851  0.86995960  0.06553066  1
  Gd  Gd35  1  0.76746564  0.75895102  0.30022650  1
  N  N36  1  0.23148777  0.18207281  0.38063308  1
  N  N37  1  0.10047963  0.12462405  0.12729622  1
  N  N38  1  0.90838614  0.22179015  0.87110198  1
  N  N39  1  0.77359807  0.09791540  0.58362910  1
  N  N40  1  0.51596224  0.22345012  0.36878851  1
  N  N41  1  0.44327227  0.09099767  0.11710552  1
  N  N42  1  0.22272537  0.20253428  0.86007852  1
  N  N43  1  0.10972610  0.09395085  0.61393834  1
  N  N44  1  0.90329493  0.21832997  0.37072938  1
  N  N45  1  0.77991780  0.09325835  0.07931414  1
  N  N46  1  0.51854467  0.22383282  0.87306368  1
  N  N47  1  0.44412125  0.09549874  0.62120453  1
  N  N48  1  0.24175411  0.55303628  0.38117571  1
  N  N49  1  0.11111196  0.42726126  0.08441616  1
  N  N50  1  0.88956651  0.53733455  0.85252931  1
  N  N51  1  0.77490959  0.42542337  0.62100069  1
  N  N52  1  0.56024086  0.53336162  0.36850359  1
  N  N53  1  0.44269831  0.43197426  0.11758774  1
  N  N54  1  0.22347092  0.54260727  0.86060071  1
  N  N55  1  0.11457861  0.42766334  0.61439080  1
  N  N56  1  0.87633548  0.52605633  0.38707635  1
  N  N57  1  0.78038873  0.43037209  0.11746079  1
  N  N58  1  0.55693027  0.53863598  0.86849602  1
  N  N59  1  0.44808465  0.42691477  0.62136606  1
  N  N60  1  0.22215491  0.87295920  0.35830945  1
  N  N61  1  0.09632390  0.74140633  0.12736844  1
  N  N62  1  0.90806783  0.84322445  0.85969172  1
  N  N63  1  0.77459056  0.76318476  0.61634480  1
  N  N64  1  0.52677379  0.88596036  0.38153872  1
  N  N65  1  0.47957632  0.74625589  0.12915996  1
  N  N66  1  0.22335250  0.87250672  0.84570952  1
  N  N67  1  0.11350292  0.76174567  0.61478065  1
  N  N68  1  0.91586756  0.85065146  0.37923292  1
  N  N69  1  0.77809336  0.75751090  0.08017418  1
  N  N70  1  0.55127106  0.87371964  0.85861753  1
  N  N71  1  0.44509303  0.75694695  0.61269249  1
