# generated using pymatgen
data_Gd5Al31N36
_symmetry_space_group_name_H-M   'P 1'
_cell_length_a   9.64580680
_cell_length_b   9.61850672
_cell_length_c   10.64299590
_cell_angle_alpha   90.80157068
_cell_angle_beta   90.82279208
_cell_angle_gamma   60.33945294
_symmetry_Int_Tables_number   1
_chemical_formula_structural   Gd5Al31N36
_chemical_formula_sum   'Gd5 Al31 N36'
_cell_volume   857.94157755
_cell_formula_units_Z   1
loop_
 _symmetry_equiv_pos_site_id
 _symmetry_equiv_pos_as_xyz
  1  'x, y, z'
loop_
 _atom_site_type_symbol
 _atom_site_label
 _atom_site_symmetry_multiplicity
 _atom_site_fract_x
 _atom_site_fract_y
 _atom_site_fract_z
 _atom_site_occupancy
  Al  Al0  1  0.11147760  0.08656285  0.42685965  1
  Al  Al1  1  0.22793810  0.22137597  0.05234981  1
  Al  Al2  1  0.88378155  0.20477677  0.66189721  1
  Al  Al3  1  0.43959782  0.09936901  0.42610884  1
  Al  Al4  1  0.54363801  0.21117012  0.15692467  1
  Al  Al5  1  0.10628770  0.09735819  0.89165415  1
  Al  Al6  1  0.21472371  0.20593593  0.60701153  1
  Al  Al7  1  0.89682546  0.22359243  0.15627818  1
  Al  Al8  1  0.43937073  0.09850328  0.84667099  1
  Al  Al9  1  0.55293828  0.21226809  0.65602171  1
  Al  Al10  1  0.23181548  0.54754990  0.14324341  1
  Al  Al11  1  0.77447405  0.42705913  0.90005520  1
  Al  Al12  1  0.88633807  0.53699766  0.59125588  1
  Al  Al13  1  0.43986367  0.43546093  0.39922253  1
  Al  Al14  1  0.56812812  0.53770377  0.14703162  1
  Al  Al15  1  0.10672743  0.42933622  0.82576615  1
  Al  Al16  1  0.22539705  0.53915719  0.65237088  1
  Al  Al17  1  0.77329687  0.42313172  0.41422913  1
  Al  Al18  1  0.90140144  0.54828659  0.05745974  1
  Al  Al19  1  0.43899199  0.43254474  0.90246411  1
  Al  Al20  1  0.55401951  0.53092970  0.65735338  1
  Al  Al21  1  0.11730799  0.75328398  0.40707907  1
  Al  Al22  1  0.77970081  0.74896576  0.82392607  1
  Al  Al23  1  0.89348535  0.86497584  0.65407824  1
  Al  Al24  1  0.43180563  0.75589858  0.42640102  1
  Al  Al25  1  0.57084532  0.87824224  0.04851375  1
  Al  Al26  1  0.11525047  0.75174338  0.89794363  1
  Al  Al27  1  0.21709667  0.86677414  0.65871181  1
  Al  Al28  1  0.90424235  0.86787695  0.15129315  1
  Al  Al29  1  0.44637749  0.75257853  0.89147723  1
  Al  Al30  1  0.55457843  0.86561368  0.60287045  1
  Gd  Gd31  1  0.77405818  0.08856219  0.91381414  1
  Gd  Gd32  1  0.78061977  0.09474044  0.39024603  1
  Gd  Gd33  1  0.11273763  0.40932717  0.32878716  1
  Gd  Gd34  1  0.23529630  0.88380228  0.15792308  1
  Gd  Gd35  1  0.74464885  0.74939836  0.31409672  1
  N  N36  1  0.22797109  0.18754357  0.42813735  1
  N  N37  1  0.09745136  0.12556816  0.07347766  1
  N  N38  1  0.89374967  0.21791206  0.83777225  1
  N  N39  1  0.77465303  0.08892673  0.61296995  1
  N  N40  1  0.51495982  0.21977696  0.33890981  1
  N  N41  1  0.45130949  0.09967833  0.07752844  1
  N  N42  1  0.21945315  0.20992371  0.86885425  1
  N  N43  1  0.10007663  0.08716236  0.60931847  1
  N  N44  1  0.91634097  0.22247428  0.33717819  1
  N  N45  1  0.77956209  0.10259677  0.13462910  1
  N  N46  1  0.53127487  0.22760778  0.83172147  1
  N  N47  1  0.44423489  0.09424980  0.62778346  1
  N  N48  1  0.24021065  0.55656312  0.32690004  1
  N  N49  1  0.11824969  0.43375875  0.11114678  1
  N  N50  1  0.89110456  0.53668528  0.88005353  1
  N  N51  1  0.76801023  0.41710547  0.59684026  1
  N  N52  1  0.56074038  0.54108421  0.34083919  1
  N  N53  1  0.45151937  0.42992064  0.08785163  1
  N  N54  1  0.22897917  0.54005450  0.83606870  1
  N  N55  1  0.10432387  0.42787801  0.64533015  1
  N  N56  1  0.88097362  0.53413628  0.41704967  1
  N  N57  1  0.78157235  0.43294333  0.08762309  1
  N  N58  1  0.55702929  0.53292963  0.83939473  1
  N  N59  1  0.44068076  0.42664512  0.58481563  1
  N  N60  1  0.21877105  0.87369546  0.37275961  1
  N  N61  1  0.10843907  0.75689380  0.07689951  1
  N  N62  1  0.90913206  0.84488333  0.83137818  1
  N  N63  1  0.77294719  0.75285209  0.64390254  1
  N  N64  1  0.52905307  0.88268359  0.42208142  1
  N  N65  1  0.47837998  0.74564036  0.07440869  1
  N  N66  1  0.22174668  0.87067817  0.84392093  1
  N  N67  1  0.10872164  0.75416080  0.59061403  1
  N  N68  1  0.91666980  0.84351768  0.32909199  1
  N  N69  1  0.78426901  0.76909658  0.10027431  1
  N  N70  1  0.55810433  0.87205260  0.86651965  1
  N  N71  1  0.43778971  0.74938717  0.60849207  1
