# generated using pymatgen
data_Gd5Al31N36
_symmetry_space_group_name_H-M   'P 1'
_cell_length_a   9.65118790
_cell_length_b   9.65026674
_cell_length_c   10.67656668
_cell_angle_alpha   90.90855715
_cell_angle_beta   90.25442086
_cell_angle_gamma   60.08021159
_symmetry_Int_Tables_number   1
_chemical_formula_structural   Gd5Al31N36
_chemical_formula_sum   'Gd5 Al31 N36'
_cell_volume   861.73694292
_cell_formula_units_Z   1
loop_
 _symmetry_equiv_pos_site_id
 _symmetry_equiv_pos_as_xyz
  1  'x, y, z'
loop_
 _atom_site_type_symbol
 _atom_site_label
 _atom_site_symmetry_multiplicity
 _atom_site_fract_x
 _atom_site_fract_y
 _atom_site_fract_z
 _atom_site_occupancy
  Al  Al0  1  0.11441641  0.08410142  0.41550965  1
  Al  Al1  1  0.22683307  0.21340244  0.06209284  1
  Al  Al2  1  0.89303553  0.20915001  0.65499685  1
  Al  Al3  1  0.43260222  0.08497070  0.32748388  1
  Al  Al4  1  0.54944266  0.20911756  0.15044859  1
  Al  Al5  1  0.11154896  0.09806362  0.89111632  1
  Al  Al6  1  0.22910680  0.19705642  0.58664541  1
  Al  Al7  1  0.89369541  0.21754835  0.14704721  1
  Al  Al8  1  0.43528946  0.09112455  0.82139454  1
  Al  Al9  1  0.54488841  0.21333172  0.65322910  1
  Al  Al10  1  0.22843488  0.54249686  0.14143436  1
  Al  Al11  1  0.77497719  0.43292652  0.89209860  1
  Al  Al12  1  0.88714543  0.53788986  0.58990785  1
  Al  Al13  1  0.43401137  0.43880430  0.39294915  1
  Al  Al14  1  0.56611862  0.53327203  0.14220646  1
  Al  Al15  1  0.10919663  0.42225947  0.82361824  1
  Al  Al16  1  0.22821702  0.53531818  0.65154484  1
  Al  Al17  1  0.77248118  0.43132776  0.40442168  1
  Al  Al18  1  0.89851721  0.54061424  0.05841851  1
  Al  Al19  1  0.43261795  0.43463568  0.89827035  1
  Al  Al20  1  0.55478801  0.53180618  0.64926166  1
  Al  Al21  1  0.12608047  0.75625434  0.41670890  1
  Al  Al22  1  0.77746212  0.75865651  0.82514111  1
  Al  Al23  1  0.89092289  0.86769354  0.59603674  1
  Al  Al24  1  0.44130254  0.75384996  0.41387276  1
  Al  Al25  1  0.56318877  0.87179802  0.06016351  1
  Al  Al26  1  0.11890472  0.75081617  0.89139725  1
  Al  Al27  1  0.22518129  0.86736014  0.65443586  1
  Al  Al28  1  0.88919981  0.86381250  0.06600100  1
  Al  Al29  1  0.44748457  0.75240696  0.89067595  1
  Al  Al30  1  0.55637577  0.87241521  0.58449381  1
  Gd  Gd31  1  0.76794436  0.11433335  0.88518319  1
  Gd  Gd32  1  0.76527571  0.12475333  0.40100415  1
  Gd  Gd33  1  0.11171795  0.41035318  0.33195159  1
  Gd  Gd34  1  0.22629739  0.87640640  0.15309625  1
  Gd  Gd35  1  0.77420316  0.76753592  0.32156844  1
  N  N36  1  0.24194229  0.17519369  0.41080695  1
  N  N37  1  0.09557299  0.11807325  0.07011303  1
  N  N38  1  0.90804658  0.22817601  0.82655897  1
  N  N39  1  0.77294146  0.09740340  0.62626113  1
  N  N40  1  0.51423341  0.22847556  0.32719048  1
  N  N41  1  0.43797151  0.08236719  0.13697989  1
  N  N42  1  0.22766549  0.20835116  0.88242702  1
  N  N43  1  0.10620454  0.08573505  0.59645276  1
  N  N44  1  0.91746392  0.22599730  0.32752691  1
  N  N45  1  0.77884838  0.09289925  0.11400588  1
  N  N46  1  0.51729266  0.23096354  0.82965737  1
  N  N47  1  0.44202210  0.08549773  0.64307128  1
  N  N48  1  0.23076089  0.56414425  0.32522177  1
  N  N49  1  0.11368476  0.42870755  0.11706001  1
  N  N50  1  0.89105682  0.54203343  0.87820081  1
  N  N51  1  0.76960348  0.41777267  0.58772728  1
  N  N52  1  0.56010448  0.53632306  0.33412094  1
  N  N53  1  0.44835124  0.42489693  0.08183174  1
  N  N54  1  0.22441564  0.53990764  0.83151874  1
  N  N55  1  0.10979890  0.41910255  0.63925137  1
  N  N56  1  0.87642075  0.54371277  0.41521037  1
  N  N57  1  0.77835841  0.42594604  0.07786703  1
  N  N58  1  0.55614687  0.53222781  0.83207622  1
  N  N59  1  0.44229180  0.42408749  0.57900307  1
  N  N60  1  0.22567998  0.86975986  0.36627028  1
  N  N61  1  0.11254329  0.74416146  0.07198437  1
  N  N62  1  0.89544542  0.85319985  0.88159724  1
  N  N63  1  0.77614541  0.75929558  0.64456852  1
  N  N64  1  0.53570465  0.88395778  0.40390361  1
  N  N65  1  0.47165618  0.73867062  0.07105342  1
  N  N66  1  0.22394264  0.87190406  0.83879307  1
  N  N67  1  0.12300075  0.74954247  0.60055979  1
  N  N68  1  0.90582370  0.86955251  0.41478496  1
  N  N69  1  0.77954838  0.75823485  0.10882161  1
  N  N70  1  0.55606145  0.87719860  0.87962043  1
  N  N71  1  0.44650102  0.74948274  0.59669010  1
