# generated using pymatgen
data_Gd5Al31N36
_symmetry_space_group_name_H-M   'P 1'
_cell_length_a   9.69257264
_cell_length_b   9.66970925
_cell_length_c   10.29211935
_cell_angle_alpha   90.09973654
_cell_angle_beta   89.93312931
_cell_angle_gamma   59.98103219
_symmetry_Int_Tables_number   1
_chemical_formula_structural   Gd5Al31N36
_chemical_formula_sum   'Gd5 Al31 N36'
_cell_volume   835.22411566
_cell_formula_units_Z   1
loop_
 _symmetry_equiv_pos_site_id
 _symmetry_equiv_pos_as_xyz
  1  'x, y, z'
loop_
 _atom_site_type_symbol
 _atom_site_label
 _atom_site_symmetry_multiplicity
 _atom_site_fract_x
 _atom_site_fract_y
 _atom_site_fract_z
 _atom_site_occupancy
  Al  Al0  1  0.11601719  0.09245542  0.42307282  1
  Al  Al1  1  0.22143216  0.20435519  0.15425874  1
  Al  Al2  1  0.89241429  0.21158487  0.66489061  1
  Al  Al3  1  0.43171735  0.09000255  0.40711533  1
  Al  Al4  1  0.54108241  0.21182085  0.16503847  1
  Al  Al5  1  0.11233217  0.10126449  0.90686175  1
  Al  Al6  1  0.22359727  0.20490099  0.67079979  1
  Al  Al7  1  0.89043919  0.21557407  0.16661346  1
  Al  Al8  1  0.43766864  0.09683811  0.91207258  1
  Al  Al9  1  0.54504659  0.20958352  0.66338836  1
  Al  Al10  1  0.22567393  0.54115780  0.15444791  1
  Al  Al11  1  0.77842898  0.43153818  0.91278079  1
  Al  Al12  1  0.89024959  0.53653558  0.67794672  1
  Al  Al13  1  0.44162970  0.43743901  0.40956111  1
  Al  Al14  1  0.56268136  0.53376644  0.15968888  1
  Al  Al15  1  0.11460126  0.42700988  0.91306318  1
  Al  Al16  1  0.22449936  0.53727438  0.67098922  1
  Al  Al17  1  0.77879040  0.42768175  0.41137174  1
  Al  Al18  1  0.88751390  0.53542073  0.15024949  1
  Al  Al19  1  0.43970541  0.43220491  0.91067398  1
  Al  Al20  1  0.55860684  0.53582347  0.66182423  1
  Al  Al21  1  0.12262648  0.75817076  0.42308656  1
  Al  Al22  1  0.77849824  0.75752593  0.91370229  1
  Al  Al23  1  0.89295937  0.86444754  0.67429039  1
  Al  Al24  1  0.44300619  0.75898001  0.42149379  1
  Al  Al25  1  0.55490427  0.87109764  0.15335913  1
  Al  Al26  1  0.11483495  0.75418503  0.90800029  1
  Al  Al27  1  0.22386846  0.87179972  0.66064813  1
  Al  Al28  1  0.89468860  0.86269718  0.16043682  1
  Al  Al29  1  0.44957471  0.75628030  0.90706124  1
  Al  Al30  1  0.55516507  0.87263183  0.67171979  1
  Gd  Gd31  1  0.77428902  0.10124669  0.91119890  1
  Gd  Gd32  1  0.77207275  0.09944709  0.40549159  1
  Gd  Gd33  1  0.12416991  0.42299899  0.40412070  1
  Gd  Gd34  1  0.22400433  0.87263578  0.16965103  1
  Gd  Gd35  1  0.77057373  0.75952209  0.41150061  1
  N  N36  1  0.22870927  0.17460390  0.33804297  1
  N  N37  1  0.09516789  0.12040303  0.08975833  1
  N  N38  1  0.90288535  0.22455022  0.84483944  1
  N  N39  1  0.77741570  0.09413824  0.63488832  1
  N  N40  1  0.50909224  0.22595816  0.34853519  1
  N  N41  1  0.44350871  0.09352782  0.09777428  1
  N  N42  1  0.22417479  0.20543837  0.85565591  1
  N  N43  1  0.11241610  0.09765102  0.60960810  1
  N  N44  1  0.90769811  0.21576432  0.35260877  1
  N  N45  1  0.77362160  0.09792238  0.13961181  1
  N  N46  1  0.52105630  0.22214137  0.84580404  1
  N  N47  1  0.44302785  0.09089280  0.59949318  1
  N  N48  1  0.24052338  0.56240100  0.33788582  1
  N  N49  1  0.11601096  0.42702230  0.10619485  1
  N  N50  1  0.88986303  0.53802756  0.86503793  1
  N  N51  1  0.77916610  0.43072324  0.60118114  1
  N  N52  1  0.56038621  0.53656503  0.35328752  1
  N  N53  1  0.44777710  0.42777151  0.09823658  1
  N  N54  1  0.22519372  0.53769833  0.85554473  1
  N  N55  1  0.11103372  0.42775312  0.62676890  1
  N  N56  1  0.87998200  0.52348217  0.33143904  1
  N  N57  1  0.77597769  0.42511033  0.09807058  1
  N  N58  1  0.55872646  0.53381514  0.84896583  1
  N  N59  1  0.44300249  0.42977584  0.59968980  1
  N  N60  1  0.22391347  0.87283684  0.39097109  1
  N  N61  1  0.10092414  0.74963295  0.08872594  1
  N  N62  1  0.90226079  0.84605599  0.85507729  1
  N  N63  1  0.77792661  0.75780938  0.63049208  1
  N  N64  1  0.52382804  0.88073586  0.33835063  1
  N  N65  1  0.47208942  0.74294652  0.09012113  1
  N  N66  1  0.22312567  0.87254329  0.85430239  1
  N  N67  1  0.11162926  0.75675259  0.61093354  1
  N  N68  1  0.92506950  0.85002659  0.34183309  1
  N  N69  1  0.77629456  0.76263725  0.10484961  1
  N  N70  1  0.55440415  0.87500747  0.85716868  1
  N  N71  1  0.45094134  0.75792520  0.60991482  1
