# generated using pymatgen
data_Gd5Al31N36
_symmetry_space_group_name_H-M   'P 1'
_cell_length_a   9.71919896
_cell_length_b   9.71362404
_cell_length_c   10.39940592
_cell_angle_alpha   90.05533918
_cell_angle_beta   90.54224349
_cell_angle_gamma   59.84133111
_symmetry_Int_Tables_number   1
_chemical_formula_structural   Gd5Al31N36
_chemical_formula_sum   'Gd5 Al31 N36'
_cell_volume   848.84952519
_cell_formula_units_Z   1
loop_
 _symmetry_equiv_pos_site_id
 _symmetry_equiv_pos_as_xyz
  1  'x, y, z'
loop_
 _atom_site_type_symbol
 _atom_site_label
 _atom_site_symmetry_multiplicity
 _atom_site_fract_x
 _atom_site_fract_y
 _atom_site_fract_z
 _atom_site_occupancy
  Al  Al0  1  0.11472954  0.09748121  0.31299589  1
  Al  Al1  1  0.22075023  0.21094793  0.05118640  1
  Al  Al2  1  0.89388787  0.20753873  0.55607324  1
  Al  Al3  1  0.43232249  0.09164246  0.31402462  1
  Al  Al4  1  0.54507875  0.21055560  0.05762517  1
  Al  Al5  1  0.11294772  0.10502512  0.81015273  1
  Al  Al6  1  0.22383736  0.20108062  0.56517304  1
  Al  Al7  1  0.89043382  0.22034628  0.05845713  1
  Al  Al8  1  0.43779537  0.09879803  0.80663573  1
  Al  Al9  1  0.54308758  0.21034548  0.55473637  1
  Al  Al10  1  0.21999552  0.53530903  0.05169895  1
  Al  Al11  1  0.78701069  0.42758144  0.80687946  1
  Al  Al12  1  0.88892421  0.53502772  0.56913496  1
  Al  Al13  1  0.44005586  0.43663454  0.31411079  1
  Al  Al14  1  0.56069631  0.53776088  0.11346622  1
  Al  Al15  1  0.11372930  0.42720571  0.80983715  1
  Al  Al16  1  0.22648249  0.54192342  0.56532866  1
  Al  Al17  1  0.78059817  0.42659902  0.31555208  1
  Al  Al18  1  0.88829937  0.53826090  0.04265001  1
  Al  Al19  1  0.43655857  0.42832109  0.80994471  1
  Al  Al20  1  0.55655661  0.53519832  0.62248336  1
  Al  Al21  1  0.11873842  0.75653663  0.31430895  1
  Al  Al22  1  0.78022773  0.75684018  0.80516398  1
  Al  Al23  1  0.89570751  0.86622460  0.56122784  1
  Al  Al24  1  0.43000771  0.76012624  0.38972482  1
  Al  Al25  1  0.56241454  0.87681145  0.04209070  1
  Al  Al26  1  0.11323192  0.74992912  0.80911468  1
  Al  Al27  1  0.22572995  0.86979433  0.63426455  1
  Al  Al28  1  0.89079775  0.85944469  0.04872813  1
  Al  Al29  1  0.45701498  0.74947525  0.86736093  1
  Al  Al30  1  0.55175907  0.87837125  0.56856950  1
  Gd  Gd31  1  0.77447336  0.10106782  0.81451348  1
  Gd  Gd32  1  0.77521091  0.09739423  0.31331908  1
  Gd  Gd33  1  0.11976780  0.42600802  0.31000365  1
  Gd  Gd34  1  0.21795804  0.87449625  0.08707649  1
  Gd  Gd35  1  0.76587818  0.75888043  0.30688592  1
  N  N36  1  0.23051020  0.18173958  0.38501686  1
  N  N37  1  0.09694029  0.13416927  0.12835751  1
  N  N38  1  0.90776645  0.22226408  0.87760967  1
  N  N39  1  0.77417515  0.09735670  0.58822268  1
  N  N40  1  0.51526598  0.22374639  0.37187763  1
  N  N41  1  0.44369596  0.09063773  0.12051720  1
  N  N42  1  0.22519223  0.20427836  0.86575252  1
  N  N43  1  0.10892071  0.09751721  0.62569285  1
  N  N44  1  0.90476289  0.21635942  0.37547043  1
  N  N45  1  0.78061173  0.09387544  0.08432970  1
  N  N46  1  0.52094607  0.22184899  0.87729624  1
  N  N47  1  0.44314126  0.09678646  0.62411846  1
  N  N48  1  0.24073030  0.55613402  0.38642675  1
  N  N49  1  0.10987623  0.42843275  0.08892136  1
  N  N50  1  0.88969945  0.53894079  0.85777271  1
  N  N51  1  0.78420245  0.42058384  0.62269755  1
  N  N52  1  0.55737900  0.54189195  0.33329155  1
  N  N53  1  0.43971923  0.42895846  0.12129518  1
  N  N54  1  0.22439221  0.53878854  0.86706559  1
  N  N55  1  0.11499310  0.42706429  0.61931358  1
  N  N56  1  0.88058811  0.52430662  0.39069812  1
  N  N57  1  0.78324498  0.43113372  0.12275385  1
  N  N58  1  0.56031386  0.53229394  0.82259213  1
  N  N59  1  0.44347377  0.42146259  0.62404288  1
  N  N60  1  0.22383703  0.87300053  0.31983053  1
  N  N61  1  0.09312068  0.73764802  0.12847678  1
  N  N62  1  0.90547148  0.84383182  0.86725994  1
  N  N63  1  0.77693965  0.76155392  0.61829164  1
  N  N64  1  0.52728096  0.88818625  0.38626933  1
  N  N65  1  0.47628484  0.74212430  0.05180090  1
  N  N66  1  0.22651635  0.87050309  0.83322264  1
  N  N67  1  0.11107284  0.75837054  0.62711073  1
  N  N68  1  0.91710784  0.85079112  0.38362308  1
  N  N69  1  0.77577919  0.75876802  0.08907271  1
  N  N70  1  0.55842718  0.87883416  0.85520746  1
  N  N71  1  0.43999800  0.75638604  0.58068768  1
