# generated using pymatgen
data_Gd5Al31N36
_symmetry_space_group_name_H-M   'P 1'
_cell_length_a   9.67590846
_cell_length_b   9.63713732
_cell_length_c   10.65555481
_cell_angle_alpha   91.05886220
_cell_angle_beta   91.37328278
_cell_angle_gamma   60.15294245
_symmetry_Int_Tables_number   1
_chemical_formula_structural   Gd5Al31N36
_chemical_formula_sum   'Gd5 Al31 N36'
_cell_volume   861.54227405
_cell_formula_units_Z   1
loop_
 _symmetry_equiv_pos_site_id
 _symmetry_equiv_pos_as_xyz
  1  'x, y, z'
loop_
 _atom_site_type_symbol
 _atom_site_label
 _atom_site_symmetry_multiplicity
 _atom_site_fract_x
 _atom_site_fract_y
 _atom_site_fract_z
 _atom_site_occupancy
  Al  Al0  1  0.11530199  0.08447104  0.41019991  1
  Al  Al1  1  0.22673902  0.21569828  0.05247137  1
  Al  Al2  1  0.89360435  0.21062966  0.63759578  1
  Al  Al3  1  0.43412786  0.08860035  0.32469339  1
  Al  Al4  1  0.55148702  0.20507150  0.07603180  1
  Al  Al5  1  0.10566166  0.09608644  0.88239046  1
  Al  Al6  1  0.22963222  0.20179471  0.58220731  1
  Al  Al7  1  0.89606030  0.22099660  0.13283197  1
  Al  Al8  1  0.43306757  0.09874179  0.81873209  1
  Al  Al9  1  0.54291727  0.21266973  0.55907494  1
  Al  Al10  1  0.22317650  0.54852933  0.13217171  1
  Al  Al11  1  0.77500453  0.42531663  0.88552785  1
  Al  Al12  1  0.88591125  0.53950707  0.58369360  1
  Al  Al13  1  0.44203789  0.43859837  0.35693961  1
  Al  Al14  1  0.57014602  0.53967778  0.13513848  1
  Al  Al15  1  0.10696863  0.42272511  0.81669576  1
  Al  Al16  1  0.23000069  0.53591541  0.64886616  1
  Al  Al17  1  0.77288678  0.42381351  0.40187221  1
  Al  Al18  1  0.89848894  0.54488734  0.04699107  1
  Al  Al19  1  0.43186017  0.43793156  0.89909584  1
  Al  Al20  1  0.55313354  0.53237811  0.64776057  1
  Al  Al21  1  0.13117421  0.74750490  0.40850691  1
  Al  Al22  1  0.77727732  0.75549535  0.81636260  1
  Al  Al23  1  0.89147282  0.86352382  0.57254368  1
  Al  Al24  1  0.43934319  0.75594376  0.41296665  1
  Al  Al25  1  0.56442440  0.87721443  0.05077579  1
  Al  Al26  1  0.11825114  0.75191092  0.88448863  1
  Al  Al27  1  0.22448065  0.86795827  0.64797760  1
  Al  Al28  1  0.88679523  0.87368033  0.05222106  1
  Al  Al29  1  0.44714521  0.75410841  0.88389673  1
  Al  Al30  1  0.55467673  0.87770982  0.58244864  1
  Gd  Gd31  1  0.75305707  0.10019206  0.81562726  1
  Gd  Gd32  1  0.78309984  0.09261711  0.33607512  1
  Gd  Gd33  1  0.10903519  0.41234689  0.32402936  1
  Gd  Gd34  1  0.23016216  0.87747058  0.14739073  1
  Gd  Gd35  1  0.76345389  0.75534594  0.31040888  1
  N  N36  1  0.24171034  0.17663738  0.40449546  1
  N  N37  1  0.09752206  0.11933874  0.06219832  1
  N  N38  1  0.89866796  0.21973511  0.81697712  1
  N  N39  1  0.77445486  0.09667445  0.59520627  1
  N  N40  1  0.52069422  0.21978116  0.37687302  1
  N  N41  1  0.44170096  0.08957154  0.13499853  1
  N  N42  1  0.22207016  0.20631780  0.87074918  1
  N  N43  1  0.10936515  0.08846022  0.59115934  1
  N  N44  1  0.91870267  0.22477605  0.31968162  1
  N  N45  1  0.78092012  0.09590794  0.11050108  1
  N  N46  1  0.51506103  0.21716311  0.90073698  1
  N  N47  1  0.44904486  0.09808670  0.63947497  1
  N  N48  1  0.23261579  0.56132680  0.31287712  1
  N  N49  1  0.11347744  0.43067539  0.10622779  1
  N  N50  1  0.88901640  0.53816658  0.86713239  1
  N  N51  1  0.76676939  0.42356002  0.58466892  1
  N  N52  1  0.56348506  0.54201103  0.32516664  1
  N  N53  1  0.44646296  0.43769501  0.09034086  1
  N  N54  1  0.22425088  0.53788964  0.82995256  1
  N  N55  1  0.10858247  0.42237885  0.63322252  1
  N  N56  1  0.87804391  0.53546462  0.40895991  1
  N  N57  1  0.78015701  0.43082324  0.07079422  1
  N  N58  1  0.55490397  0.53138364  0.83131433  1
  N  N59  1  0.43920519  0.43244388  0.58861663  1
  N  N60  1  0.22332100  0.86930179  0.36193335  1
  N  N61  1  0.11032413  0.75193936  0.06440791  1
  N  N62  1  0.89570581  0.85167746  0.87167264  1
  N  N63  1  0.77602103  0.76208887  0.63548654  1
  N  N64  1  0.53227109  0.88674242  0.40175573  1
  N  N65  1  0.47318008  0.74591274  0.06527223  1
  N  N66  1  0.22319471  0.87055416  0.83201100  1
  N  N67  1  0.12157422  0.75061970  0.59239309  1
  N  N68  1  0.91222863  0.84490964  0.39522071  1
  N  N69  1  0.78169232  0.76299494  0.09705266  1
  N  N70  1  0.55519079  0.87835510  0.86874137  1
  N  N71  1  0.44588046  0.75366161  0.59559114  1
