# generated using pymatgen
data_Gd5Al31N36
_symmetry_space_group_name_H-M   'P 1'
_cell_length_a   9.69234003
_cell_length_b   9.66987461
_cell_length_c   10.29210724
_cell_angle_alpha   90.09795156
_cell_angle_beta   89.93212744
_cell_angle_gamma   59.98160689
_symmetry_Int_Tables_number   1
_chemical_formula_structural   Gd5Al31N36
_chemical_formula_sum   'Gd5 Al31 N36'
_cell_volume   835.22225220
_cell_formula_units_Z   1
loop_
 _symmetry_equiv_pos_site_id
 _symmetry_equiv_pos_as_xyz
  1  'x, y, z'
loop_
 _atom_site_type_symbol
 _atom_site_label
 _atom_site_symmetry_multiplicity
 _atom_site_fract_x
 _atom_site_fract_y
 _atom_site_fract_z
 _atom_site_occupancy
  Al  Al0  1  0.11599293  0.09246183  0.41723467  1
  Al  Al1  1  0.22141811  0.20434500  0.14842156  1
  Al  Al2  1  0.89237582  0.21162421  0.65906619  1
  Al  Al3  1  0.43172730  0.09000314  0.40128476  1
  Al  Al4  1  0.54104540  0.21185732  0.15920722  1
  Al  Al5  1  0.11228281  0.10128834  0.90103743  1
  Al  Al6  1  0.22356716  0.20491711  0.66497093  1
  Al  Al7  1  0.89040317  0.21557246  0.16078381  1
  Al  Al8  1  0.43763345  0.09686451  0.90624851  1
  Al  Al9  1  0.54499900  0.20963881  0.65757043  1
  Al  Al10  1  0.22563818  0.54116958  0.14860709  1
  Al  Al11  1  0.77837090  0.43157499  0.90695575  1
  Al  Al12  1  0.89021062  0.53656219  0.67211419  1
  Al  Al13  1  0.44160561  0.43750305  0.40371773  1
  Al  Al14  1  0.56265781  0.53379843  0.15385598  1
  Al  Al15  1  0.11456316  0.42701854  0.90721365  1
  Al  Al16  1  0.22445673  0.53731170  0.66516044  1
  Al  Al17  1  0.77880497  0.42767055  0.40553247  1
  Al  Al18  1  0.88753645  0.53538768  0.14442076  1
  Al  Al19  1  0.43965341  0.43224775  0.90484594  1
  Al  Al20  1  0.55856214  0.53587383  0.65599444  1
  Al  Al21  1  0.12260166  0.75820203  0.41725778  1
  Al  Al22  1  0.77846277  0.75754112  0.90788012  1
  Al  Al23  1  0.89292504  0.86448228  0.66846971  1
  Al  Al24  1  0.44300845  0.75901982  0.41567180  1
  Al  Al25  1  0.55490548  0.87111034  0.14754322  1
  Al  Al26  1  0.11478543  0.75420730  0.90217291  1
  Al  Al27  1  0.22383466  0.87183377  0.65482033  1
  Al  Al28  1  0.89464958  0.86271475  0.15460944  1
  Al  Al29  1  0.44952557  0.75632851  0.90123908  1
  Al  Al30  1  0.55514184  0.87267488  0.66589036  1
  Gd  Gd31  1  0.77424015  0.10127656  0.90536458  1
  Gd  Gd32  1  0.77201054  0.09946319  0.39968801  1
  Gd  Gd33  1  0.12426687  0.42293469  0.39830475  1
  Gd  Gd34  1  0.22396849  0.87262986  0.16382171  1
  Gd  Gd35  1  0.77065202  0.75943431  0.40567012  1
  N  N36  1  0.22872212  0.17456290  0.33220147  1
  N  N37  1  0.09513959  0.12039933  0.08393288  1
  N  N38  1  0.90283517  0.22459328  0.83901323  1
  N  N39  1  0.77737614  0.09417857  0.62908374  1
  N  N40  1  0.50902311  0.22603272  0.34270510  1
  N  N41  1  0.44349944  0.09353612  0.09194788  1
  N  N42  1  0.22413630  0.20544959  0.84982061  1
  N  N43  1  0.11237937  0.09767973  0.60377264  1
  N  N44  1  0.90766129  0.21574656  0.34678359  1
  N  N45  1  0.77358113  0.09793423  0.13377706  1
  N  N46  1  0.52099850  0.22219201  0.83997883  1
  N  N47  1  0.44299905  0.09093770  0.59366245  1
  N  N48  1  0.24049576  0.56245258  0.33204267  1
  N  N49  1  0.11601433  0.42700182  0.10033640  1
  N  N50  1  0.88981487  0.53805330  0.85919848  1
  N  N51  1  0.77912770  0.43075692  0.59534531  1
  N  N52  1  0.56038507  0.53661096  0.34745743  1
  N  N53  1  0.44774545  0.42780719  0.09240554  1
  N  N54  1  0.22513932  0.53773012  0.84970809  1
  N  N55  1  0.11100137  0.42777460  0.62094908  1
  N  N56  1  0.88008954  0.52338623  0.32561486  1
  N  N57  1  0.77595727  0.42511541  0.09224560  1
  N  N58  1  0.55866497  0.53386901  0.84313619  1
  N  N59  1  0.44296061  0.42982486  0.59385201  1
  N  N60  1  0.22391676  0.87284852  0.38514339  1
  N  N61  1  0.10088298  0.74963968  0.08289158  1
  N  N62  1  0.90221228  0.84608666  0.84925239  1
  N  N63  1  0.77790321  0.75784023  0.62466453  1
  N  N64  1  0.52389270  0.88073721  0.33255031  1
  N  N65  1  0.47206171  0.74298379  0.08430307  1
  N  N66  1  0.22307140  0.87257635  0.84847519  1
  N  N67  1  0.11159604  0.75678636  0.60510496  1
  N  N68  1  0.92503981  0.85007145  0.33601135  1
  N  N69  1  0.77629365  0.76261419  0.09903031  1
  N  N70  1  0.55436664  0.87504511  0.85133863  1
  N  N71  1  0.45091206  0.75797222  0.60409158  1
