# generated using pymatgen
data_Gd5Al31N36
_symmetry_space_group_name_H-M   'P 1'
_cell_length_a   9.68089952
_cell_length_b   9.63969908
_cell_length_c   10.68042512
_cell_angle_alpha   90.84913783
_cell_angle_beta   91.26004305
_cell_angle_gamma   60.20965116
_symmetry_Int_Tables_number   1
_chemical_formula_structural   Gd5Al31N36
_chemical_formula_sum   'Gd5 Al31 N36'
_cell_volume   864.77388941
_cell_formula_units_Z   1
loop_
 _symmetry_equiv_pos_site_id
 _symmetry_equiv_pos_as_xyz
  1  'x, y, z'
loop_
 _atom_site_type_symbol
 _atom_site_label
 _atom_site_symmetry_multiplicity
 _atom_site_fract_x
 _atom_site_fract_y
 _atom_site_fract_z
 _atom_site_occupancy
  Al  Al0  1  0.11182042  0.08916151  0.40724743  1
  Al  Al1  1  0.23025916  0.20983674  0.05337406  1
  Al  Al2  1  0.89222608  0.21110649  0.63791466  1
  Al  Al3  1  0.43333560  0.09321033  0.32875037  1
  Al  Al4  1  0.55072129  0.20881725  0.07231389  1
  Al  Al5  1  0.10787041  0.09626417  0.88329693  1
  Al  Al6  1  0.22728960  0.20404489  0.57954597  1
  Al  Al7  1  0.89755851  0.21892284  0.13202665  1
  Al  Al8  1  0.43436103  0.09834300  0.81875787  1
  Al  Al9  1  0.54255007  0.21411107  0.56505425  1
  Al  Al10  1  0.23297334  0.53035699  0.07378332  1
  Al  Al11  1  0.77582961  0.42624683  0.88580647  1
  Al  Al12  1  0.88513055  0.53980023  0.58095150  1
  Al  Al13  1  0.44102571  0.43545849  0.31684728  1
  Al  Al14  1  0.57321955  0.53896251  0.13761669  1
  Al  Al15  1  0.10509146  0.42136598  0.81836251  1
  Al  Al16  1  0.21909059  0.53942357  0.63770711  1
  Al  Al17  1  0.77298824  0.42466362  0.39871579  1
  Al  Al18  1  0.89782137  0.54371306  0.04735936  1
  Al  Al19  1  0.44020602  0.42467477  0.82361515  1
  Al  Al20  1  0.55754000  0.53675992  0.64717437  1
  Al  Al21  1  0.12761388  0.75434036  0.41838987  1
  Al  Al22  1  0.77611134  0.75492523  0.81538460  1
  Al  Al23  1  0.88510728  0.86962742  0.57697053  1
  Al  Al24  1  0.43644073  0.75578232  0.41071372  1
  Al  Al25  1  0.56586046  0.87584973  0.05359211  1
  Al  Al26  1  0.11741717  0.75600116  0.87913097  1
  Al  Al27  1  0.22280345  0.87244042  0.64914055  1
  Al  Al28  1  0.88940114  0.86801434  0.05190791  1
  Al  Al29  1  0.44829484  0.75432486  0.88622406  1
  Al  Al30  1  0.55112426  0.87884735  0.58088501  1
  Gd  Gd31  1  0.76030704  0.09873105  0.82429549  1
  Gd  Gd32  1  0.77809054  0.09358423  0.33103161  1
  Gd  Gd33  1  0.11436474  0.42195896  0.31931767  1
  Gd  Gd34  1  0.23015640  0.87230300  0.14853343  1
  Gd  Gd35  1  0.76281608  0.75746603  0.31465965  1
  N  N36  1  0.23684013  0.18358365  0.40195325  1
  N  N37  1  0.09988321  0.11552855  0.06321284  1
  N  N38  1  0.90199729  0.22180165  0.81701509  1
  N  N39  1  0.77174418  0.09845498  0.60408102  1
  N  N40  1  0.52030572  0.22521269  0.38528581  1
  N  N41  1  0.44511346  0.08942163  0.13535807  1
  N  N42  1  0.22458494  0.20484156  0.87222418  1
  N  N43  1  0.10720749  0.09108213  0.58905384  1
  N  N44  1  0.91362888  0.22439835  0.31794367  1
  N  N45  1  0.78272138  0.09290765  0.10435510  1
  N  N46  1  0.51362795  0.22525511  0.89785234  1
  N  N47  1  0.44547777  0.09724049  0.63960525  1
  N  N48  1  0.23931021  0.55190771  0.36668265  1
  N  N49  1  0.11672926  0.42744981  0.09919865  1
  N  N50  1  0.88840255  0.53911373  0.86846300  1
  N  N51  1  0.76620655  0.42329347  0.58148005  1
  N  N52  1  0.56436243  0.54682240  0.32477918  1
  N  N53  1  0.44988431  0.42623586  0.13064760  1
  N  N54  1  0.22007761  0.53741457  0.84266826  1
  N  N55  1  0.10546460  0.42334750  0.63628766  1
  N  N56  1  0.88215261  0.53330764  0.40692462  1
  N  N57  1  0.78073564  0.42861578  0.07010643  1
  N  N58  1  0.55987306  0.53713494  0.82920402  1
  N  N59  1  0.44494787  0.41890225  0.64084596  1
  N  N60  1  0.21939679  0.87290160  0.36169116  1
  N  N61  1  0.11307395  0.74818278  0.06121622  1
  N  N62  1  0.89633092  0.84811811  0.87170860  1
  N  N63  1  0.77252202  0.76171861  0.63501309  1
  N  N64  1  0.52862111  0.88909085  0.40175033  1
  N  N65  1  0.47353284  0.74391698  0.06603857  1
  N  N66  1  0.22506693  0.87215930  0.83220956  1
  N  N67  1  0.11410508  0.75939277  0.60308594  1
  N  N68  1  0.90854193  0.85097304  0.40068335  1
  N  N69  1  0.78351626  0.75978181  0.10086052  1
  N  N70  1  0.55643898  0.87950041  0.87176709  1
  N  N71  1  0.44229005  0.75363476  0.59294586  1
