# generated using pymatgen
data_Gd5Al31N36
_symmetry_space_group_name_H-M   'P 1'
_cell_length_a   9.66732718
_cell_length_b   9.63405772
_cell_length_c   10.65989562
_cell_angle_alpha   90.82582887
_cell_angle_beta   91.02415707
_cell_angle_gamma   60.28475691
_symmetry_Int_Tables_number   1
_chemical_formula_structural   Gd5Al31N36
_chemical_formula_sum   'Gd5 Al31 N36'
_cell_volume   862.10468690
_cell_formula_units_Z   1
loop_
 _symmetry_equiv_pos_site_id
 _symmetry_equiv_pos_as_xyz
  1  'x, y, z'
loop_
 _atom_site_type_symbol
 _atom_site_label
 _atom_site_symmetry_multiplicity
 _atom_site_fract_x
 _atom_site_fract_y
 _atom_site_fract_z
 _atom_site_occupancy
  Al  Al0  1  0.11093963  0.09024964  0.40577823  1
  Al  Al1  1  0.22692238  0.21284473  0.05331487  1
  Al  Al2  1  0.89264214  0.21017139  0.63750070  1
  Al  Al3  1  0.43246201  0.09280534  0.32746088  1
  Al  Al4  1  0.54628390  0.21187831  0.07376393  1
  Al  Al5  1  0.10714915  0.09888301  0.88223531  1
  Al  Al6  1  0.22779613  0.20386440  0.57928517  1
  Al  Al7  1  0.89491097  0.22017671  0.13102266  1
  Al  Al8  1  0.43427395  0.09878538  0.81928130  1
  Al  Al9  1  0.54588180  0.20992088  0.56661444  1
  Al  Al10  1  0.23052980  0.52907519  0.05514435  1
  Al  Al11  1  0.77575274  0.42704468  0.88464253  1
  Al  Al12  1  0.88863287  0.53808164  0.58059059  1
  Al  Al13  1  0.44105566  0.43570374  0.32240966  1
  Al  Al14  1  0.56944944  0.53912014  0.13798251  1
  Al  Al15  1  0.11035431  0.42607150  0.81573944  1
  Al  Al16  1  0.23179951  0.53118609  0.58516784  1
  Al  Al17  1  0.77435629  0.42297136  0.39845570  1
  Al  Al18  1  0.89715952  0.54341907  0.04749804  1
  Al  Al19  1  0.43525079  0.42649677  0.82134801  1
  Al  Al20  1  0.55879642  0.53589793  0.64735835  1
  Al  Al21  1  0.12564255  0.76210063  0.42024341  1
  Al  Al22  1  0.77653081  0.75429044  0.81520176  1
  Al  Al23  1  0.88635248  0.86761841  0.57885807  1
  Al  Al24  1  0.43647443  0.75589531  0.41067170  1
  Al  Al25  1  0.56445070  0.87622454  0.05346260  1
  Al  Al26  1  0.11703340  0.75673713  0.87923043  1
  Al  Al27  1  0.22261615  0.87180014  0.65079992  1
  Al  Al28  1  0.88766337  0.86874087  0.05269373  1
  Al  Al29  1  0.44870108  0.75361613  0.88581540  1
  Al  Al30  1  0.55121665  0.87774285  0.58136176  1
  Gd  Gd31  1  0.76037913  0.09947690  0.82682033  1
  Gd  Gd32  1  0.77755911  0.09104378  0.32961353  1
  Gd  Gd33  1  0.11960131  0.42581215  0.31970454  1
  Gd  Gd34  1  0.22819073  0.87504911  0.14518206  1
  Gd  Gd35  1  0.76231825  0.75483020  0.31442111  1
  N  N36  1  0.23428609  0.18672642  0.39962583  1
  N  N37  1  0.09685896  0.11844668  0.06176493  1
  N  N38  1  0.90175206  0.22245292  0.81607407  1
  N  N39  1  0.77301166  0.09638547  0.60452661  1
  N  N40  1  0.52023927  0.22399080  0.38620773  1
  N  N41  1  0.44261086  0.08987120  0.13538282  1
  N  N42  1  0.22360740  0.20776283  0.87102685  1
  N  N43  1  0.10814738  0.09045183  0.58805429  1
  N  N44  1  0.91206845  0.22246458  0.31757801  1
  N  N45  1  0.77898367  0.09514218  0.10375368  1
  N  N46  1  0.51323024  0.22607298  0.89834056  1
  N  N47  1  0.44575782  0.09583233  0.63938163  1
  N  N48  1  0.24998560  0.54516923  0.40547223  1
  N  N49  1  0.11386413  0.42905585  0.10267197  1
  N  N50  1  0.89071076  0.53844774  0.86735720  1
  N  N51  1  0.76808571  0.42255530  0.58103727  1
  N  N52  1  0.56415090  0.54683119  0.32613977  1
  N  N53  1  0.44035224  0.42990401  0.13710224  1
  N  N54  1  0.22524662  0.53308247  0.87169641  1
  N  N55  1  0.11177361  0.42590614  0.63322131  1
  N  N56  1  0.88703440  0.52889347  0.40507030  1
  N  N57  1  0.77751588  0.42957513  0.06955577  1
  N  N58  1  0.55956366  0.53694402  0.82835614  1
  N  N59  1  0.44655121  0.41653904  0.64145234  1
  N  N60  1  0.22041421  0.87262378  0.35892296  1
  N  N61  1  0.10870380  0.75110076  0.06681078  1
  N  N62  1  0.89644372  0.84780287  0.87150586  1
  N  N63  1  0.77260315  0.76010827  0.63411541  1
  N  N64  1  0.52774517  0.88971584  0.40174662  1
  N  N65  1  0.47301136  0.74315642  0.06561121  1
  N  N66  1  0.22509245  0.87323585  0.83350828  1
  N  N67  1  0.11361194  0.76017916  0.60583146  1
  N  N68  1  0.90998687  0.84733507  0.39984152  1
  N  N69  1  0.78119743  0.76036939  0.10110590  1
  N  N70  1  0.55628588  0.87957183  0.87137418  1
  N  N71  1  0.44191983  0.75275629  0.59269867  1
