# generated using pymatgen
data_Gd5Al31N36
_symmetry_space_group_name_H-M   'P 1'
_cell_length_a   9.69891801
_cell_length_b   9.69785006
_cell_length_c   10.56891570
_cell_angle_alpha   91.05798123
_cell_angle_beta   90.51973502
_cell_angle_gamma   59.96391156
_symmetry_Int_Tables_number   1
_chemical_formula_structural   Gd5Al31N36
_chemical_formula_sum   'Gd5 Al31 N36'
_cell_volume   860.45412288
_cell_formula_units_Z   1
loop_
 _symmetry_equiv_pos_site_id
 _symmetry_equiv_pos_as_xyz
  1  'x, y, z'
loop_
 _atom_site_type_symbol
 _atom_site_label
 _atom_site_symmetry_multiplicity
 _atom_site_fract_x
 _atom_site_fract_y
 _atom_site_fract_z
 _atom_site_occupancy
  Al  Al0  1  0.11502072  0.08502329  0.40657255  1
  Al  Al1  1  0.22561877  0.21615782  0.05223403  1
  Al  Al2  1  0.89114182  0.20949069  0.64233722  1
  Al  Al3  1  0.43195930  0.08625067  0.31755406  1
  Al  Al4  1  0.54605425  0.21224827  0.13708009  1
  Al  Al5  1  0.11094030  0.09957904  0.87998288  1
  Al  Al6  1  0.22905247  0.19835892  0.57871528  1
  Al  Al7  1  0.89498667  0.22167341  0.13626430  1
  Al  Al8  1  0.43609595  0.09181210  0.81336896  1
  Al  Al9  1  0.54654462  0.21308689  0.64163406  1
  Al  Al10  1  0.22862665  0.54433543  0.13438691  1
  Al  Al11  1  0.77456319  0.43232212  0.88217310  1
  Al  Al12  1  0.88561630  0.53824280  0.58182119  1
  Al  Al13  1  0.43781820  0.43628833  0.38485177  1
  Al  Al14  1  0.56606118  0.53551522  0.13475326  1
  Al  Al15  1  0.10938241  0.42317250  0.81401998  1
  Al  Al16  1  0.22792702  0.53667818  0.64221577  1
  Al  Al17  1  0.77184385  0.42759903  0.39737671  1
  Al  Al18  1  0.89874130  0.54186642  0.04887893  1
  Al  Al19  1  0.43445557  0.43360750  0.89021696  1
  Al  Al20  1  0.55346563  0.53293394  0.64129620  1
  Al  Al21  1  0.12760797  0.75400733  0.40690908  1
  Al  Al22  1  0.77719897  0.75744060  0.81527063  1
  Al  Al23  1  0.88966537  0.86745188  0.58315034  1
  Al  Al24  1  0.43888989  0.75480311  0.40569020  1
  Al  Al25  1  0.56317692  0.87291010  0.05020265  1
  Al  Al26  1  0.11965086  0.74897819  0.88301879  1
  Al  Al27  1  0.22356392  0.86867430  0.64615125  1
  Al  Al28  1  0.88978100  0.86333226  0.05858881  1
  Al  Al29  1  0.44726106  0.75225367  0.88156850  1
  Al  Al30  1  0.55388892  0.87443252  0.57679179  1
  Gd  Gd31  1  0.77294470  0.10830789  0.87152802  1
  Gd  Gd32  1  0.77333576  0.11000457  0.37011138  1
  Gd  Gd33  1  0.11281701  0.41310188  0.32642120  1
  Gd  Gd34  1  0.22615496  0.87933566  0.14208737  1
  Gd  Gd35  1  0.76935815  0.76090203  0.31331644  1
  N  N36  1  0.24153161  0.17569252  0.40051529  1
  N  N37  1  0.09547415  0.12171441  0.06061533  1
  N  N38  1  0.90667348  0.22783124  0.81676032  1
  N  N39  1  0.77322334  0.09709603  0.61042683  1
  N  N40  1  0.51433836  0.22804797  0.31692421  1
  N  N41  1  0.43767421  0.08439550  0.12466142  1
  N  N42  1  0.22700754  0.20884559  0.87066287  1
  N  N43  1  0.10685499  0.08741023  0.58892718  1
  N  N44  1  0.91802981  0.22495773  0.31872419  1
  N  N45  1  0.77915740  0.09419757  0.10682250  1
  N  N46  1  0.52060790  0.22831437  0.82407588  1
  N  N47  1  0.44228530  0.08787328  0.63373318  1
  N  N48  1  0.23500041  0.56177830  0.31834759  1
  N  N49  1  0.11396246  0.43086184  0.10810650  1
  N  N50  1  0.89072739  0.54069259  0.86686883  1
  N  N51  1  0.76789942  0.42036087  0.58163654  1
  N  N52  1  0.56010257  0.53676190  0.32662070  1
  N  N53  1  0.44752226  0.42863335  0.07430794  1
  N  N54  1  0.22586506  0.53825148  0.82380551  1
  N  N55  1  0.10964313  0.42129852  0.62808279  1
  N  N56  1  0.87627683  0.53801619  0.40560799  1
  N  N57  1  0.77789587  0.42937303  0.06971760  1
  N  N58  1  0.55515912  0.53238031  0.82480912  1
  N  N59  1  0.44166564  0.42549003  0.57181099  1
  N  N60  1  0.22319033  0.87074667  0.35721922  1
  N  N61  1  0.11214503  0.74589817  0.06551067  1
  N  N62  1  0.89731259  0.84857799  0.87229865  1
  N  N63  1  0.77483456  0.76048628  0.63322965  1
  N  N64  1  0.53114213  0.88552749  0.39468766  1
  N  N65  1  0.47252338  0.74066543  0.06398606  1
  N  N66  1  0.22269846  0.87206013  0.83216799  1
  N  N67  1  0.12153080  0.75147843  0.59242013  1
  N  N68  1  0.90878346  0.85742578  0.40047559  1
  N  N69  1  0.77923852  0.75938918  0.09893010  1
  N  N70  1  0.55559583  0.87611770  0.86832522  1
  N  N71  1  0.44474050  0.75127900  0.59006490  1
