# generated using pymatgen
data_Gd5Al31N36
_symmetry_space_group_name_H-M   'P 1'
_cell_length_a   9.69955408
_cell_length_b   9.69000427
_cell_length_c   10.58182392
_cell_angle_alpha   91.14445367
_cell_angle_beta   90.96027233
_cell_angle_gamma   59.92932557
_symmetry_Int_Tables_number   1
_chemical_formula_structural   Gd5Al31N36
_chemical_formula_sum   'Gd5 Al31 N36'
_cell_volume   860.51274359
_cell_formula_units_Z   1
loop_
 _symmetry_equiv_pos_site_id
 _symmetry_equiv_pos_as_xyz
  1  'x, y, z'
loop_
 _atom_site_type_symbol
 _atom_site_label
 _atom_site_symmetry_multiplicity
 _atom_site_fract_x
 _atom_site_fract_y
 _atom_site_fract_z
 _atom_site_occupancy
  Al  Al0  1  0.11321345  0.08465611  0.40796807  1
  Al  Al1  1  0.22678240  0.21740223  0.05226288  1
  Al  Al2  1  0.89144259  0.21158321  0.63922489  1
  Al  Al3  1  0.43405759  0.08772511  0.32418100  1
  Al  Al4  1  0.54811505  0.20663628  0.07500406  1
  Al  Al5  1  0.10918148  0.09834896  0.88059960  1
  Al  Al6  1  0.22858512  0.19962476  0.58088969  1
  Al  Al7  1  0.89649508  0.22373915  0.13132778  1
  Al  Al8  1  0.43700591  0.09620566  0.81773138  1
  Al  Al9  1  0.54606637  0.20578041  0.56425357  1
  Al  Al10  1  0.22790553  0.54638402  0.13702978  1
  Al  Al11  1  0.77474486  0.42918955  0.88442866  1
  Al  Al12  1  0.88528709  0.53930008  0.58204255  1
  Al  Al13  1  0.43716549  0.44099936  0.38824876  1
  Al  Al14  1  0.56649707  0.53804710  0.13817099  1
  Al  Al15  1  0.10887412  0.42257244  0.81440427  1
  Al  Al16  1  0.22831178  0.53746735  0.64396423  1
  Al  Al17  1  0.77162504  0.42519972  0.39937522  1
  Al  Al18  1  0.89907778  0.54397870  0.04868612  1
  Al  Al19  1  0.43288406  0.43666141  0.89799627  1
  Al  Al20  1  0.55309755  0.53367231  0.64439197  1
  Al  Al21  1  0.12793819  0.75239780  0.40764262  1
  Al  Al22  1  0.77758403  0.75526198  0.81543910  1
  Al  Al23  1  0.88896281  0.86808394  0.57733855  1
  Al  Al24  1  0.43831963  0.75582333  0.40890151  1
  Al  Al25  1  0.56375171  0.87508084  0.05158061  1
  Al  Al26  1  0.12131214  0.74746645  0.88358081  1
  Al  Al27  1  0.22324230  0.86869792  0.64753470  1
  Al  Al28  1  0.88904084  0.86751202  0.05314180  1
  Al  Al29  1  0.44779494  0.75229531  0.88286972  1
  Al  Al30  1  0.55341811  0.87626508  0.58044770  1
  Gd  Gd31  1  0.76539433  0.10004658  0.83300536  1
  Gd  Gd32  1  0.77833652  0.09768644  0.33139524  1
  Gd  Gd33  1  0.11204334  0.41175085  0.32676253  1
  Gd  Gd34  1  0.22728289  0.87917227  0.14317805  1
  Gd  Gd35  1  0.76700995  0.75838957  0.31336366  1
  N  N36  1  0.24021262  0.17435118  0.40243013  1
  N  N37  1  0.09826948  0.12185858  0.06112391  1
  N  N38  1  0.90326530  0.22480920  0.81771736  1
  N  N39  1  0.77144164  0.09854038  0.60776726  1
  N  N40  1  0.51970328  0.21699124  0.38035942  1
  N  N41  1  0.44129403  0.08993679  0.13338464  1
  N  N42  1  0.22485198  0.20736678  0.86911460  1
  N  N43  1  0.10746651  0.08801082  0.59056820  1
  N  N44  1  0.91699475  0.22534851  0.31817311  1
  N  N45  1  0.78127163  0.09539612  0.10459398  1
  N  N46  1  0.51725907  0.21577800  0.89697883  1
  N  N47  1  0.44660308  0.09613658  0.63791571  1
  N  N48  1  0.23510372  0.55967783  0.31954758  1
  N  N49  1  0.11460143  0.43163420  0.10812631  1
  N  N50  1  0.89047318  0.53901876  0.86696435  1
  N  N51  1  0.76721172  0.42294686  0.58333348  1
  N  N52  1  0.55992727  0.53840168  0.32886157  1
  N  N53  1  0.44552129  0.43858678  0.08347412  1
  N  N54  1  0.22823830  0.53510946  0.82485889  1
  N  N55  1  0.10916526  0.42242642  0.62888345  1
  N  N56  1  0.87661885  0.53607513  0.40609379  1
  N  N57  1  0.77789723  0.43273189  0.07105434  1
  N  N58  1  0.55501659  0.52991871  0.82757144  1
  N  N59  1  0.43814445  0.43542670  0.57570057  1
  N  N60  1  0.22227877  0.87011225  0.35846820  1
  N  N61  1  0.11173621  0.74752826  0.06564660  1
  N  N62  1  0.89940982  0.84580688  0.87098368  1
  N  N63  1  0.77491396  0.76166464  0.63346596  1
  N  N64  1  0.53112631  0.88512825  0.39862657  1
  N  N65  1  0.47329685  0.74367270  0.06565449  1
  N  N66  1  0.22300214  0.87068395  0.83305285  1
  N  N67  1  0.12003220  0.75282323  0.59294215  1
  N  N68  1  0.90909615  0.85475669  0.39803283  1
  N  N69  1  0.78051084  0.76223069  0.09862340  1
  N  N70  1  0.55543406  0.87631697  0.86841341  1
  N  N71  1  0.44428840  0.75379830  0.59355691  1
