# generated using pymatgen
data_Gd5Al31N36
_symmetry_space_group_name_H-M   'P 1'
_cell_length_a   9.67973356
_cell_length_b   9.65360947
_cell_length_c   10.59936340
_cell_angle_alpha   90.76245009
_cell_angle_beta   90.76575960
_cell_angle_gamma   60.21625696
_symmetry_Int_Tables_number   1
_chemical_formula_structural   Gd5Al31N36
_chemical_formula_sum   'Gd5 Al31 N36'
_cell_volume   859.51647688
_cell_formula_units_Z   1
loop_
 _symmetry_equiv_pos_site_id
 _symmetry_equiv_pos_as_xyz
  1  'x, y, z'
loop_
 _atom_site_type_symbol
 _atom_site_label
 _atom_site_symmetry_multiplicity
 _atom_site_fract_x
 _atom_site_fract_y
 _atom_site_fract_z
 _atom_site_occupancy
  Al  Al0  1  0.11026748  0.09223942  0.39290209  1
  Al  Al1  1  0.22528276  0.21288983  0.04190476  1
  Al  Al2  1  0.89132928  0.21000923  0.62694543  1
  Al  Al3  1  0.43326121  0.09252005  0.31479949  1
  Al  Al4  1  0.54239199  0.21387500  0.06290305  1
  Al  Al5  1  0.10727834  0.09923192  0.87017622  1
  Al  Al6  1  0.22794131  0.20451022  0.56684374  1
  Al  Al7  1  0.89319900  0.22053598  0.11762015  1
  Al  Al8  1  0.43445410  0.09883878  0.80722736  1
  Al  Al9  1  0.54806401  0.20840141  0.55692014  1
  Al  Al10  1  0.22349979  0.53751283  0.04368187  1
  Al  Al11  1  0.77501231  0.42850454  0.87292152  1
  Al  Al12  1  0.88956779  0.53671659  0.56852578  1
  Al  Al13  1  0.44271882  0.43577588  0.31207899  1
  Al  Al14  1  0.56721280  0.53991396  0.12588107  1
  Al  Al15  1  0.10992622  0.42555369  0.80563729  1
  Al  Al16  1  0.23408961  0.52828675  0.57574896  1
  Al  Al17  1  0.77523448  0.42194354  0.38559364  1
  Al  Al18  1  0.89555160  0.54362496  0.03691920  1
  Al  Al19  1  0.43527282  0.42690896  0.81116892  1
  Al  Al20  1  0.55949857  0.53528163  0.63544042  1
  Al  Al21  1  0.12690786  0.76174012  0.40424355  1
  Al  Al22  1  0.77529728  0.75430518  0.80477206  1
  Al  Al23  1  0.88491094  0.86887596  0.57279631  1
  Al  Al24  1  0.43922965  0.75552703  0.39733999  1
  Al  Al25  1  0.56203674  0.87672680  0.04309546  1
  Al  Al26  1  0.11419394  0.75386634  0.81522525  1
  Al  Al27  1  0.22731380  0.87639632  0.63620054  1
  Al  Al28  1  0.89336781  0.86233055  0.04053282  1
  Al  Al29  1  0.44720480  0.75432894  0.87457937  1
  Al  Al30  1  0.55269357  0.87730365  0.56912861  1
  Gd  Gd31  1  0.76269261  0.10062795  0.82504638  1
  Gd  Gd32  1  0.77921984  0.08707423  0.31490203  1
  Gd  Gd33  1  0.12366907  0.42782125  0.30671561  1
  Gd  Gd34  1  0.22413855  0.87456425  0.13302486  1
  Gd  Gd35  1  0.76804420  0.75435109  0.30391825  1
  N  N36  1  0.23392246  0.18809446  0.38608226  1
  N  N37  1  0.09532747  0.11895066  0.04966879  1
  N  N38  1  0.90195073  0.22403371  0.80508049  1
  N  N39  1  0.77276022  0.09593986  0.59895331  1
  N  N40  1  0.52234660  0.22324002  0.37479647  1
  N  N41  1  0.44069812  0.09112900  0.12374598  1
  N  N42  1  0.22362695  0.20769965  0.85863165  1
  N  N43  1  0.10720507  0.09230930  0.57561868  1
  N  N44  1  0.91037524  0.22020687  0.30565477  1
  N  N45  1  0.77709297  0.09529386  0.08806319  1
  N  N46  1  0.51105520  0.22722297  0.88628352  1
  N  N47  1  0.44540461  0.09527874  0.62650501  1
  N  N48  1  0.25236474  0.54671457  0.39907223  1
  N  N49  1  0.11254757  0.42841725  0.08931246  1
  N  N50  1  0.88990339  0.53885253  0.85560832  1
  N  N51  1  0.76889023  0.42189065  0.56898104  1
  N  N52  1  0.56493440  0.54639620  0.31474688  1
  N  N53  1  0.43759795  0.43126335  0.12591642  1
  N  N54  1  0.22271929  0.53759725  0.85928948  1
  N  N55  1  0.11223211  0.42572252  0.62167799  1
  N  N56  1  0.88984432  0.52601995  0.39126569  1
  N  N57  1  0.77571937  0.43018637  0.05811759  1
  N  N58  1  0.55892784  0.53756644  0.81701491  1
  N  N59  1  0.44791301  0.41574398  0.63060445  1
  N  N60  1  0.22208277  0.87350547  0.35076706  1
  N  N61  1  0.10132881  0.74758822  0.08647117  1
  N  N62  1  0.90088329  0.84394791  0.85845168  1
  N  N63  1  0.77280503  0.75863688  0.62263486  1
  N  N64  1  0.53065580  0.88884491  0.38826923  1
  N  N65  1  0.47087853  0.74360172  0.05425058  1
  N  N66  1  0.22577210  0.87516594  0.81947412  1
  N  N67  1  0.11374004  0.75775184  0.61516615  1
  N  N68  1  0.91305468  0.84729856  0.39646598  1
  N  N69  1  0.77794109  0.76131929  0.08903893  1
  N  N70  1  0.55536307  0.88027425  0.85979411  1
  N  N71  1  0.44415225  0.75208732  0.57994766  1
