# generated using pymatgen
data_Gd5Al31N36
_symmetry_space_group_name_H-M   'P 1'
_cell_length_a   9.68105012
_cell_length_b   9.64923068
_cell_length_c   10.57067498
_cell_angle_alpha   91.03342570
_cell_angle_beta   90.94891328
_cell_angle_gamma   60.24081498
_symmetry_Int_Tables_number   1
_chemical_formula_structural   Gd5Al31N36
_chemical_formula_sum   'Gd5 Al31 N36'
_cell_volume   857.05744601
_cell_formula_units_Z   1
loop_
 _symmetry_equiv_pos_site_id
 _symmetry_equiv_pos_as_xyz
  1  'x, y, z'
loop_
 _atom_site_type_symbol
 _atom_site_label
 _atom_site_symmetry_multiplicity
 _atom_site_fract_x
 _atom_site_fract_y
 _atom_site_fract_z
 _atom_site_occupancy
  Al  Al0  1  0.11213062  0.08794348  0.42510938  1
  Al  Al1  1  0.22129493  0.22436539  0.05839448  1
  Al  Al2  1  0.88431112  0.20547662  0.66046484  1
  Al  Al3  1  0.43563496  0.09741802  0.42138795  1
  Al  Al4  1  0.54383962  0.21251016  0.15538146  1
  Al  Al5  1  0.10630994  0.09722126  0.89013093  1
  Al  Al6  1  0.21920935  0.20148202  0.63595444  1
  Al  Al7  1  0.89417630  0.22423717  0.15677881  1
  Al  Al8  1  0.44245117  0.10140441  0.87522419  1
  Al  Al9  1  0.55004605  0.21087153  0.65515833  1
  Al  Al10  1  0.23251407  0.54975452  0.14419450  1
  Al  Al11  1  0.77418347  0.42797861  0.89964007  1
  Al  Al12  1  0.88559139  0.53589035  0.59226558  1
  Al  Al13  1  0.44213987  0.43333849  0.39849338  1
  Al  Al14  1  0.56715026  0.53832991  0.14842909  1
  Al  Al15  1  0.10539990  0.43462732  0.82784917  1
  Al  Al16  1  0.22646063  0.53899216  0.65195936  1
  Al  Al17  1  0.77259984  0.42085910  0.41427948  1
  Al  Al18  1  0.89985039  0.54880064  0.05872990  1
  Al  Al19  1  0.43936928  0.43324834  0.90228078  1
  Al  Al20  1  0.55396449  0.53100953  0.65739593  1
  Al  Al21  1  0.11854258  0.75251082  0.40743772  1
  Al  Al22  1  0.77832408  0.75065917  0.82502031  1
  Al  Al23  1  0.89423882  0.86368280  0.65492066  1
  Al  Al24  1  0.43283169  0.75403052  0.42590611  1
  Al  Al25  1  0.57190067  0.87411885  0.05110318  1
  Al  Al26  1  0.11609804  0.75331166  0.89895790  1
  Al  Al27  1  0.21827697  0.86640816  0.65624412  1
  Al  Al28  1  0.90456969  0.86792788  0.15062906  1
  Al  Al29  1  0.44523405  0.75388385  0.89097775  1
  Al  Al30  1  0.55427654  0.86743054  0.60063871  1
  Gd  Gd31  1  0.77611034  0.09032543  0.90935976  1
  Gd  Gd32  1  0.77882764  0.09201163  0.39202005  1
  Gd  Gd33  1  0.11411484  0.41347271  0.33265199  1
  Gd  Gd34  1  0.23444415  0.88934967  0.16221628  1
  Gd  Gd35  1  0.74910291  0.74597841  0.31671388  1
  N  N36  1  0.23139153  0.17437728  0.38961068  1
  N  N37  1  0.09463900  0.12829883  0.07109013  1
  N  N38  1  0.89506566  0.21962422  0.83669712  1
  N  N39  1  0.77536840  0.08839001  0.61636108  1
  N  N40  1  0.51585209  0.21842166  0.33649721  1
  N  N41  1  0.44878261  0.10247041  0.06835779  1
  N  N42  1  0.21970212  0.20859989  0.85793927  1
  N  N43  1  0.10356767  0.08960197  0.60870124  1
  N  N44  1  0.91098020  0.21923495  0.33850203  1
  N  N45  1  0.77864710  0.10178711  0.13122235  1
  N  N46  1  0.52929859  0.22700342  0.83214485  1
  N  N47  1  0.44233521  0.09795663  0.61187812  1
  N  N48  1  0.24379345  0.55698166  0.32726244  1
  N  N49  1  0.11706409  0.43703483  0.11079472  1
  N  N50  1  0.89010702  0.53774423  0.87989891  1
  N  N51  1  0.76742812  0.41708371  0.59829918  1
  N  N52  1  0.56113955  0.53936732  0.34105246  1
  N  N53  1  0.45152615  0.43026635  0.08752473  1
  N  N54  1  0.22914747  0.54122440  0.83706185  1
  N  N55  1  0.10548615  0.42774609  0.64393327  1
  N  N56  1  0.88027579  0.53000189  0.41792663  1
  N  N57  1  0.78057652  0.43390149  0.08820588  1
  N  N58  1  0.55660966  0.53343399  0.84035237  1
  N  N59  1  0.44152634  0.42641191  0.58545800  1
  N  N60  1  0.21842704  0.87143288  0.37665646  1
  N  N61  1  0.11028230  0.75929701  0.07881628  1
  N  N62  1  0.90976000  0.84350385  0.83345226  1
  N  N63  1  0.77268954  0.75353385  0.64366196  1
  N  N64  1  0.53103590  0.87813987  0.41904829  1
  N  N65  1  0.47628323  0.74692292  0.07643271  1
  N  N66  1  0.22117368  0.87156598  0.84296552  1
  N  N67  1  0.10881033  0.75397122  0.59193351  1
  N  N68  1  0.91864808  0.84173569  0.32927991  1
  N  N69  1  0.78395147  0.76913924  0.10111486  1
  N  N70  1  0.55746809  0.87287649  0.86795438  1
  N  N71  1  0.43917769  0.74957589  0.60953909  1
