# generated using pymatgen
data_Gd5Al31N36
_symmetry_space_group_name_H-M   'P 1'
_cell_length_a   9.71492892
_cell_length_b   9.68409450
_cell_length_c   10.49619776
_cell_angle_alpha   90.62098618
_cell_angle_beta   90.59314691
_cell_angle_gamma   59.98570788
_symmetry_Int_Tables_number   1
_chemical_formula_structural   Gd5Al31N36
_chemical_formula_sum   'Gd5 Al31 N36'
_cell_volume   855.00010520
_cell_formula_units_Z   1
loop_
 _symmetry_equiv_pos_site_id
 _symmetry_equiv_pos_as_xyz
  1  'x, y, z'
loop_
 _atom_site_type_symbol
 _atom_site_label
 _atom_site_symmetry_multiplicity
 _atom_site_fract_x
 _atom_site_fract_y
 _atom_site_fract_z
 _atom_site_occupancy
  Al  Al0  1  0.12076314  0.08016253  0.38836368  1
  Al  Al1  1  0.22181412  0.21283295  0.04039967  1
  Al  Al2  1  0.88226786  0.21358197  0.56260736  1
  Al  Al3  1  0.43386805  0.08928122  0.31264745  1
  Al  Al4  1  0.54255134  0.21331476  0.05652668  1
  Al  Al5  1  0.11237966  0.10168702  0.82205331  1
  Al  Al6  1  0.22814037  0.20666207  0.57232264  1
  Al  Al7  1  0.88775887  0.22005037  0.04677160  1
  Al  Al8  1  0.43809243  0.09889774  0.80492242  1
  Al  Al9  1  0.54498427  0.21020045  0.55285730  1
  Al  Al10  1  0.21958581  0.53962179  0.05190023  1
  Al  Al11  1  0.78358019  0.43126346  0.80334535  1
  Al  Al12  1  0.88827487  0.53655817  0.56706505  1
  Al  Al13  1  0.43897699  0.43310887  0.31081461  1
  Al  Al14  1  0.56118004  0.54118181  0.12795278  1
  Al  Al15  1  0.11143993  0.43205294  0.80827686  1
  Al  Al16  1  0.22546489  0.54176473  0.56380662  1
  Al  Al17  1  0.78638987  0.42189263  0.31300422  1
  Al  Al18  1  0.88925121  0.53732420  0.04122958  1
  Al  Al19  1  0.43361561  0.43012413  0.80944999  1
  Al  Al20  1  0.55270794  0.53950289  0.63126653  1
  Al  Al21  1  0.11648929  0.75238784  0.31752541  1
  Al  Al22  1  0.77990614  0.75653975  0.80527693  1
  Al  Al23  1  0.89506978  0.86715634  0.56118355  1
  Al  Al24  1  0.43660891  0.75352566  0.39273316  1
  Al  Al25  1  0.56460223  0.87666483  0.04134029  1
  Al  Al26  1  0.11392551  0.75208363  0.80817407  1
  Al  Al27  1  0.22835681  0.86731659  0.63454505  1
  Al  Al28  1  0.89328318  0.86048908  0.04709848  1
  Al  Al29  1  0.45371335  0.75135205  0.87224928  1
  Al  Al30  1  0.55394266  0.87756443  0.56662782  1
  Gd  Gd31  1  0.76829710  0.09775741  0.81382694  1
  Gd  Gd32  1  0.77906228  0.09594037  0.30633624  1
  Gd  Gd33  1  0.12100654  0.41657749  0.30503974  1
  Gd  Gd34  1  0.22710890  0.87842306  0.11309537  1
  Gd  Gd35  1  0.76826448  0.75643640  0.30405831  1
  N  N36  1  0.23650891  0.18038639  0.39223657  1
  N  N37  1  0.09863992  0.12824968  0.08385056  1
  N  N38  1  0.89738263  0.22476864  0.86408417  1
  N  N39  1  0.77197212  0.09782318  0.59101490  1
  N  N40  1  0.52084818  0.22024709  0.37040627  1
  N  N41  1  0.44170903  0.09176007  0.11955367  1
  N  N42  1  0.22376508  0.20928263  0.85479596  1
  N  N43  1  0.11023176  0.09394693  0.60770950  1
  N  N44  1  0.90209848  0.21661267  0.38235432  1
  N  N45  1  0.77726014  0.09632699  0.07977475  1
  N  N46  1  0.51594210  0.22583482  0.87818328  1
  N  N47  1  0.44748296  0.09555975  0.62421220  1
  N  N48  1  0.23963166  0.55041942  0.38490865  1
  N  N49  1  0.11093274  0.42966398  0.08603777  1
  N  N50  1  0.88834134  0.53948142  0.85784084  1
  N  N51  1  0.77977437  0.42732170  0.62117919  1
  N  N52  1  0.55731750  0.54342580  0.31860764  1
  N  N53  1  0.43759962  0.43019112  0.12211144  1
  N  N54  1  0.22301843  0.54259030  0.86785926  1
  N  N55  1  0.11255322  0.43105577  0.62027373  1
  N  N56  1  0.88275781  0.52300946  0.38959845  1
  N  N57  1  0.78700301  0.42782855  0.12272027  1
  N  N58  1  0.55585686  0.53777222  0.81683937  1
  N  N59  1  0.44162980  0.42214058  0.62325407  1
  N  N60  1  0.22326011  0.86959949  0.33666454  1
  N  N61  1  0.09280520  0.74334877  0.13128431  1
  N  N62  1  0.90747629  0.84160175  0.86753942  1
  N  N63  1  0.77684639  0.76234676  0.61882099  1
  N  N64  1  0.52960269  0.88558108  0.38463185  1
  N  N65  1  0.48054936  0.73929903  0.05224594  1
  N  N66  1  0.22857493  0.87116765  0.82598314  1
  N  N67  1  0.11041837  0.75818901  0.62617341  1
  N  N68  1  0.91452836  0.85309776  0.38476035  1
  N  N69  1  0.77761924  0.75958963  0.08854730  1
  N  N70  1  0.55797953  0.88033915  0.85638840  1
  N  N71  1  0.44245361  0.75438278  0.57743497  1
