# generated using pymatgen
data_Gd5Al31N36
_symmetry_space_group_name_H-M   'P 1'
_cell_length_a   9.69218957
_cell_length_b   9.69103290
_cell_length_c   10.58473353
_cell_angle_alpha   91.04635217
_cell_angle_beta   90.48260148
_cell_angle_gamma   59.97540192
_symmetry_Int_Tables_number   1
_chemical_formula_structural   Gd5Al31N36
_chemical_formula_sum   'Gd5 Al31 N36'
_cell_volume   860.64144384
_cell_formula_units_Z   1
loop_
 _symmetry_equiv_pos_site_id
 _symmetry_equiv_pos_as_xyz
  1  'x, y, z'
loop_
 _atom_site_type_symbol
 _atom_site_label
 _atom_site_symmetry_multiplicity
 _atom_site_fract_x
 _atom_site_fract_y
 _atom_site_fract_z
 _atom_site_occupancy
  Al  Al0  1  0.11478976  0.08489068  0.40643152  1
  Al  Al1  1  0.22584202  0.21589261  0.05243930  1
  Al  Al2  1  0.89135857  0.20922659  0.64284004  1
  Al  Al3  1  0.43192251  0.08596147  0.31764236  1
  Al  Al4  1  0.54674806  0.21170373  0.13843792  1
  Al  Al5  1  0.11109556  0.09954525  0.88026087  1
  Al  Al6  1  0.22902960  0.19815870  0.57822775  1
  Al  Al7  1  0.89466800  0.22099115  0.13681584  1
  Al  Al8  1  0.43607593  0.09196700  0.81266052  1
  Al  Al9  1  0.54648813  0.21308993  0.64151045  1
  Al  Al10  1  0.22888069  0.54389702  0.13390516  1
  Al  Al11  1  0.77470443  0.43245534  0.88211237  1
  Al  Al12  1  0.88580436  0.53806715  0.58168125  1
  Al  Al13  1  0.43743194  0.43662230  0.38493987  1
  Al  Al14  1  0.56607811  0.53504473  0.13431053  1
  Al  Al15  1  0.10944057  0.42314959  0.81395329  1
  Al  Al16  1  0.22799085  0.53658927  0.64218259  1
  Al  Al17  1  0.77195109  0.42783596  0.39713885  1
  Al  Al18  1  0.89876486  0.54157666  0.04887832  1
  Al  Al19  1  0.43425052  0.43381471  0.88952626  1
  Al  Al20  1  0.55362725  0.53288478  0.64110770  1
  Al  Al21  1  0.12746186  0.75417311  0.40677588  1
  Al  Al22  1  0.77722438  0.75788962  0.81538580  1
  Al  Al23  1  0.88996838  0.86708473  0.58356925  1
  Al  Al24  1  0.43910600  0.75448236  0.40540836  1
  Al  Al25  1  0.56313406  0.87291903  0.05027271  1
  Al  Al26  1  0.11936783  0.74958400  0.88295049  1
  Al  Al27  1  0.22373790  0.86858178  0.64597760  1
  Al  Al28  1  0.88971699  0.86341305  0.05867130  1
  Al  Al29  1  0.44727538  0.75251232  0.88153758  1
  Al  Al30  1  0.55418439  0.87399690  0.57631970  1
  Gd  Gd31  1  0.77167140  0.10993259  0.87343283  1
  Gd  Gd32  1  0.77207613  0.11185069  0.37471541  1
  Gd  Gd33  1  0.11281810  0.41306825  0.32609135  1
  Gd  Gd34  1  0.22611705  0.87909430  0.14229440  1
  Gd  Gd35  1  0.76981122  0.76137808  0.31297340  1
  N  N36  1  0.24129804  0.17569899  0.40035381  1
  N  N37  1  0.09535468  0.12145519  0.06066454  1
  N  N38  1  0.90679747  0.22767415  0.81680934  1
  N  N39  1  0.77331101  0.09699082  0.61038067  1
  N  N40  1  0.51426670  0.22797269  0.31759397  1
  N  N41  1  0.43780530  0.08420926  0.12521014  1
  N  N42  1  0.22733968  0.20895488  0.87108495  1
  N  N43  1  0.10674838  0.08721437  0.58860426  1
  N  N44  1  0.91768810  0.22475185  0.31882461  1
  N  N45  1  0.77896798  0.09405050  0.10674358  1
  N  N46  1  0.52027353  0.22915973  0.82203759  1
  N  N47  1  0.44223612  0.08741786  0.63324500  1
  N  N48  1  0.23491051  0.56199608  0.31782297  1
  N  N49  1  0.11386931  0.43067051  0.10824944  1
  N  N50  1  0.89084558  0.54095561  0.86707300  1
  N  N51  1  0.76813036  0.41990537  0.58131729  1
  N  N52  1  0.56020755  0.53647156  0.32628302  1
  N  N53  1  0.44795576  0.42752886  0.07366075  1
  N  N54  1  0.22550069  0.53879159  0.82354259  1
  N  N55  1  0.10977599  0.42099444  0.62822042  1
  N  N56  1  0.87629577  0.53849761  0.40569953  1
  N  N57  1  0.77801431  0.42873308  0.06947087  1
  N  N58  1  0.55531675  0.53262448  0.82446852  1
  N  N59  1  0.44172749  0.42550784  0.57149191  1
  N  N60  1  0.22343333  0.87059711  0.35710252  1
  N  N61  1  0.11226564  0.74563001  0.06514992  1
  N  N62  1  0.89676569  0.84987646  0.87241113  1
  N  N63  1  0.77497423  0.76026521  0.63351469  1
  N  N64  1  0.53157798  0.88514941  0.39447923  1
  N  N65  1  0.47241679  0.74041637  0.06365769  1
  N  N66  1  0.22289936  0.87219474  0.83178958  1
  N  N67  1  0.12172074  0.75125768  0.59214682  1
  N  N68  1  0.90843851  0.85836780  0.40089279  1
  N  N69  1  0.77927435  0.75914315  0.09888203  1
  N  N70  1  0.55560462  0.87664351  0.86860368  1
  N  N71  1  0.44490328  0.75101153  0.58956611  1
