# generated using pymatgen
data_Gd5Al31N36
_symmetry_space_group_name_H-M   'P 1'
_cell_length_a   9.71240463
_cell_length_b   9.71171214
_cell_length_c   10.53766000
_cell_angle_alpha   91.08721987
_cell_angle_beta   90.64690058
_cell_angle_gamma   59.94216054
_symmetry_Int_Tables_number   1
_chemical_formula_structural   Gd5Al31N36
_chemical_formula_sum   'Gd5 Al31 N36'
_cell_volume   860.13149196
_cell_formula_units_Z   1
loop_
 _symmetry_equiv_pos_site_id
 _symmetry_equiv_pos_as_xyz
  1  'x, y, z'
loop_
 _atom_site_type_symbol
 _atom_site_label
 _atom_site_symmetry_multiplicity
 _atom_site_fract_x
 _atom_site_fract_y
 _atom_site_fract_z
 _atom_site_occupancy
  Al  Al0  1  0.11529053  0.08538509  0.40698811  1
  Al  Al1  1  0.22561121  0.21646347  0.05094485  1
  Al  Al2  1  0.89122802  0.21114447  0.64149004  1
  Al  Al3  1  0.43207040  0.08708678  0.31700009  1
  Al  Al4  1  0.54454919  0.21229995  0.12256265  1
  Al  Al5  1  0.10982364  0.09938210  0.87941438  1
  Al  Al6  1  0.22820606  0.19940814  0.58061112  1
  Al  Al7  1  0.89631976  0.22313429  0.13387853  1
  Al  Al8  1  0.43710264  0.09307687  0.81820108  1
  Al  Al9  1  0.54849480  0.20975105  0.61960738  1
  Al  Al10  1  0.22747341  0.54630664  0.13608856  1
  Al  Al11  1  0.77421309  0.43166616  0.88281400  1
  Al  Al12  1  0.88527047  0.53876583  0.58201454  1
  Al  Al13  1  0.43843984  0.43659126  0.38151036  1
  Al  Al14  1  0.56594826  0.53747648  0.13631603  1
  Al  Al15  1  0.10923981  0.42283183  0.81454138  1
  Al  Al16  1  0.22726255  0.53701072  0.64249704  1
  Al  Al17  1  0.77178599  0.42714901  0.39779091  1
  Al  Al18  1  0.89880466  0.54267940  0.04888854  1
  Al  Al19  1  0.43376435  0.43406766  0.89577795  1
  Al  Al20  1  0.55356975  0.53305130  0.64230426  1
  Al  Al21  1  0.12733968  0.75422514  0.40729320  1
  Al  Al22  1  0.77708306  0.75618563  0.81549893  1
  Al  Al23  1  0.88942311  0.86721903  0.58155562  1
  Al  Al24  1  0.43850448  0.75587177  0.40654501  1
  Al  Al25  1  0.56321670  0.87312541  0.04979362  1
  Al  Al26  1  0.12058569  0.74734730  0.88290940  1
  Al  Al27  1  0.22327302  0.86864964  0.64690201  1
  Al  Al28  1  0.89001319  0.86374444  0.05697237  1
  Al  Al29  1  0.44740056  0.75149750  0.88160141  1
  Al  Al30  1  0.55369287  0.87513036  0.57871286  1
  Gd  Gd31  1  0.77407967  0.10337814  0.86092382  1
  Gd  Gd32  1  0.77765813  0.10401627  0.34987344  1
  Gd  Gd33  1  0.11303627  0.41229959  0.32670128  1
  Gd  Gd34  1  0.22664068  0.87953162  0.14143870  1
  Gd  Gd35  1  0.76827287  0.76024859  0.31407604  1
  N  N36  1  0.24251586  0.17523644  0.40211336  1
  N  N37  1  0.09639348  0.12195712  0.06048104  1
  N  N38  1  0.90564242  0.22860826  0.81681602  1
  N  N39  1  0.77251423  0.09744521  0.61166038  1
  N  N40  1  0.51498578  0.22752510  0.31720961  1
  N  N41  1  0.43668351  0.08411500  0.12510994  1
  N  N42  1  0.22482604  0.20781428  0.86836112  1
  N  N43  1  0.10709238  0.08763358  0.58986770  1
  N  N44  1  0.91895679  0.22616050  0.31843258  1
  N  N45  1  0.78209868  0.09351138  0.10723287  1
  N  N46  1  0.51929554  0.22062417  0.86385320  1
  N  N47  1  0.44382639  0.09190771  0.63655825  1
  N  N48  1  0.23354913  0.56222163  0.31982115  1
  N  N49  1  0.11462982  0.43102621  0.10749621  1
  N  N50  1  0.89040854  0.54003437  0.86658779  1
  N  N51  1  0.76735485  0.42146163  0.58211175  1
  N  N52  1  0.55996741  0.53841466  0.32776342  1
  N  N53  1  0.44493532  0.43622377  0.07967902  1
  N  N54  1  0.22749669  0.53632754  0.82381370  1
  N  N55  1  0.10912444  0.42213278  0.62794968  1
  N  N56  1  0.87649443  0.53728057  0.40543360  1
  N  N57  1  0.77765947  0.43105800  0.07046163  1
  N  N58  1  0.55465964  0.53079729  0.82566102  1
  N  N59  1  0.44086067  0.42664437  0.57136088  1
  N  N60  1  0.22257697  0.87120660  0.35754254  1
  N  N61  1  0.11176786  0.74671291  0.06583470  1
  N  N62  1  0.89905452  0.84485349  0.87159749  1
  N  N63  1  0.77459078  0.76097448  0.63292955  1
  N  N64  1  0.53043558  0.88674905  0.39639153  1
  N  N65  1  0.47300160  0.74160207  0.06451683  1
  N  N66  1  0.22231561  0.87139047  0.83281512  1
  N  N67  1  0.12125230  0.75192110  0.59300858  1
  N  N68  1  0.90879821  0.85633513  0.40036559  1
  N  N69  1  0.77933604  0.76045478  0.09894267  1
  N  N70  1  0.55535021  0.87441130  0.86707564  1
  N  N71  1  0.44438584  0.75213380  0.59153213  1
