# generated using pymatgen
data_Gd5Al31N36
_symmetry_space_group_name_H-M   'P 1'
_cell_length_a   9.71944490
_cell_length_b   9.70543801
_cell_length_c   10.30082249
_cell_angle_alpha   90.00717036
_cell_angle_beta   90.39050134
_cell_angle_gamma   59.84251171
_symmetry_Int_Tables_number   1
_chemical_formula_structural   Gd5Al31N36
_chemical_formula_sum   'Gd5 Al31 N36'
_cell_volume   840.14547610
_cell_formula_units_Z   1
loop_
 _symmetry_equiv_pos_site_id
 _symmetry_equiv_pos_as_xyz
  1  'x, y, z'
loop_
 _atom_site_type_symbol
 _atom_site_label
 _atom_site_symmetry_multiplicity
 _atom_site_fract_x
 _atom_site_fract_y
 _atom_site_fract_z
 _atom_site_occupancy
  Al  Al0  1  0.11379072  0.09758732  0.31367614  1
  Al  Al1  1  0.22225403  0.20969585  0.05281187  1
  Al  Al2  1  0.89214075  0.20975785  0.55708595  1
  Al  Al3  1  0.43166748  0.09287777  0.31578340  1
  Al  Al4  1  0.54603597  0.20982079  0.05954215  1
  Al  Al5  1  0.11228863  0.10494864  0.80965731  1
  Al  Al6  1  0.22466686  0.20150066  0.56577089  1
  Al  Al7  1  0.89129825  0.21911626  0.05964125  1
  Al  Al8  1  0.43812660  0.09790782  0.80981512  1
  Al  Al9  1  0.54421509  0.21052566  0.55736865  1
  Al  Al10  1  0.22233156  0.53439210  0.05288152  1
  Al  Al11  1  0.78041852  0.43045268  0.80907337  1
  Al  Al12  1  0.88658963  0.53643430  0.57141542  1
  Al  Al13  1  0.44162358  0.43637094  0.31352747  1
  Al  Al14  1  0.56365495  0.53492152  0.06262129  1
  Al  Al15  1  0.11432581  0.42685371  0.81082650  1
  Al  Al16  1  0.22858023  0.54100345  0.56601936  1
  Al  Al17  1  0.77507174  0.42920121  0.31386757  1
  Al  Al18  1  0.88967605  0.53660006  0.04378468  1
  Al  Al19  1  0.44049677  0.43093106  0.81192941  1
  Al  Al20  1  0.55790396  0.53467056  0.56338516  1
  Al  Al21  1  0.11901084  0.75631590  0.31472065  1
  Al  Al22  1  0.78001157  0.75595773  0.80895339  1
  Al  Al23  1  0.89481103  0.86540294  0.56208790  1
  Al  Al24  1  0.43960936  0.76128706  0.32032080  1
  Al  Al25  1  0.55927609  0.87087757  0.04956996  1
  Al  Al26  1  0.11425947  0.75016405  0.80806799  1
  Al  Al27  1  0.22295453  0.87170244  0.61931739  1
  Al  Al28  1  0.89247799  0.85832126  0.04908531  1
  Al  Al29  1  0.45477001  0.75347910  0.81133015  1
  Al  Al30  1  0.54940074  0.87555583  0.56966569  1
  Gd  Gd31  1  0.77541091  0.10015074  0.81605051  1
  Gd  Gd32  1  0.77654243  0.09635607  0.31463638  1
  Gd  Gd33  1  0.11603923  0.42840151  0.31229940  1
  Gd  Gd34  1  0.22011279  0.87308130  0.07471127  1
  Gd  Gd35  1  0.76351898  0.76083808  0.30655517  1
  N  N36  1  0.22942868  0.18334647  0.38465227  1
  N  N37  1  0.09858916  0.13075772  0.12789304  1
  N  N38  1  0.90688371  0.22325115  0.87703700  1
  N  N39  1  0.77516537  0.09684998  0.58835438  1
  N  N40  1  0.51642912  0.22296879  0.37303637  1
  N  N41  1  0.44463004  0.09067024  0.12191353  1
  N  N42  1  0.22501301  0.20375353  0.86604118  1
  N  N43  1  0.10823602  0.09858466  0.62406198  1
  N  N44  1  0.90294530  0.21910498  0.37497483  1
  N  N45  1  0.78160741  0.09255963  0.08432861  1
  N  N46  1  0.52115019  0.22215241  0.87751026  1
  N  N47  1  0.44412775  0.09592249  0.62556975  1
  N  N48  1  0.24115028  0.55429510  0.38540068  1
  N  N49  1  0.11111426  0.42772552  0.08956352  1
  N  N50  1  0.88983036  0.53718815  0.85742545  1
  N  N51  1  0.77632875  0.42452636  0.62493176  1
  N  N52  1  0.55809670  0.53594087  0.37398936  1
  N  N53  1  0.44400992  0.43072355  0.12211798  1
  N  N54  1  0.22589684  0.53848504  0.86634557  1
  N  N55  1  0.11495970  0.42753594  0.61876640  1
  N  N56  1  0.87512390  0.52700372  0.39101046  1
  N  N57  1  0.77890515  0.43173968  0.12273198  1
  N  N58  1  0.56006016  0.53380705  0.87217340  1
  N  N59  1  0.44854272  0.42609967  0.62560487  1
  N  N60  1  0.21843335  0.87552394  0.32961658  1
  N  N61  1  0.09576400  0.73819641  0.12782767  1
  N  N62  1  0.90633243  0.84273352  0.86620393  1
  N  N63  1  0.77547609  0.76276955  0.62001432  1
  N  N64  1  0.52256700  0.88634124  0.38800532  1
  N  N65  1  0.47881757  0.74644201  0.12395717  1
  N  N66  1  0.22367136  0.87205978  0.83721023  1
  N  N67  1  0.11172064  0.75846146  0.62486156  1
  N  N68  1  0.91651741  0.84875436  0.38323512  1
  N  N69  1  0.77768859  0.75728320  0.08699377  1
  N  N70  1  0.55444695  0.87443797  0.86230354  1
  N  N71  1  0.45008158  0.75402776  0.62434183  1
