# generated using pymatgen
data_Gd5Al31N36
_symmetry_space_group_name_H-M   'P 1'
_cell_length_a   9.69242543
_cell_length_b   9.66990907
_cell_length_c   10.29205275
_cell_angle_alpha   90.10059998
_cell_angle_beta   89.93380457
_cell_angle_gamma   59.98069405
_symmetry_Int_Tables_number   1
_chemical_formula_structural   Gd5Al31N36
_chemical_formula_sum   'Gd5 Al31 N36'
_cell_volume   835.22042427
_cell_formula_units_Z   1
loop_
 _symmetry_equiv_pos_site_id
 _symmetry_equiv_pos_as_xyz
  1  'x, y, z'
loop_
 _atom_site_type_symbol
 _atom_site_label
 _atom_site_symmetry_multiplicity
 _atom_site_fract_x
 _atom_site_fract_y
 _atom_site_fract_z
 _atom_site_occupancy
  Al  Al0  1  0.11596305  0.09249142  0.40980208  1
  Al  Al1  1  0.22138645  0.20437284  0.14098584  1
  Al  Al2  1  0.89234296  0.21164433  0.65163466  1
  Al  Al3  1  0.43169571  0.09002659  0.39384814  1
  Al  Al4  1  0.54101208  0.21188456  0.15177003  1
  Al  Al5  1  0.11225178  0.10130999  0.89360123  1
  Al  Al6  1  0.22353400  0.20493741  0.65753621  1
  Al  Al7  1  0.89037397  0.21560412  0.15334556  1
  Al  Al8  1  0.43760071  0.09688572  0.89881303  1
  Al  Al9  1  0.54496395  0.20965636  0.65013330  1
  Al  Al10  1  0.22560609  0.54120104  0.14117126  1
  Al  Al11  1  0.77833917  0.43160044  0.89952184  1
  Al  Al12  1  0.89017701  0.53658212  0.66467552  1
  Al  Al13  1  0.44157377  0.43752954  0.39628135  1
  Al  Al14  1  0.56262736  0.53382465  0.14642084  1
  Al  Al15  1  0.11452955  0.42704295  0.89977884  1
  Al  Al16  1  0.22442315  0.53733187  0.65772575  1
  Al  Al17  1  0.77877725  0.42770474  0.39810007  1
  Al  Al18  1  0.88750503  0.53541980  0.13698983  1
  Al  Al19  1  0.43961975  0.43227011  0.89741085  1
  Al  Al20  1  0.55852951  0.53589061  0.64856109  1
  Al  Al21  1  0.12257163  0.75823442  0.40982125  1
  Al  Al22  1  0.77843110  0.75756517  0.90044627  1
  Al  Al23  1  0.89289159  0.86450182  0.66103222  1
  Al  Al24  1  0.44298379  0.75904034  0.40823996  1
  Al  Al25  1  0.55487369  0.87113565  0.14010744  1
  Al  Al26  1  0.11475301  0.75423325  0.89473665  1
  Al  Al27  1  0.22380225  0.87185369  0.64738236  1
  Al  Al28  1  0.89461927  0.86275218  0.14717039  1
  Al  Al29  1  0.44949271  0.75635014  0.89380236  1
  Al  Al30  1  0.55511084  0.87269084  0.65845417  1
  Gd  Gd31  1  0.77420497  0.10130377  0.89792536  1
  Gd  Gd32  1  0.77197856  0.09951053  0.39225028  1
  Gd  Gd33  1  0.12424048  0.42296459  0.39086881  1
  Gd  Gd34  1  0.22393999  0.87266153  0.15639177  1
  Gd  Gd35  1  0.77062353  0.75948418  0.39822793  1
  N  N36  1  0.22868965  0.17458846  0.32476627  1
  N  N37  1  0.09511002  0.12042578  0.07649641  1
  N  N38  1  0.90280224  0.22461428  0.83158158  1
  N  N39  1  0.77734229  0.09419771  0.62164820  1
  N  N40  1  0.50898871  0.22605571  0.33526890  1
  N  N41  1  0.44346713  0.09356103  0.08451309  1
  N  N42  1  0.22410264  0.20547086  0.84238661  1
  N  N43  1  0.11234445  0.09770142  0.59634056  1
  N  N44  1  0.90763645  0.21578096  0.33934461  1
  N  N45  1  0.77354669  0.09797039  0.12633768  1
  N  N46  1  0.52096200  0.22221157  0.83254257  1
  N  N47  1  0.44296572  0.09095428  0.58622630  1
  N  N48  1  0.24046478  0.56248204  0.32460654  1
  N  N49  1  0.11598211  0.42703132  0.09290419  1
  N  N50  1  0.88978156  0.53807582  0.85176219  1
  N  N51  1  0.77909438  0.43077363  0.58791320  1
  N  N52  1  0.56035734  0.53663083  0.34002324  1
  N  N53  1  0.44771374  0.42783368  0.08497067  1
  N  N54  1  0.22510507  0.53775203  0.84227387  1
  N  N55  1  0.11096922  0.42779283  0.61351311  1
  N  N56  1  0.88005596  0.52342581  0.31818747  1
  N  N57  1  0.77592735  0.42514749  0.08481230  1
  N  N58  1  0.55863247  0.53388616  0.83570270  1
  N  N59  1  0.44292689  0.42984322  0.58641638  1
  N  N60  1  0.22389106  0.87287408  0.37771560  1
  N  N61  1  0.10085387  0.74967133  0.07545607  1
  N  N62  1  0.90217822  0.84610817  0.84181645  1
  N  N63  1  0.77787080  0.75785779  0.61722319  1
  N  N64  1  0.52386050  0.88075683  0.32511492  1
  N  N65  1  0.47203021  0.74300883  0.07686696  1
  N  N66  1  0.22303885  0.87259707  0.84103756  1
  N  N67  1  0.11156256  0.75680559  0.59766806  1
  N  N68  1  0.92501136  0.85011951  0.32857200  1
  N  N69  1  0.77626361  0.76264535  0.09159870  1
  N  N70  1  0.55433534  0.87506319  0.84390363  1
  N  N71  1  0.45088094  0.75798812  0.59666008  1
