# generated using pymatgen
data_Gd5Al31N36
_symmetry_space_group_name_H-M   'P 1'
_cell_length_a   9.66559435
_cell_length_b   9.64910993
_cell_length_c   10.58919514
_cell_angle_alpha   90.89933259
_cell_angle_beta   90.93534622
_cell_angle_gamma   60.23021090
_symmetry_Int_Tables_number   1
_chemical_formula_structural   Gd5Al31N36
_chemical_formula_sum   'Gd5 Al31 N36'
_cell_volume   857.11226773
_cell_formula_units_Z   1
loop_
 _symmetry_equiv_pos_site_id
 _symmetry_equiv_pos_as_xyz
  1  'x, y, z'
loop_
 _atom_site_type_symbol
 _atom_site_label
 _atom_site_symmetry_multiplicity
 _atom_site_fract_x
 _atom_site_fract_y
 _atom_site_fract_z
 _atom_site_occupancy
  Al  Al0  1  0.11081372  0.09032486  0.39235990  1
  Al  Al1  1  0.22499773  0.21377602  0.04063174  1
  Al  Al2  1  0.89048294  0.20958572  0.62656712  1
  Al  Al3  1  0.43350260  0.09198678  0.31580209  1
  Al  Al4  1  0.54256091  0.21365475  0.06254801  1
  Al  Al5  1  0.10737561  0.10014600  0.86804073  1
  Al  Al6  1  0.22752672  0.20526845  0.56774372  1
  Al  Al7  1  0.89232541  0.22077927  0.11821610  1
  Al  Al8  1  0.43517992  0.09920210  0.80675297  1
  Al  Al9  1  0.54671145  0.20955306  0.55847842  1
  Al  Al10  1  0.22140513  0.53953170  0.05163070  1
  Al  Al11  1  0.77457392  0.42808248  0.87194510  1
  Al  Al12  1  0.89010547  0.53743829  0.57026860  1
  Al  Al13  1  0.44316221  0.43502872  0.31251753  1
  Al  Al14  1  0.56734298  0.53939849  0.12612332  1
  Al  Al15  1  0.11098263  0.42761800  0.80689337  1
  Al  Al16  1  0.22912522  0.53833542  0.57025885  1
  Al  Al17  1  0.77541787  0.42254257  0.38629025  1
  Al  Al18  1  0.89426433  0.54249143  0.03706183  1
  Al  Al19  1  0.43387095  0.42890494  0.81211306  1
  Al  Al20  1  0.55826051  0.53573346  0.63482991  1
  Al  Al21  1  0.12091720  0.75495563  0.33871330  1
  Al  Al22  1  0.77868554  0.75420644  0.80702283  1
  Al  Al23  1  0.89352405  0.86563670  0.56873966  1
  Al  Al24  1  0.43764843  0.75614655  0.39686234  1
  Al  Al25  1  0.56278019  0.87649685  0.04249505  1
  Al  Al26  1  0.11443133  0.75243036  0.80864322  1
  Al  Al27  1  0.22479399  0.87431028  0.63393140  1
  Al  Al28  1  0.89578789  0.85955759  0.05006570  1
  Al  Al29  1  0.44836202  0.75458321  0.87247661  1
  Al  Al30  1  0.55385685  0.87732203  0.56991093  1
  Gd  Gd31  1  0.76601928  0.09542202  0.82603826  1
  Gd  Gd32  1  0.77722163  0.09020218  0.31755031  1
  Gd  Gd33  1  0.12274644  0.42385084  0.30661704  1
  Gd  Gd34  1  0.22732902  0.87874984  0.12638210  1
  Gd  Gd35  1  0.76766568  0.75376717  0.30437378  1
  N  N36  1  0.23456372  0.18647818  0.38720902  1
  N  N37  1  0.09337427  0.12150888  0.04790239  1
  N  N38  1  0.90091119  0.22328753  0.80485122  1
  N  N39  1  0.77324828  0.09454814  0.59860080  1
  N  N40  1  0.52080357  0.22423235  0.37605207  1
  N  N41  1  0.43995822  0.09083524  0.12354396  1
  N  N42  1  0.22407001  0.20869298  0.85792878  1
  N  N43  1  0.10689650  0.09140280  0.57517737  1
  N  N44  1  0.91069997  0.22137976  0.30539022  1
  N  N45  1  0.77729105  0.09436475  0.09028324  1
  N  N46  1  0.51300668  0.22724925  0.88545342  1
  N  N47  1  0.44540489  0.09541538  0.62677615  1
  N  N48  1  0.24900670  0.55042558  0.39380153  1
  N  N49  1  0.11121363  0.42796136  0.08925812  1
  N  N50  1  0.89023830  0.53818155  0.85566141  1
  N  N51  1  0.76849336  0.42211196  0.56940653  1
  N  N52  1  0.56527261  0.54630596  0.31472956  1
  N  N53  1  0.43805700  0.43044590  0.12662987  1
  N  N54  1  0.22260188  0.54195288  0.86853293  1
  N  N55  1  0.11328869  0.42740457  0.62224928  1
  N  N56  1  0.89004135  0.52648585  0.39290010  1
  N  N57  1  0.77487425  0.42943441  0.05746622  1
  N  N58  1  0.55886471  0.53814748  0.81623891  1
  N  N59  1  0.44351857  0.41905328  0.63012545  1
  N  N60  1  0.22373963  0.87463825  0.34242422  1
  N  N61  1  0.09695717  0.74246950  0.13076581  1
  N  N62  1  0.90824348  0.83938336  0.87067903  1
  N  N63  1  0.77523227  0.76035737  0.62404661  1
  N  N64  1  0.53129030  0.88858105  0.38900300  1
  N  N65  1  0.47261401  0.74217951  0.05266799  1
  N  N66  1  0.22624365  0.87573461  0.82168539  1
  N  N67  1  0.11122108  0.75661616  0.62807635  1
  N  N68  1  0.91564370  0.84731457  0.39334879  1
  N  N69  1  0.77714942  0.75949311  0.08996501  1
  N  N70  1  0.55707166  0.88078609  0.85960811  1
  N  N71  1  0.44312878  0.75282749  0.57944960  1
