# generated using pymatgen
data_Gd5Al31N36
_symmetry_space_group_name_H-M   'P 1'
_cell_length_a   9.63924077
_cell_length_b   9.61335326
_cell_length_c   10.65031356
_cell_angle_alpha   90.77311515
_cell_angle_beta   90.80313134
_cell_angle_gamma   60.35607330
_symmetry_Int_Tables_number   1
_chemical_formula_structural   Gd5Al31N36
_chemical_formula_sum   'Gd5 Al31 N36'
_cell_volume   857.63563940
_cell_formula_units_Z   1
loop_
 _symmetry_equiv_pos_site_id
 _symmetry_equiv_pos_as_xyz
  1  'x, y, z'
loop_
 _atom_site_type_symbol
 _atom_site_label
 _atom_site_symmetry_multiplicity
 _atom_site_fract_x
 _atom_site_fract_y
 _atom_site_fract_z
 _atom_site_occupancy
  Al  Al0  1  0.11179319  0.08657950  0.42692794  1
  Al  Al1  1  0.23025953  0.22015422  0.05205989  1
  Al  Al2  1  0.88352979  0.20476507  0.66212169  1
  Al  Al3  1  0.43972058  0.09939026  0.42376851  1
  Al  Al4  1  0.54376111  0.21096130  0.15824676  1
  Al  Al5  1  0.10614981  0.09743636  0.89196983  1
  Al  Al6  1  0.21358106  0.20647929  0.60698064  1
  Al  Al7  1  0.89719033  0.22360228  0.15608187  1
  Al  Al8  1  0.43817015  0.09704938  0.83372120  1
  Al  Al9  1  0.55352289  0.21324401  0.65559114  1
  Al  Al10  1  0.23190332  0.54749245  0.14304050  1
  Al  Al11  1  0.77443532  0.42683212  0.90019809  1
  Al  Al12  1  0.88635970  0.53719718  0.59122087  1
  Al  Al13  1  0.43983534  0.43600121  0.39957515  1
  Al  Al14  1  0.56809531  0.53783578  0.14675467  1
  Al  Al15  1  0.10687409  0.42908349  0.82621266  1
  Al  Al16  1  0.22510378  0.53937168  0.65264840  1
  Al  Al17  1  0.77342995  0.42335126  0.41421114  1
  Al  Al18  1  0.90156129  0.54833392  0.05716787  1
  Al  Al19  1  0.43887178  0.43204305  0.90257097  1
  Al  Al20  1  0.55402702  0.53101235  0.65763749  1
  Al  Al21  1  0.11724758  0.75300264  0.40694570  1
  Al  Al22  1  0.77966382  0.74897760  0.82434880  1
  Al  Al23  1  0.89338601  0.86497789  0.65422177  1
  Al  Al24  1  0.43172751  0.75607321  0.42655685  1
  Al  Al25  1  0.56977486  0.88028404  0.04834263  1
  Al  Al26  1  0.11521310  0.75196095  0.89805998  1
  Al  Al27  1  0.21692098  0.86674849  0.65886356  1
  Al  Al28  1  0.90443433  0.86773202  0.15120172  1
  Al  Al29  1  0.44648047  0.75259289  0.89178540  1
  Al  Al30  1  0.55491871  0.86474644  0.60289367  1
  Gd  Gd31  1  0.77276542  0.08849256  0.91447787  1
  Gd  Gd32  1  0.78189799  0.09422662  0.39003925  1
  Gd  Gd33  1  0.11243789  0.40898360  0.32794458  1
  Gd  Gd34  1  0.23569525  0.88424369  0.15781664  1
  Gd  Gd35  1  0.74385756  0.74947392  0.31308843  1
  N  N36  1  0.22853697  0.18785317  0.42912842  1
  N  N37  1  0.09757690  0.12575221  0.07317642  1
  N  N38  1  0.89334282  0.21753138  0.83789061  1
  N  N39  1  0.77445192  0.08884250  0.61250496  1
  N  N40  1  0.51614767  0.22033070  0.34055645  1
  N  N41  1  0.45057160  0.09846781  0.08527964  1
  N  N42  1  0.22051026  0.20914154  0.86878399  1
  N  N43  1  0.09969551  0.08718090  0.60915645  1
  N  N44  1  0.91711348  0.22287663  0.33703243  1
  N  N45  1  0.77978136  0.10265831  0.13523396  1
  N  N46  1  0.53080365  0.22746382  0.83127377  1
  N  N47  1  0.44319845  0.09338674  0.63256708  1
  N  N48  1  0.24016829  0.55620791  0.32685169  1
  N  N49  1  0.11854936  0.43354381  0.11051066  1
  N  N50  1  0.89107621  0.53646570  0.87997417  1
  N  N51  1  0.76798132  0.41709031  0.59671777  1
  N  N52  1  0.56071543  0.54169024  0.34089569  1
  N  N53  1  0.45179468  0.42953374  0.08802491  1
  N  N54  1  0.22881800  0.54021634  0.83615102  1
  N  N55  1  0.10416082  0.42793400  0.64571771  1
  N  N56  1  0.88097557  0.53474060  0.41701678  1
  N  N57  1  0.78163252  0.43300565  0.08766778  1
  N  N58  1  0.55696133  0.53284737  0.83945426  1
  N  N59  1  0.44034196  0.42703995  0.58490261  1
  N  N60  1  0.21878778  0.87381634  0.37274898  1
  N  N61  1  0.10875562  0.75705448  0.07691627  1
  N  N62  1  0.90904164  0.84518935  0.83134559  1
  N  N63  1  0.77290954  0.75277687  0.64432283  1
  N  N64  1  0.52943485  0.88318555  0.42314434  1
  N  N65  1  0.47859994  0.74564127  0.07414804  1
  N  N66  1  0.22182694  0.87072098  0.84376965  1
  N  N67  1  0.10854823  0.75422207  0.59049010  1
  N  N68  1  0.91657579  0.84285111  0.32886451  1
  N  N69  1  0.78423959  0.76937303  0.09949636  1
  N  N70  1  0.55764603  0.87289211  0.86650818  1
  N  N71  1  0.43766966  0.74926299  0.60840886  1
