# generated using pymatgen
data_Gd5Al31N36
_symmetry_space_group_name_H-M   'P 1'
_cell_length_a   9.66738001
_cell_length_b   9.63489905
_cell_length_c   10.61835412
_cell_angle_alpha   90.94321451
_cell_angle_beta   90.89080707
_cell_angle_gamma   60.26307119
_symmetry_Int_Tables_number   1
_chemical_formula_structural   Gd5Al31N36
_chemical_formula_sum   'Gd5 Al31 N36'
_cell_volume   858.64652415
_cell_formula_units_Z   1
loop_
 _symmetry_equiv_pos_site_id
 _symmetry_equiv_pos_as_xyz
  1  'x, y, z'
loop_
 _atom_site_type_symbol
 _atom_site_label
 _atom_site_symmetry_multiplicity
 _atom_site_fract_x
 _atom_site_fract_y
 _atom_site_fract_z
 _atom_site_occupancy
  Al  Al0  1  0.11019611  0.08629286  0.42608502  1
  Al  Al1  1  0.22234375  0.22441616  0.05428169  1
  Al  Al2  1  0.88466605  0.20501732  0.66140396  1
  Al  Al3  1  0.43901024  0.09797367  0.42460296  1
  Al  Al4  1  0.54363642  0.21189312  0.15504628  1
  Al  Al5  1  0.10692461  0.09794703  0.89088651  1
  Al  Al6  1  0.21756738  0.20461650  0.60522309  1
  Al  Al7  1  0.89507640  0.22371042  0.15649301  1
  Al  Al8  1  0.44099092  0.10144186  0.87070955  1
  Al  Al9  1  0.55151986  0.21056512  0.65651202  1
  Al  Al10  1  0.23180869  0.54833070  0.14381810  1
  Al  Al11  1  0.77444582  0.42790876  0.89973185  1
  Al  Al12  1  0.88631657  0.53624575  0.59168656  1
  Al  Al13  1  0.44063315  0.43423500  0.39893821  1
  Al  Al14  1  0.56778296  0.53768065  0.14766154  1
  Al  Al15  1  0.10712579  0.42944020  0.82513693  1
  Al  Al16  1  0.22617838  0.53887095  0.65204787  1
  Al  Al17  1  0.77305991  0.42184544  0.41435511  1
  Al  Al18  1  0.90087214  0.54839168  0.05801097  1
  Al  Al19  1  0.43906128  0.43325457  0.90205449  1
  Al  Al20  1  0.55407797  0.53105648  0.65706235  1
  Al  Al21  1  0.11782070  0.75361167  0.40740836  1
  Al  Al22  1  0.77894357  0.74981283  0.82393743  1
  Al  Al23  1  0.89407600  0.86447480  0.65437627  1
  Al  Al24  1  0.43228076  0.75464656  0.42558564  1
  Al  Al25  1  0.57218229  0.87465863  0.05034243  1
  Al  Al26  1  0.11557266  0.75185321  0.89802659  1
  Al  Al27  1  0.21779797  0.86706003  0.65809017  1
  Al  Al28  1  0.90384374  0.86826160  0.15097399  1
  Al  Al29  1  0.44608390  0.75337169  0.89113645  1
  Al  Al30  1  0.55433254  0.86733137  0.60105206  1
  Gd  Gd31  1  0.77624849  0.08948583  0.91099608  1
  Gd  Gd32  1  0.77817114  0.09438759  0.39159198  1
  Gd  Gd33  1  0.11394151  0.41105902  0.33102249  1
  Gd  Gd34  1  0.23432514  0.88467395  0.15847730  1
  Gd  Gd35  1  0.74770802  0.74756455  0.31580076  1
  N  N36  1  0.22701614  0.18544001  0.42307264  1
  N  N37  1  0.09593513  0.12641544  0.07395674  1
  N  N38  1  0.89495272  0.21918545  0.83737101  1
  N  N39  1  0.77537917  0.08889703  0.61505856  1
  N  N40  1  0.51354847  0.21907582  0.33601937  1
  N  N41  1  0.45035218  0.10109961  0.07045682  1
  N  N42  1  0.21905734  0.21106420  0.86979213  1
  N  N43  1  0.10125814  0.08757248  0.60913347  1
  N  N44  1  0.91358830  0.22041331  0.33768160  1
  N  N45  1  0.77863249  0.10229652  0.13245463  1
  N  N46  1  0.53060026  0.22695485  0.83274221  1
  N  N47  1  0.44634852  0.09576524  0.61591704  1
  N  N48  1  0.24137053  0.55710436  0.32736348  1
  N  N49  1  0.11704427  0.43548032  0.11285898  1
  N  N50  1  0.89112095  0.53722679  0.87988572  1
  N  N51  1  0.76800355  0.41714114  0.59737907  1
  N  N52  1  0.56105527  0.53929655  0.34090098  1
  N  N53  1  0.45102080  0.43045008  0.08749260  1
  N  N54  1  0.22910143  0.54015792  0.83608866  1
  N  N55  1  0.10541615  0.42727180  0.64400563  1
  N  N56  1  0.88136935  0.53141193  0.41724410  1
  N  N57  1  0.78107464  0.43329796  0.08779401  1
  N  N58  1  0.55690262  0.53332990  0.83957561  1
  N  N59  1  0.44157863  0.42610619  0.58507959  1
  N  N60  1  0.21886382  0.87293415  0.37312291  1
  N  N61  1  0.10846342  0.75728351  0.07738190  1
  N  N62  1  0.90944660  0.84400410  0.83208203  1
  N  N63  1  0.77287410  0.75320034  0.64315151  1
  N  N64  1  0.52885944  0.88042589  0.41833695  1
  N  N65  1  0.47756240  0.74580448  0.07541488  1
  N  N66  1  0.22154409  0.87109391  0.84405416  1
  N  N67  1  0.10923953  0.75412663  0.59113429  1
  N  N68  1  0.91743645  0.84385831  0.32938883  1
  N  N69  1  0.78423778  0.76866588  0.10165139  1
  N  N70  1  0.55812128  0.87245751  0.86790760  1
  N  N71  1  0.43853974  0.74982303  0.60840989  1
