# generated using pymatgen
data_Gd5Al31N36
_symmetry_space_group_name_H-M   'P 1'
_cell_length_a   9.67362357
_cell_length_b   9.64727354
_cell_length_c   10.60620116
_cell_angle_alpha   90.90592816
_cell_angle_beta   90.95715510
_cell_angle_gamma   60.28311642
_symmetry_Int_Tables_number   1
_chemical_formula_structural   Gd5Al31N36
_chemical_formula_sum   'Gd5 Al31 N36'
_cell_volume   859.48690670
_cell_formula_units_Z   1
loop_
 _symmetry_equiv_pos_site_id
 _symmetry_equiv_pos_as_xyz
  1  'x, y, z'
loop_
 _atom_site_type_symbol
 _atom_site_label
 _atom_site_symmetry_multiplicity
 _atom_site_fract_x
 _atom_site_fract_y
 _atom_site_fract_z
 _atom_site_occupancy
  Al  Al0  1  0.12098285  0.07828424  0.40305991  1
  Al  Al1  1  0.22806363  0.21500703  0.03770719  1
  Al  Al2  1  0.88640811  0.20706091  0.56812261  1
  Al  Al3  1  0.43292268  0.09235541  0.31305401  1
  Al  Al4  1  0.54492058  0.21364066  0.05483626  1
  Al  Al5  1  0.11497964  0.09598299  0.86520722  1
  Al  Al6  1  0.22881772  0.20713451  0.57068330  1
  Al  Al7  1  0.88074339  0.22343132  0.03944369  1
  Al  Al8  1  0.43751268  0.09848454  0.80331631  1
  Al  Al9  1  0.54650970  0.21013734  0.55153386  1
  Al  Al10  1  0.22243465  0.53913323  0.05157521  1
  Al  Al11  1  0.78309433  0.42972956  0.79952780  1
  Al  Al12  1  0.88972114  0.54099556  0.57364382  1
  Al  Al13  1  0.43599971  0.43268290  0.30976123  1
  Al  Al14  1  0.56928550  0.53786450  0.13047871  1
  Al  Al15  1  0.11439627  0.42973415  0.80663714  1
  Al  Al16  1  0.22505710  0.54192144  0.56201183  1
  Al  Al17  1  0.77248183  0.42896270  0.35714815  1
  Al  Al18  1  0.88919562  0.53593004  0.03590798  1
  Al  Al19  1  0.43460571  0.42948991  0.80804106  1
  Al  Al20  1  0.54901466  0.54287570  0.63148970  1
  Al  Al21  1  0.11416005  0.75179023  0.31676669  1
  Al  Al22  1  0.78106531  0.75599108  0.80628706  1
  Al  Al23  1  0.89550045  0.86662595  0.55845871  1
  Al  Al24  1  0.43153030  0.75821055  0.39606791  1
  Al  Al25  1  0.56642609  0.87621958  0.03979481  1
  Al  Al26  1  0.11586808  0.75051299  0.80706508  1
  Al  Al27  1  0.22714768  0.87270820  0.63881235  1
  Al  Al28  1  0.89681747  0.85927877  0.04583040  1
  Al  Al29  1  0.45362045  0.75023507  0.87418987  1
  Al  Al30  1  0.55480472  0.87850986  0.56646886  1
  Gd  Gd31  1  0.76675302  0.09174462  0.80993831  1
  Gd  Gd32  1  0.77982069  0.09670866  0.30258489  1
  Gd  Gd33  1  0.10956751  0.41899810  0.30278082  1
  Gd  Gd34  1  0.23152876  0.87965550  0.12158840  1
  Gd  Gd35  1  0.76281171  0.75607676  0.29962970  1
  N  N36  1  0.23444893  0.18410987  0.38825998  1
  N  N37  1  0.10221309  0.12004813  0.04963716  1
  N  N38  1  0.89282827  0.22211100  0.85457022  1
  N  N39  1  0.77258042  0.09521811  0.59114184  1
  N  N40  1  0.52397243  0.22031267  0.37064910  1
  N  N41  1  0.44301291  0.09105015  0.11979186  1
  N  N42  1  0.22578774  0.20936495  0.85355637  1
  N  N43  1  0.11518692  0.08835652  0.58851847  1
  N  N44  1  0.90015831  0.21622135  0.38691148  1
  N  N45  1  0.77900943  0.09508638  0.07808847  1
  N  N46  1  0.51613893  0.22636662  0.87842514  1
  N  N47  1  0.44817758  0.09617025  0.62376403  1
  N  N48  1  0.23601712  0.54848327  0.38312011  1
  N  N49  1  0.11188865  0.42891711  0.08525619  1
  N  N50  1  0.89069639  0.53734215  0.85289059  1
  N  N51  1  0.77692317  0.42816370  0.61510895  1
  N  N52  1  0.55381141  0.54661924  0.32249108  1
  N  N53  1  0.44065682  0.42907598  0.12394280  1
  N  N54  1  0.22536107  0.54179337  0.86847740  1
  N  N55  1  0.11421574  0.43040247  0.62130158  1
  N  N56  1  0.87847850  0.53234315  0.39887029  1
  N  N57  1  0.78840351  0.42804402  0.10943754  1
  N  N58  1  0.55585330  0.53948520  0.81359844  1
  N  N59  1  0.44096204  0.42203177  0.62239254  1
  N  N60  1  0.21958074  0.87215042  0.33737589  1
  N  N61  1  0.09702478  0.74360153  0.13072979  1
  N  N62  1  0.91149323  0.83858679  0.86903364  1
  N  N63  1  0.77626687  0.76563617  0.62234698  1
  N  N64  1  0.52785208  0.88834354  0.38556073  1
  N  N65  1  0.48011196  0.73860084  0.05358751  1
  N  N66  1  0.23005843  0.87089046  0.82502678  1
  N  N67  1  0.11080633  0.75822430  0.62586684  1
  N  N68  1  0.91092134  0.85281157  0.38222296  1
  N  N69  1  0.78014922  0.75823930  0.08572473  1
  N  N70  1  0.55853761  0.88032919  0.85740225  1
  N  N71  1  0.44096913  0.75686246  0.57752102  1
