# generated using pymatgen
data_Gd5Al31N36
_symmetry_space_group_name_H-M   'P 1'
_cell_length_a   9.67872975
_cell_length_b   9.66863339
_cell_length_c   10.61372584
_cell_angle_alpha   90.82833569
_cell_angle_beta   90.34869214
_cell_angle_gamma   60.01901166
_symmetry_Int_Tables_number   1
_chemical_formula_structural   Gd5Al31N36
_chemical_formula_sum   'Gd5 Al31 N36'
_cell_volume   860.23945776
_cell_formula_units_Z   1
loop_
 _symmetry_equiv_pos_site_id
 _symmetry_equiv_pos_as_xyz
  1  'x, y, z'
loop_
 _atom_site_type_symbol
 _atom_site_label
 _atom_site_symmetry_multiplicity
 _atom_site_fract_x
 _atom_site_fract_y
 _atom_site_fract_z
 _atom_site_occupancy
  Al  Al0  1  0.11264610  0.08574152  0.41803338  1
  Al  Al1  1  0.22674334  0.21444705  0.06663508  1
  Al  Al2  1  0.89268743  0.20958147  0.65887719  1
  Al  Al3  1  0.43133521  0.08642577  0.33046308  1
  Al  Al4  1  0.54887852  0.21076777  0.15331532  1
  Al  Al5  1  0.11194853  0.09823210  0.89515418  1
  Al  Al6  1  0.22832317  0.19784529  0.58961233  1
  Al  Al7  1  0.89416310  0.21809061  0.15131116  1
  Al  Al8  1  0.43510626  0.09203709  0.82503241  1
  Al  Al9  1  0.54426837  0.21427382  0.65630733  1
  Al  Al10  1  0.22881563  0.54392246  0.14346374  1
  Al  Al11  1  0.77565917  0.43181857  0.89696493  1
  Al  Al12  1  0.88625876  0.53644293  0.59228046  1
  Al  Al13  1  0.43664133  0.43902389  0.39577844  1
  Al  Al14  1  0.56693220  0.53450741  0.14676544  1
  Al  Al15  1  0.11005715  0.42269923  0.82695634  1
  Al  Al16  1  0.22907819  0.53538186  0.65449280  1
  Al  Al17  1  0.77265831  0.42699443  0.40802755  1
  Al  Al18  1  0.89973292  0.54131030  0.06243708  1
  Al  Al19  1  0.43486093  0.43396140  0.90170434  1
  Al  Al20  1  0.55465555  0.53234816  0.65322629  1
  Al  Al21  1  0.12373813  0.75759394  0.41999871  1
  Al  Al22  1  0.77657620  0.75558817  0.82659510  1
  Al  Al23  1  0.89191468  0.86588251  0.61551967  1
  Al  Al24  1  0.43884119  0.75472646  0.41736886  1
  Al  Al25  1  0.56333446  0.87368811  0.06306008  1
  Al  Al26  1  0.11882731  0.75049649  0.89071366  1
  Al  Al27  1  0.22491918  0.86832634  0.65765904  1
  Al  Al28  1  0.88975160  0.86706812  0.07679064  1
  Al  Al29  1  0.44799583  0.75272692  0.89414220  1
  Al  Al30  1  0.55394622  0.87334267  0.58770909  1
  Gd  Gd31  1  0.77015925  0.10964783  0.88575161  1
  Gd  Gd32  1  0.76691523  0.11631016  0.40556918  1
  Gd  Gd33  1  0.11491098  0.41507614  0.33847908  1
  Gd  Gd34  1  0.22669229  0.87532091  0.15570072  1
  Gd  Gd35  1  0.77018974  0.76308991  0.32620231  1
  N  N36  1  0.23975482  0.17679045  0.41236966  1
  N  N37  1  0.09655193  0.11866324  0.07550462  1
  N  N38  1  0.90759524  0.22719481  0.83182396  1
  N  N39  1  0.77262791  0.09769243  0.63043668  1
  N  N40  1  0.51424135  0.22875976  0.33106723  1
  N  N41  1  0.43878247  0.08381940  0.13930170  1
  N  N42  1  0.22752273  0.20862497  0.88576173  1
  N  N43  1  0.10566818  0.08711586  0.60039621  1
  N  N44  1  0.91417618  0.22208518  0.33223368  1
  N  N45  1  0.77868260  0.09391851  0.11530804  1
  N  N46  1  0.51836478  0.23025036  0.83395026  1
  N  N47  1  0.44141380  0.08684904  0.64576416  1
  N  N48  1  0.23446123  0.56675266  0.32722633  1
  N  N49  1  0.11457936  0.42981697  0.12156841  1
  N  N50  1  0.89203482  0.54053763  0.88178686  1
  N  N51  1  0.76883768  0.41770374  0.59245727  1
  N  N52  1  0.56049991  0.53754767  0.33796041  1
  N  N53  1  0.44881366  0.42688687  0.08555425  1
  N  N54  1  0.22693833  0.53803043  0.83515616  1
  N  N55  1  0.10971173  0.42030918  0.64135963  1
  N  N56  1  0.87787413  0.53724606  0.41686765  1
  N  N57  1  0.77931206  0.42748321  0.08345898  1
  N  N58  1  0.55694063  0.53254033  0.83660299  1
  N  N59  1  0.44234139  0.42498498  0.58263635  1
  N  N60  1  0.22333893  0.87144890  0.36985280  1
  N  N61  1  0.10985122  0.74588240  0.07190545  1
  N  N62  1  0.90002431  0.85050496  0.86285627  1
  N  N63  1  0.77270722  0.75668223  0.64553657  1
  N  N64  1  0.53146768  0.88564770  0.40701440  1
  N  N65  1  0.47288690  0.74021980  0.07572788  1
  N  N66  1  0.22471945  0.87223480  0.84293066  1
  N  N67  1  0.12274071  0.75033893  0.60468234  1
  N  N68  1  0.90544698  0.86249289  0.41493207  1
  N  N69  1  0.78060014  0.76058228  0.11037037  1
  N  N70  1  0.55648772  0.87730948  0.88205575  1
  N  N71  1  0.44504141  0.75009931  0.60084164  1
