# generated using pymatgen
data_Gd5Al31N36
_symmetry_space_group_name_H-M   'P 1'
_cell_length_a   9.70178909
_cell_length_b   9.67287104
_cell_length_c   10.29055693
_cell_angle_alpha   90.00470163
_cell_angle_beta   90.22322901
_cell_angle_gamma   59.95177330
_symmetry_Int_Tables_number   1
_chemical_formula_structural   Gd5Al31N36
_chemical_formula_sum   'Gd5 Al31 N36'
_cell_volume   835.91317996
_cell_formula_units_Z   1
loop_
 _symmetry_equiv_pos_site_id
 _symmetry_equiv_pos_as_xyz
  1  'x, y, z'
loop_
 _atom_site_type_symbol
 _atom_site_label
 _atom_site_symmetry_multiplicity
 _atom_site_fract_x
 _atom_site_fract_y
 _atom_site_fract_z
 _atom_site_occupancy
  Al  Al0  1  0.11423328  0.09720762  0.31694658  1
  Al  Al1  1  0.22142326  0.20803011  0.05120991  1
  Al  Al2  1  0.89132816  0.21039821  0.55724281  1
  Al  Al3  1  0.43304140  0.09263704  0.31458620  1
  Al  Al4  1  0.54457312  0.21065410  0.05844078  1
  Al  Al5  1  0.11533614  0.09637032  0.80374849  1
  Al  Al6  1  0.22468820  0.20137172  0.56621807  1
  Al  Al7  1  0.89275964  0.21642224  0.05806735  1
  Al  Al8  1  0.43680154  0.09740546  0.80972939  1
  Al  Al9  1  0.54342111  0.21116442  0.55747770  1
  Al  Al10  1  0.22136505  0.53619880  0.05146171  1
  Al  Al11  1  0.77881756  0.43137067  0.80944271  1
  Al  Al12  1  0.88619253  0.53678899  0.57193203  1
  Al  Al13  1  0.44192509  0.43571098  0.31278064  1
  Al  Al14  1  0.56376869  0.53554157  0.06357810  1
  Al  Al15  1  0.11386152  0.42719037  0.81032132  1
  Al  Al16  1  0.22823123  0.54114121  0.56647319  1
  Al  Al17  1  0.77691106  0.42780746  0.31293947  1
  Al  Al18  1  0.89026419  0.53591628  0.04198325  1
  Al  Al19  1  0.43904486  0.43338868  0.81204387  1
  Al  Al20  1  0.55770236  0.53498204  0.56174600  1
  Al  Al21  1  0.11908320  0.75568973  0.31776486  1
  Al  Al22  1  0.77863714  0.75678444  0.80986223  1
  Al  Al23  1  0.89397586  0.86605340  0.56261407  1
  Al  Al24  1  0.44617001  0.75806505  0.31973378  1
  Al  Al25  1  0.55858120  0.87055964  0.05021460  1
  Al  Al26  1  0.11743409  0.75617158  0.80193888  1
  Al  Al27  1  0.22227811  0.87190791  0.55945911  1
  Al  Al28  1  0.89321968  0.85968696  0.04693106  1
  Al  Al29  1  0.44498219  0.75899621  0.80327348  1
  Al  Al30  1  0.55007699  0.87552736  0.56761773  1
  Gd  Gd31  1  0.77353408  0.10139262  0.81486293  1
  Gd  Gd32  1  0.77503383  0.09740254  0.31380709  1
  Gd  Gd33  1  0.11748945  0.42660568  0.31174846  1
  Gd  Gd34  1  0.22411364  0.86995775  0.06952261  1
  Gd  Gd35  1  0.76745021  0.75895772  0.30423685  1
  N  N36  1  0.23148857  0.18208334  0.38461913  1
  N  N37  1  0.10050387  0.12462133  0.13128604  1
  N  N38  1  0.90841192  0.22177637  0.87509964  1
  N  N39  1  0.77362920  0.09789319  0.58762461  1
  N  N40  1  0.51598933  0.22342472  0.37278477  1
  N  N41  1  0.44330529  0.09097935  0.12110134  1
  N  N42  1  0.22275695  0.20251763  0.86407376  1
  N  N43  1  0.10974778  0.09394437  0.61793877  1
  N  N44  1  0.90330826  0.21832027  0.37472261  1
  N  N45  1  0.77995765  0.09323223  0.08331010  1
  N  N46  1  0.51858864  0.22379715  0.87704967  1
  N  N47  1  0.44413935  0.09548512  0.62519322  1
  N  N48  1  0.24177447  0.55301807  0.38516819  1
  N  N49  1  0.11113681  0.42724594  0.08840958  1
  N  N50  1  0.88958520  0.53731735  0.85652273  1
  N  N51  1  0.77492674  0.42540885  0.62499222  1
  N  N52  1  0.56024404  0.53335380  0.37249367  1
  N  N53  1  0.44273157  0.43194409  0.12157953  1
  N  N54  1  0.22350372  0.54257365  0.86459411  1
  N  N55  1  0.11459379  0.42765388  0.61838185  1
  N  N56  1  0.87632988  0.52605356  0.39107288  1
  N  N57  1  0.78040514  0.43036254  0.12145680  1
  N  N58  1  0.55695483  0.53860972  0.87249160  1
  N  N59  1  0.44811002  0.42689330  0.62535821  1
  N  N60  1  0.22215234  0.87295631  0.36230066  1
  N  N61  1  0.09635435  0.74137582  0.13135977  1
  N  N62  1  0.90808924  0.84319067  0.86369519  1
  N  N63  1  0.77460203  0.76317360  0.62033244  1
  N  N64  1  0.52675285  0.88595522  0.38553544  1
  N  N65  1  0.47957834  0.74624812  0.13314366  1
  N  N66  1  0.22336847  0.87248844  0.84970081  1
  N  N67  1  0.11352240  0.76172430  0.61878305  1
  N  N68  1  0.91588646  0.85062304  0.38322760  1
  N  N69  1  0.77811165  0.75749013  0.08418686  1
  N  N70  1  0.55129439  0.87369757  0.86261221  1
  N  N71  1  0.44511124  0.75692835  0.61669768  1
