# generated using pymatgen
data_Gd5Al31N36
_symmetry_space_group_name_H-M   'P 1'
_cell_length_a   9.71453784
_cell_length_b   9.70479550
_cell_length_c   10.39849817
_cell_angle_alpha   90.60492138
_cell_angle_beta   90.51106549
_cell_angle_gamma   59.94976953
_symmetry_Int_Tables_number   1
_chemical_formula_structural   Gd5Al31N36
_chemical_formula_sum   'Gd5 Al31 N36'
_cell_volume   848.51927138
_cell_formula_units_Z   1
loop_
 _symmetry_equiv_pos_site_id
 _symmetry_equiv_pos_as_xyz
  1  'x, y, z'
loop_
 _atom_site_type_symbol
 _atom_site_label
 _atom_site_symmetry_multiplicity
 _atom_site_fract_x
 _atom_site_fract_y
 _atom_site_fract_z
 _atom_site_occupancy
  Al  Al0  1  0.11317694  0.09362435  0.40990901  1
  Al  Al1  1  0.21970203  0.20858913  0.14490671  1
  Al  Al2  1  0.88719084  0.20706205  0.65715755  1
  Al  Al3  1  0.43408861  0.08587028  0.39789533  1
  Al  Al4  1  0.53967896  0.21519048  0.15194876  1
  Al  Al5  1  0.11015505  0.10172494  0.89638416  1
  Al  Al6  1  0.22278311  0.19641625  0.65390266  1
  Al  Al7  1  0.89078047  0.22033447  0.15375097  1
  Al  Al8  1  0.43110330  0.10545826  0.89313648  1
  Al  Al9  1  0.54209702  0.21085259  0.65006241  1
  Al  Al10  1  0.22582615  0.54630503  0.14661117  1
  Al  Al11  1  0.77546482  0.42840423  0.89842723  1
  Al  Al12  1  0.88409856  0.53373370  0.59525180  1
  Al  Al13  1  0.44587829  0.43988186  0.39473952  1
  Al  Al14  1  0.56699627  0.53615793  0.14603151  1
  Al  Al15  1  0.10981446  0.42992142  0.82970654  1
  Al  Al16  1  0.22717300  0.54365532  0.65366934  1
  Al  Al17  1  0.77633569  0.41807087  0.41034631  1
  Al  Al18  1  0.90471181  0.53864694  0.06925108  1
  Al  Al19  1  0.43719652  0.43346407  0.90045031  1
  Al  Al20  1  0.55334452  0.53327356  0.65425949  1
  Al  Al21  1  0.12186178  0.76178769  0.40839227  1
  Al  Al22  1  0.78163009  0.75028479  0.83307353  1
  Al  Al23  1  0.89328627  0.86514741  0.65414392  1
  Al  Al24  1  0.44243007  0.75872915  0.41742771  1
  Al  Al25  1  0.56312989  0.87291482  0.09109282  1
  Al  Al26  1  0.11523308  0.75539695  0.89610156  1
  Al  Al27  1  0.21839098  0.87310096  0.64841430  1
  Al  Al28  1  0.90068018  0.86964630  0.14568545  1
  Al  Al29  1  0.44456173  0.75620883  0.88880599  1
  Al  Al30  1  0.54766047  0.87432453  0.64838780  1
  Gd  Gd31  1  0.77164466  0.09609096  0.89923299  1
  Gd  Gd32  1  0.76967830  0.09816157  0.39212400  1
  Gd  Gd33  1  0.14430909  0.41442531  0.38334161  1
  Gd  Gd34  1  0.23244154  0.87654092  0.16177562  1
  Gd  Gd35  1  0.77614552  0.74051695  0.33189390  1
  N  N36  1  0.23256062  0.16568477  0.32537039  1
  N  N37  1  0.09656950  0.12231680  0.07720788  1
  N  N38  1  0.89957158  0.22022285  0.83579352  1
  N  N39  1  0.77306003  0.09155328  0.61998778  1
  N  N40  1  0.50435961  0.22832505  0.33441060  1
  N  N41  1  0.44129100  0.09898973  0.07822170  1
  N  N42  1  0.22063694  0.20279769  0.83685124  1
  N  N43  1  0.10534534  0.09797902  0.59587247  1
  N  N44  1  0.90510322  0.21571487  0.33709507  1
  N  N45  1  0.77223362  0.10200148  0.12470322  1
  N  N46  1  0.51829969  0.22585752  0.83079883  1
  N  N47  1  0.43732029  0.09510162  0.58877048  1
  N  N48  1  0.24693822  0.56950807  0.32653491  1
  N  N49  1  0.11371915  0.43336420  0.13601113  1
  N  N50  1  0.89469176  0.53583263  0.88280541  1
  N  N51  1  0.76633918  0.41873491  0.59812361  1
  N  N52  1  0.56583395  0.53785823  0.33925752  1
  N  N53  1  0.44787814  0.43082656  0.08607797  1
  N  N54  1  0.22653129  0.54192198  0.83735052  1
  N  N55  1  0.11133860  0.42718821  0.63532171  1
  N  N56  1  0.89534462  0.51228998  0.41798892  1
  N  N57  1  0.77955292  0.42974066  0.08640839  1
  N  N58  1  0.55583485  0.53350110  0.83831758  1
  N  N59  1  0.44031063  0.42928925  0.58387957  1
  N  N60  1  0.22392474  0.87434002  0.38040732  1
  N  N61  1  0.10595963  0.75414721  0.07585325  1
  N  N62  1  0.90719334  0.84532598  0.83488022  1
  N  N63  1  0.77394315  0.75428100  0.63887387  1
  N  N64  1  0.52614117  0.87731906  0.35528861  1
  N  N65  1  0.47397148  0.74378710  0.07083050  1
  N  N66  1  0.21960551  0.87473121  0.83978338  1
  N  N67  1  0.10906724  0.75809597  0.59356492  1
  N  N68  1  0.92540047  0.85433087  0.32826208  1
  N  N69  1  0.78269161  0.76358426  0.10734124  1
  N  N70  1  0.55010256  0.87810488  0.84506981  1
  N  N71  1  0.44420572  0.75494762  0.60413284  1
