# generated using pymatgen
data_Gd5Al31N36
_symmetry_space_group_name_H-M   'P 1'
_cell_length_a   9.67104344
_cell_length_b   9.61979324
_cell_length_c   10.72847250
_cell_angle_alpha   91.13375722
_cell_angle_beta   91.37778561
_cell_angle_gamma   60.19516848
_symmetry_Int_Tables_number   1
_chemical_formula_structural   Gd5Al31N36
_chemical_formula_sum   'Gd5 Al31 N36'
_cell_volume   865.79495413
_cell_formula_units_Z   1
loop_
 _symmetry_equiv_pos_site_id
 _symmetry_equiv_pos_as_xyz
  1  'x, y, z'
loop_
 _atom_site_type_symbol
 _atom_site_label
 _atom_site_symmetry_multiplicity
 _atom_site_fract_x
 _atom_site_fract_y
 _atom_site_fract_z
 _atom_site_occupancy
  Al  Al0  1  0.11350192  0.08458917  0.41003206  1
  Al  Al1  1  0.22775740  0.21555873  0.05287072  1
  Al  Al2  1  0.89329174  0.20969915  0.63817148  1
  Al  Al3  1  0.43423549  0.09252122  0.32814451  1
  Al  Al4  1  0.54978114  0.21180327  0.07157188  1
  Al  Al5  1  0.10677499  0.09551106  0.88296037  1
  Al  Al6  1  0.22932326  0.20024849  0.58160838  1
  Al  Al7  1  0.89637032  0.21987951  0.13203002  1
  Al  Al8  1  0.43362210  0.09888812  0.81944234  1
  Al  Al9  1  0.54231310  0.21452532  0.56478840  1
  Al  Al10  1  0.22280282  0.54713097  0.13287159  1
  Al  Al11  1  0.77554158  0.42529026  0.88670619  1
  Al  Al12  1  0.88514409  0.53932465  0.58269054  1
  Al  Al13  1  0.44557921  0.43359563  0.31357797  1
  Al  Al14  1  0.57294425  0.53939672  0.13641279  1
  Al  Al15  1  0.10496996  0.42219414  0.81712174  1
  Al  Al16  1  0.21796335  0.54026514  0.64776568  1
  Al  Al17  1  0.77189273  0.42481517  0.40150972  1
  Al  Al18  1  0.89902470  0.54465371  0.04719467  1
  Al  Al19  1  0.43743629  0.42639790  0.82648603  1
  Al  Al20  1  0.55793070  0.53582917  0.64837502  1
  Al  Al21  1  0.12891117  0.74955571  0.40699491  1
  Al  Al22  1  0.77777612  0.75479041  0.81692555  1
  Al  Al23  1  0.88929335  0.86567890  0.57112725  1
  Al  Al24  1  0.43913023  0.75663070  0.41182831  1
  Al  Al25  1  0.56519474  0.87774050  0.05232044  1
  Al  Al26  1  0.12037544  0.74980220  0.88715314  1
  Al  Al27  1  0.22425366  0.86747818  0.64776604  1
  Al  Al28  1  0.88833227  0.87184951  0.05318416  1
  Al  Al29  1  0.44747654  0.75446641  0.88613899  1
  Al  Al30  1  0.55444409  0.87803781  0.58189168  1
  Gd  Gd31  1  0.75838440  0.09605948  0.81858687  1
  Gd  Gd32  1  0.77687169  0.09612533  0.33281529  1
  Gd  Gd33  1  0.10842369  0.41182207  0.32332952  1
  Gd  Gd34  1  0.23095610  0.87765745  0.14851429  1
  Gd  Gd35  1  0.76298583  0.75524540  0.31072091  1
  N  N36  1  0.24053874  0.17670044  0.40514888  1
  N  N37  1  0.09826745  0.11865731  0.06181063  1
  N  N38  1  0.90004961  0.21997610  0.81675465  1
  N  N39  1  0.77428012  0.09590930  0.59910662  1
  N  N40  1  0.51545034  0.23013061  0.38645824  1
  N  N41  1  0.44349594  0.09132664  0.13546673  1
  N  N42  1  0.22301657  0.20620559  0.87204383  1
  N  N43  1  0.10853304  0.08752074  0.59042726  1
  N  N44  1  0.91667117  0.22456847  0.31909891  1
  N  N45  1  0.78140495  0.09519636  0.10768164  1
  N  N46  1  0.51389646  0.22530075  0.89775302  1
  N  N47  1  0.44758795  0.09663083  0.64086510  1
  N  N48  1  0.22805121  0.56276495  0.31598603  1
  N  N49  1  0.11346902  0.43020614  0.10632878  1
  N  N50  1  0.88890298  0.53806959  0.86849127  1
  N  N51  1  0.76698384  0.42214558  0.58294882  1
  N  N52  1  0.56426694  0.54725124  0.32728043  1
  N  N53  1  0.45493342  0.42519987  0.13115002  1
  N  N54  1  0.21576271  0.54140144  0.82769023  1
  N  N55  1  0.10608440  0.42065946  0.63321338  1
  N  N56  1  0.87866632  0.53576626  0.40965733  1
  N  N57  1  0.78083476  0.42990143  0.07045409  1
  N  N58  1  0.55937566  0.53678718  0.82975871  1
  N  N59  1  0.44514552  0.41914661  0.63904491  1
  N  N60  1  0.22301195  0.86999244  0.36117219  1
  N  N61  1  0.11325020  0.74994504  0.06517477  1
  N  N62  1  0.89768234  0.84864691  0.87440240  1
  N  N63  1  0.77588354  0.76175916  0.63640986  1
  N  N64  1  0.53257211  0.88904416  0.40271043  1
  N  N65  1  0.47352383  0.74507236  0.06563344  1
  N  N66  1  0.22391053  0.86947848  0.83141842  1
  N  N67  1  0.12101794  0.75076328  0.58926331  1
  N  N68  1  0.90857719  0.84999451  0.39509382  1
  N  N69  1  0.78241827  0.76211330  0.09869310  1
  N  N70  1  0.55603557  0.87970909  0.87122732  1
  N  N71  1  0.44496930  0.75309039  0.59311765  1
