# generated using pymatgen
data_Gd5Al31N36
_symmetry_space_group_name_H-M   'P 1'
_cell_length_a   9.67587509
_cell_length_b   9.63953787
_cell_length_c   10.66091825
_cell_angle_alpha   90.83773937
_cell_angle_beta   91.22325591
_cell_angle_gamma   60.23470666
_symmetry_Int_Tables_number   1
_chemical_formula_structural   Gd5Al31N36
_chemical_formula_sum   'Gd5 Al31 N36'
_cell_volume   862.95935696
_cell_formula_units_Z   1
loop_
 _symmetry_equiv_pos_site_id
 _symmetry_equiv_pos_as_xyz
  1  'x, y, z'
loop_
 _atom_site_type_symbol
 _atom_site_label
 _atom_site_symmetry_multiplicity
 _atom_site_fract_x
 _atom_site_fract_y
 _atom_site_fract_z
 _atom_site_occupancy
  Al  Al0  1  0.11149659  0.08969549  0.40657806  1
  Al  Al1  1  0.22953405  0.21038132  0.05362300  1
  Al  Al2  1  0.89216972  0.21111274  0.63784262  1
  Al  Al3  1  0.43304311  0.09310984  0.32814891  1
  Al  Al4  1  0.54950781  0.20982080  0.07307332  1
  Al  Al5  1  0.10777699  0.09693855  0.88323195  1
  Al  Al6  1  0.22722590  0.20411408  0.57962152  1
  Al  Al7  1  0.89717395  0.21908910  0.13175254  1
  Al  Al8  1  0.43440746  0.09840290  0.81902442  1
  Al  Al9  1  0.54343134  0.21293551  0.56524919  1
  Al  Al10  1  0.23305058  0.52794935  0.05508378  1
  Al  Al11  1  0.77590968  0.42644989  0.88559074  1
  Al  Al12  1  0.88561960  0.53967374  0.58111128  1
  Al  Al13  1  0.43934756  0.43627958  0.31855357  1
  Al  Al14  1  0.57193036  0.53875190  0.13737976  1
  Al  Al15  1  0.10737497  0.42314496  0.81820419  1
  Al  Al16  1  0.22414282  0.53509081  0.60661567  1
  Al  Al17  1  0.77323013  0.42445074  0.39837444  1
  Al  Al18  1  0.89810537  0.54340707  0.04751763  1
  Al  Al19  1  0.43788321  0.42546528  0.82275351  1
  Al  Al20  1  0.55776893  0.53682380  0.64754451  1
  Al  Al21  1  0.12627250  0.75792446  0.41975846  1
  Al  Al22  1  0.77605043  0.75479007  0.81538907  1
  Al  Al23  1  0.88469776  0.86973992  0.57807740  1
  Al  Al24  1  0.43643377  0.75555679  0.41068764  1
  Al  Al25  1  0.56571713  0.87585382  0.05362027  1
  Al  Al26  1  0.11682605  0.75713360  0.87801187  1
  Al  Al27  1  0.22271930  0.87276741  0.64995924  1
  Al  Al28  1  0.88957929  0.86790627  0.05220548  1
  Al  Al29  1  0.44858307  0.75406069  0.88615975  1
  Al  Al30  1  0.55081079  0.87879113  0.58102347  1
  Gd  Gd31  1  0.76021144  0.09920873  0.82526793  1
  Gd  Gd32  1  0.77799507  0.09317238  0.33060611  1
  Gd  Gd33  1  0.11638410  0.42389207  0.31867787  1
  Gd  Gd34  1  0.22982847  0.87221665  0.14715469  1
  Gd  Gd35  1  0.76240003  0.75709422  0.31469095  1
  N  N36  1  0.23565230  0.18523118  0.40095601  1
  N  N37  1  0.09943380  0.11590850  0.06316252  1
  N  N38  1  0.90202650  0.22199322  0.81684409  1
  N  N39  1  0.77163885  0.09847305  0.60403014  1
  N  N40  1  0.52042506  0.22469716  0.38505503  1
  N  N41  1  0.44486987  0.08921219  0.13550078  1
  N  N42  1  0.22443896  0.20529756  0.87179729  1
  N  N43  1  0.10733021  0.09123549  0.58867016  1
  N  N44  1  0.91312785  0.22413450  0.31794886  1
  N  N45  1  0.78188703  0.09353696  0.10421528  1
  N  N46  1  0.51384313  0.22509286  0.89803822  1
  N  N47  1  0.44541128  0.09709093  0.63934215  1
  N  N48  1  0.24482341  0.54595159  0.39283547  1
  N  N49  1  0.11654872  0.42779955  0.09972849  1
  N  N50  1  0.88897540  0.53897226  0.86793917  1
  N  N51  1  0.76642211  0.42340397  0.58129052  1
  N  N52  1  0.56364760  0.54693854  0.32498582  1
  N  N53  1  0.44512240  0.42841365  0.13241890  1
  N  N54  1  0.22343180  0.53408124  0.86198281  1
  N  N55  1  0.10741280  0.42470298  0.63620731  1
  N  N56  1  0.88409124  0.53185081  0.40620975  1
  N  N57  1  0.78004405  0.42874569  0.07012839  1
  N  N58  1  0.55980111  0.53698944  0.82905748  1
  N  N59  1  0.44510135  0.41820271  0.64183149  1
  N  N60  1  0.21940606  0.87241309  0.36099315  1
  N  N61  1  0.11164174  0.74925080  0.06316084  1
  N  N62  1  0.89609104  0.84818706  0.87117006  1
  N  N63  1  0.77208638  0.76155764  0.63455511  1
  N  N64  1  0.52790061  0.88931956  0.40163715  1
  N  N65  1  0.47380347  0.74356740  0.06592228  1
  N  N66  1  0.22533203  0.87272795  0.83259793  1
  N  N67  1  0.11265862  0.76102883  0.60600950  1
  N  N68  1  0.90895981  0.85005610  0.40070565  1
  N  N69  1  0.78316712  0.75984950  0.10103727  1
  N  N70  1  0.55641681  0.87946204  0.87151492  1
  N  N71  1  0.44192406  0.75351416  0.59295295  1
