# generated using pymatgen
data_Gd5Al31N36
_symmetry_space_group_name_H-M   'P 1'
_cell_length_a   9.66562667
_cell_length_b   9.63232041
_cell_length_c   10.66110533
_cell_angle_alpha   90.84809467
_cell_angle_beta   90.91146031
_cell_angle_gamma   60.31271797
_symmetry_Int_Tables_number   1
_chemical_formula_structural   Gd5Al31N36
_chemical_formula_sum   'Gd5 Al31 N36'
_cell_volume   862.15425537
_cell_formula_units_Z   1
loop_
 _symmetry_equiv_pos_site_id
 _symmetry_equiv_pos_as_xyz
  1  'x, y, z'
loop_
 _atom_site_type_symbol
 _atom_site_label
 _atom_site_symmetry_multiplicity
 _atom_site_fract_x
 _atom_site_fract_y
 _atom_site_fract_z
 _atom_site_occupancy
  Al  Al0  1  0.11112687  0.09018315  0.39908591  1
  Al  Al1  1  0.22576018  0.21378228  0.04654352  1
  Al  Al2  1  0.89274373  0.20976673  0.63070894  1
  Al  Al3  1  0.43281224  0.09244430  0.32070896  1
  Al  Al4  1  0.54525983  0.21254165  0.06723050  1
  Al  Al5  1  0.10662592  0.09953025  0.87527250  1
  Al  Al6  1  0.22818008  0.20365097  0.57259115  1
  Al  Al7  1  0.89382803  0.22067515  0.12413077  1
  Al  Al8  1  0.43403578  0.09904636  0.81266041  1
  Al  Al9  1  0.54641474  0.20941656  0.56004737  1
  Al  Al10  1  0.22966855  0.52995116  0.04886720  1
  Al  Al11  1  0.77542967  0.42732841  0.87782223  1
  Al  Al12  1  0.88944012  0.53729860  0.57380439  1
  Al  Al13  1  0.44222204  0.43529842  0.31606458  1
  Al  Al14  1  0.56866134  0.53974728  0.13132068  1
  Al  Al15  1  0.11035051  0.42656645  0.80904077  1
  Al  Al16  1  0.23260786  0.53111538  0.57859096  1
  Al  Al17  1  0.77519693  0.42200320  0.39168039  1
  Al  Al18  1  0.89638994  0.54382029  0.04091221  1
  Al  Al19  1  0.43518890  0.42676015  0.81482888  1
  Al  Al20  1  0.55915061  0.53574395  0.64060088  1
  Al  Al21  1  0.12643784  0.76188966  0.41372940  1
  Al  Al22  1  0.77634255  0.75428648  0.80852455  1
  Al  Al23  1  0.88681378  0.86691800  0.57215571  1
  Al  Al24  1  0.43687716  0.75571194  0.40376739  1
  Al  Al25  1  0.56346078  0.87683182  0.04702711  1
  Al  Al26  1  0.11668246  0.75719523  0.87289810  1
  Al  Al27  1  0.22280067  0.87176051  0.64420210  1
  Al  Al28  1  0.88657721  0.86922392  0.04598527  1
  Al  Al29  1  0.44828425  0.75400953  0.87916678  1
  Al  Al30  1  0.55162701  0.87734204  0.57464579  1
  Gd  Gd31  1  0.76015507  0.09946471  0.82029024  1
  Gd  Gd32  1  0.77815321  0.08950878  0.32268159  1
  Gd  Gd33  1  0.12133400  0.42569018  0.31329747  1
  Gd  Gd34  1  0.22691094  0.87635098  0.13835144  1
  Gd  Gd35  1  0.76327242  0.75319197  0.30787340  1
  N  N36  1  0.23457157  0.18659852  0.39295482  1
  N  N37  1  0.09568362  0.11939841  0.05462176  1
  N  N38  1  0.90137535  0.22264359  0.80919667  1
  N  N39  1  0.77336124  0.09568637  0.59787316  1
  N  N40  1  0.52086802  0.22357248  0.37957280  1
  N  N41  1  0.44128930  0.09066491  0.12868331  1
  N  N42  1  0.22318912  0.20842472  0.86426414  1
  N  N43  1  0.10841030  0.09025657  0.58137150  1
  N  N44  1  0.91223279  0.22132801  0.31075067  1
  N  N45  1  0.77785662  0.09569027  0.09693017  1
  N  N46  1  0.51279373  0.22652715  0.89178905  1
  N  N47  1  0.44597971  0.09549287  0.63272920  1
  N  N48  1  0.25145001  0.54511179  0.39935382  1
  N  N49  1  0.11277435  0.42996321  0.09631832  1
  N  N50  1  0.89058951  0.53864254  0.86077355  1
  N  N51  1  0.76854591  0.42201188  0.57425061  1
  N  N52  1  0.56521671  0.54652809  0.31939155  1
  N  N53  1  0.43939358  0.43057396  0.13083314  1
  N  N54  1  0.22512386  0.53356349  0.86544267  1
  N  N55  1  0.11237690  0.42584514  0.62655583  1
  N  N56  1  0.88864062  0.52723079  0.39832915  1
  N  N57  1  0.77664765  0.42997772  0.06272434  1
  N  N58  1  0.55942789  0.53736037  0.82158080  1
  N  N59  1  0.44708018  0.41616499  0.63497092  1
  N  N60  1  0.22102904  0.87253497  0.35207052  1
  N  N61  1  0.10754239  0.75198512  0.06051955  1
  N  N62  1  0.89617985  0.84785528  0.86493564  1
  N  N63  1  0.77289069  0.75947630  0.62739450  1
  N  N64  1  0.52848709  0.88943847  0.39498751  1
  N  N65  1  0.47192988  0.74368499  0.05898004  1
  N  N66  1  0.22483459  0.87363729  0.82689302  1
  N  N67  1  0.11386915  0.76015518  0.59926330  1
  N  N68  1  0.91100992  0.84583790  0.39308468  1
  N  N69  1  0.77999459  0.76095003  0.09457918  1
  N  N70  1  0.55595310  0.87994015  0.86485512  1
  N  N71  1  0.44217801  0.75248309  0.58582208  1
