# generated using pymatgen
data_Gd5Al31N36
_symmetry_space_group_name_H-M   'P 1'
_cell_length_a   9.66287307
_cell_length_b   9.65110126
_cell_length_c   10.56387521
_cell_angle_alpha   91.19075611
_cell_angle_beta   91.32771996
_cell_angle_gamma   60.30401971
_symmetry_Int_Tables_number   1
_chemical_formula_structural   Gd5Al31N36
_chemical_formula_sum   'Gd5 Al31 N36'
_cell_volume   855.49570933
_cell_formula_units_Z   1
loop_
 _symmetry_equiv_pos_site_id
 _symmetry_equiv_pos_as_xyz
  1  'x, y, z'
loop_
 _atom_site_type_symbol
 _atom_site_label
 _atom_site_symmetry_multiplicity
 _atom_site_fract_x
 _atom_site_fract_y
 _atom_site_fract_z
 _atom_site_occupancy
  Al  Al0  1  0.11197489  0.08692643  0.38883430  1
  Al  Al1  1  0.22536731  0.21473734  0.03956100  1
  Al  Al2  1  0.88992687  0.20942242  0.62351292  1
  Al  Al3  1  0.43238588  0.09176324  0.31439032  1
  Al  Al4  1  0.54526643  0.21251029  0.06156511  1
  Al  Al5  1  0.10650524  0.10213841  0.86601614  1
  Al  Al6  1  0.22679489  0.20470772  0.56679027  1
  Al  Al7  1  0.89196522  0.22046098  0.11880293  1
  Al  Al8  1  0.43593024  0.09962237  0.80591399  1
  Al  Al9  1  0.54319045  0.21131539  0.55660409  1
  Al  Al10  1  0.22272185  0.53765820  0.05279381  1
  Al  Al11  1  0.77486110  0.42663937  0.87003183  1
  Al  Al12  1  0.88961796  0.53830035  0.57081207  1
  Al  Al13  1  0.44110944  0.43597512  0.31071468  1
  Al  Al14  1  0.56832747  0.53879413  0.12518287  1
  Al  Al15  1  0.11240746  0.42840448  0.80554039  1
  Al  Al16  1  0.22697181  0.54213412  0.56516441  1
  Al  Al17  1  0.77450641  0.42410128  0.38576471  1
  Al  Al18  1  0.89474263  0.54130357  0.03638096  1
  Al  Al19  1  0.43449814  0.42934507  0.81081579  1
  Al  Al20  1  0.55687325  0.53647942  0.63229570  1
  Al  Al21  1  0.11851644  0.75342277  0.31863764  1
  Al  Al22  1  0.78147352  0.75342447  0.80707622  1
  Al  Al23  1  0.89621115  0.86397223  0.56306558  1
  Al  Al24  1  0.43384036  0.75768972  0.39343175  1
  Al  Al25  1  0.56487241  0.87622231  0.04131659  1
  Al  Al26  1  0.11550338  0.75158577  0.80978601  1
  Al  Al27  1  0.22379179  0.87395925  0.63383604  1
  Al  Al28  1  0.89545175  0.86002583  0.05318123  1
  Al  Al29  1  0.45155175  0.75400411  0.87011440  1
  Al  Al30  1  0.55323517  0.87757455  0.56887322  1
  Gd  Gd31  1  0.76726555  0.09079141  0.82051818  1
  Gd  Gd32  1  0.77564058  0.09398924  0.32278024  1
  Gd  Gd33  1  0.12028072  0.42156139  0.30748405  1
  Gd  Gd34  1  0.22862929  0.87920310  0.11619550  1
  Gd  Gd35  1  0.76520888  0.75442570  0.30402682  1
  N  N36  1  0.23458471  0.18417333  0.38657819  1
  N  N37  1  0.09172571  0.12500560  0.04613599  1
  N  N38  1  0.89966843  0.22149748  0.80252655  1
  N  N39  1  0.77261970  0.09442114  0.59208802  1
  N  N40  1  0.51659384  0.22631215  0.37461675  1
  N  N41  1  0.44057561  0.09040561  0.12150950  1
  N  N42  1  0.22464676  0.20949241  0.85625844  1
  N  N43  1  0.10665745  0.08950762  0.57323393  1
  N  N44  1  0.91070533  0.22355163  0.30506734  1
  N  N45  1  0.77822637  0.09299002  0.09330589  1
  N  N46  1  0.51636984  0.22676651  0.88347952  1
  N  N47  1  0.44509319  0.09567561  0.62599492  1
  N  N48  1  0.24512383  0.55418128  0.38802858  1
  N  N49  1  0.11156730  0.42793687  0.08959429  1
  N  N50  1  0.89135933  0.53678529  0.85405677  1
  N  N51  1  0.76773633  0.42272214  0.56895353  1
  N  N52  1  0.56457163  0.54639789  0.31391086  1
  N  N53  1  0.43949412  0.42959184  0.12487226  1
  N  N54  1  0.22446280  0.54171429  0.86993433  1
  N  N55  1  0.11374602  0.42806819  0.62032523  1
  N  N56  1  0.88815777  0.52854287  0.39355520  1
  N  N57  1  0.77520769  0.42836134  0.05608615  1
  N  N58  1  0.55938612  0.53848528  0.81387175  1
  N  N59  1  0.44085051  0.42111127  0.62763283  1
  N  N60  1  0.22294530  0.87450452  0.33192880  1
  N  N61  1  0.09801455  0.74045553  0.13280726  1
  N  N62  1  0.91126242  0.83780436  0.87432309  1
  N  N63  1  0.77606391  0.76204841  0.62314901  1
  N  N64  1  0.52936813  0.88906087  0.38814563  1
  N  N65  1  0.47648385  0.74076293  0.05070972  1
  N  N66  1  0.22728250  0.87598102  0.82325886  1
  N  N67  1  0.11000298  0.75710520  0.62932783  1
  N  N68  1  0.91805969  0.84654422  0.38725019  1
  N  N69  1  0.77860396  0.75785028  0.08986993  1
  N  N70  1  0.55937690  0.88100802  0.85804875  1
  N  N71  1  0.44073687  0.75384025  0.57746871  1
