# generated using pymatgen
data_Gd5Al31N36
_symmetry_space_group_name_H-M   'P 1'
_cell_length_a   9.67463149
_cell_length_b   9.63911198
_cell_length_c   10.65897010
_cell_angle_alpha   90.83667032
_cell_angle_beta   91.21300004
_cell_angle_gamma   60.23869535
_symmetry_Int_Tables_number   1
_chemical_formula_structural   Gd5Al31N36
_chemical_formula_sum   'Gd5 Al31 N36'
_cell_volume   862.68994954
_cell_formula_units_Z   1
loop_
 _symmetry_equiv_pos_site_id
 _symmetry_equiv_pos_as_xyz
  1  'x, y, z'
loop_
 _atom_site_type_symbol
 _atom_site_label
 _atom_site_symmetry_multiplicity
 _atom_site_fract_x
 _atom_site_fract_y
 _atom_site_fract_z
 _atom_site_occupancy
  Al  Al0  1  0.11144072  0.08974382  0.40650359  1
  Al  Al1  1  0.22938847  0.21054176  0.05361109  1
  Al  Al2  1  0.89217900  0.21109973  0.63782930  1
  Al  Al3  1  0.43298099  0.09308842  0.32802971  1
  Al  Al4  1  0.54924736  0.21002174  0.07317397  1
  Al  Al5  1  0.10775658  0.09707804  0.88318084  1
  Al  Al6  1  0.22717894  0.20416519  0.57968499  1
  Al  Al7  1  0.89707346  0.21913676  0.13168773  1
  Al  Al8  1  0.43440780  0.09843714  0.81906402  1
  Al  Al9  1  0.54364881  0.21269367  0.56539438  1
  Al  Al10  1  0.23286819  0.52786228  0.05405085  1
  Al  Al11  1  0.77590888  0.42649993  0.88551998  1
  Al  Al12  1  0.88585545  0.53957678  0.58115548  1
  Al  Al13  1  0.43917805  0.43635976  0.31911570  1
  Al  Al14  1  0.57169240  0.53873418  0.13739742  1
  Al  Al15  1  0.10787452  0.42356919  0.81792437  1
  Al  Al16  1  0.22532544  0.53425600  0.60081474  1
  Al  Al17  1  0.77325422  0.42439673  0.39839048  1
  Al  Al18  1  0.89813201  0.54336743  0.04751109  1
  Al  Al19  1  0.43728019  0.42567482  0.82246219  1
  Al  Al20  1  0.55778027  0.53676719  0.64759390  1
  Al  Al21  1  0.12596247  0.75870899  0.41992485  1
  Al  Al22  1  0.77608552  0.75474698  0.81537481  1
  Al  Al23  1  0.88479675  0.86962687  0.57826152  1
  Al  Al24  1  0.43646474  0.75558718  0.41072734  1
  Al  Al25  1  0.56569432  0.87585323  0.05359435  1
  Al  Al26  1  0.11687629  0.75700591  0.87789187  1
  Al  Al27  1  0.22266071  0.87267617  0.65008431  1
  Al  Al28  1  0.88954892  0.86793603  0.05224934  1
  Al  Al29  1  0.44863301  0.75398695  0.88612766  1
  Al  Al30  1  0.55077874  0.87876313  0.58107564  1
  Gd  Gd31  1  0.76019985  0.09927878  0.82541477  1
  Gd  Gd32  1  0.77792022  0.09312965  0.33053309  1
  Gd  Gd33  1  0.11660649  0.42407900  0.31869849  1
  Gd  Gd34  1  0.22978097  0.87234937  0.14687694  1
  Gd  Gd35  1  0.76230581  0.75700858  0.31464898  1
  N  N36  1  0.23544888  0.18546517  0.40077017  1
  N  N37  1  0.09931828  0.11605336  0.06311132  1
  N  N38  1  0.90202042  0.22202437  0.81680576  1
  N  N39  1  0.77169974  0.09838647  0.60400927  1
  N  N40  1  0.52033669  0.22468135  0.38509417  1
  N  N41  1  0.44479818  0.08919799  0.13552264  1
  N  N42  1  0.22437540  0.20548361  0.87171159  1
  N  N43  1  0.10737685  0.09119481  0.58859250  1
  N  N44  1  0.91304984  0.22407591  0.31793875  1
  N  N45  1  0.78169669  0.09368650  0.10420348  1
  N  N46  1  0.51384341  0.22514545  0.89807481  1
  N  N47  1  0.44541564  0.09701872  0.63931190  1
  N  N48  1  0.24557103  0.54518087  0.39688244  1
  N  N49  1  0.11640538  0.42784132  0.10005202  1
  N  N50  1  0.88916388  0.53890876  0.86784676  1
  N  N51  1  0.76649901  0.42341007  0.58125995  1
  N  N52  1  0.56346019  0.54697590  0.32512707  1
  N  N53  1  0.44438591  0.42869930  0.13302214  1
  N  N54  1  0.22384296  0.53367581  0.86427087  1
  N  N55  1  0.10790336  0.42495605  0.63587594  1
  N  N56  1  0.88437821  0.53160561  0.40605928  1
  N  N57  1  0.77987703  0.42879073  0.07013226  1
  N  N58  1  0.55975572  0.53695305  0.82902678  1
  N  N59  1  0.44511260  0.41808361  0.64182445  1
  N  N60  1  0.21949529  0.87228414  0.36077648  1
  N  N61  1  0.11139250  0.74941470  0.06361792  1
  N  N62  1  0.89612444  0.84816212  0.87114156  1
  N  N63  1  0.77203724  0.76151150  0.63447518  1
  N  N64  1  0.52779263  0.88939541  0.40162327  1
  N  N65  1  0.47386164  0.74348305  0.06590617  1
  N  N66  1  0.22535033  0.87277539  0.83270353  1
  N  N67  1  0.11259188  0.76106000  0.60617598  1
  N  N68  1  0.90899846  0.84988517  0.40059074  1
  N  N69  1  0.78309173  0.75986837  0.10105796  1
  N  N70  1  0.55641763  0.87945811  0.87148268  1
  N  N71  1  0.44187826  0.75348576  0.59294013  1
