# generated using pymatgen
data_Gd5Al31N36
_symmetry_space_group_name_H-M   'P 1'
_cell_length_a   9.69234072
_cell_length_b   9.66987949
_cell_length_c   10.29210523
_cell_angle_alpha   90.09788525
_cell_angle_beta   89.93210856
_cell_angle_gamma   59.98162082
_symmetry_Int_Tables_number   1
_chemical_formula_structural   Gd5Al31N36
_chemical_formula_sum   'Gd5 Al31 N36'
_cell_volume   835.22268963
_cell_formula_units_Z   1
loop_
 _symmetry_equiv_pos_site_id
 _symmetry_equiv_pos_as_xyz
  1  'x, y, z'
loop_
 _atom_site_type_symbol
 _atom_site_label
 _atom_site_symmetry_multiplicity
 _atom_site_fract_x
 _atom_site_fract_y
 _atom_site_fract_z
 _atom_site_occupancy
  Al  Al0  1  0.11601276  0.09244524  0.42160740  1
  Al  Al1  1  0.22143590  0.20433112  0.15279866  1
  Al  Al2  1  0.89239519  0.21160932  0.66343912  1
  Al  Al3  1  0.43174641  0.08998966  0.40566043  1
  Al  Al4  1  0.54106423  0.21184291  0.16358293  1
  Al  Al5  1  0.11230085  0.10127538  0.90541066  1
  Al  Al6  1  0.22358693  0.20490158  0.66934663  1
  Al  Al7  1  0.89042149  0.21555830  0.16516170  1
  Al  Al8  1  0.43765330  0.09684881  0.91062769  1
  Al  Al9  1  0.54501842  0.20962383  0.66194954  1
  Al  Al10  1  0.22565585  0.54115495  0.15298534  1
  Al  Al11  1  0.77838931  0.43155932  0.91133283  1
  Al  Al12  1  0.89022929  0.53654723  0.67649207  1
  Al  Al13  1  0.44162399  0.43748741  0.40809903  1
  Al  Al14  1  0.56267660  0.53378429  0.15823729  1
  Al  Al15  1  0.11458320  0.42700312  0.91158707  1
  Al  Al16  1  0.22447635  0.53729684  0.66953707  1
  Al  Al17  1  0.77882362  0.42765615  0.40991080  1
  Al  Al18  1  0.88755510  0.53537304  0.14879202  1
  Al  Al19  1  0.43967297  0.43223273  0.90922777  1
  Al  Al20  1  0.55858043  0.53585983  0.66037380  1
  Al  Al21  1  0.12262164  0.75818690  0.42163184  1
  Al  Al22  1  0.77848088  0.75752753  0.91225193  1
  Al  Al23  1  0.89294444  0.86446761  0.67284160  1
  Al  Al24  1  0.44302589  0.75900530  0.42004548  1
  Al  Al25  1  0.55492501  0.87109507  0.15192252  1
  Al  Al26  1  0.11480355  0.75419129  0.90654645  1
  Al  Al27  1  0.22385366  0.87181901  0.65919971  1
  Al  Al28  1  0.89466782  0.86269918  0.15898868  1
  Al  Al29  1  0.44954614  0.75631355  0.90561406  1
  Al  Al30  1  0.55515935  0.87266122  0.67026337  1
  Gd  Gd31  1  0.77426293  0.10125902  0.90974143  1
  Gd  Gd32  1  0.77202852  0.09944797  0.40406447  1
  Gd  Gd33  1  0.12428281  0.42292015  0.40268183  1
  Gd  Gd34  1  0.22398625  0.87261573  0.16819169  1
  Gd  Gd35  1  0.77067156  0.75941637  0.41004667  1
  N  N36  1  0.22874110  0.17454889  0.33657791  1
  N  N37  1  0.09515664  0.12038700  0.08830727  1
  N  N38  1  0.90285370  0.22457913  0.84338668  1
  N  N39  1  0.77739463  0.09416426  0.63345945  1
  N  N40  1  0.50904236  0.22601851  0.34708162  1
  N  N41  1  0.44351794  0.09352087  0.09632642  1
  N  N42  1  0.22415689  0.20543405  0.85419609  1
  N  N43  1  0.11239960  0.09766350  0.60814683  1
  N  N44  1  0.90767943  0.21573213  0.35116170  1
  N  N45  1  0.77360034  0.09791891  0.13815470  1
  N  N46  1  0.52101979  0.22217633  0.84435912  1
  N  N47  1  0.44301804  0.09092427  0.59803868  1
  N  N48  1  0.24051447  0.56243544  0.33642138  1
  N  N49  1  0.11603363  0.42698680  0.10471111  1
  N  N50  1  0.88983347  0.53803811  0.86357565  1
  N  N51  1  0.77914609  0.43074344  0.59972259  1
  N  N52  1  0.56040333  0.53659591  0.35183687  1
  N  N53  1  0.44776347  0.42779388  0.09678573  1
  N  N54  1  0.22516007  0.53771419  0.85408442  1
  N  N55  1  0.11101997  0.42776011  0.62532680  1
  N  N56  1  0.88010729  0.52337040  0.32998749  1
  N  N57  1  0.77597471  0.42510012  0.09662223  1
  N  N58  1  0.55868352  0.53385447  0.84751441  1
  N  N59  1  0.44298030  0.42980941  0.59823183  1
  N  N60  1  0.22393550  0.87283331  0.38951308  1
  N  N61  1  0.10089999  0.74962432  0.08726656  1
  N  N62  1  0.90223191  0.84607093  0.85362418  1
  N  N63  1  0.77792188  0.75782481  0.62904064  1
  N  N64  1  0.52391222  0.88072295  0.33692873  1
  N  N65  1  0.47208202  0.74296865  0.08867960  1
  N  N66  1  0.22309021  0.87256169  0.85285280  1
  N  N67  1  0.11161664  0.75677161  0.60948001  1
  N  N68  1  0.92505791  0.85005546  0.34038991  1
  N  N69  1  0.77631184  0.76260058  0.10340455  1
  N  N70  1  0.55438491  0.87503105  0.85571227  1
  N  N71  1  0.45092927  0.75795783  0.60846678  1
