# generated using pymatgen
data_Gd5Al31N36
_symmetry_space_group_name_H-M   'P 1'
_cell_length_a   9.70942482
_cell_length_b   9.70854639
_cell_length_c   10.54009207
_cell_angle_alpha   91.11777247
_cell_angle_beta   90.78085703
_cell_angle_gamma   59.93557528
_symmetry_Int_Tables_number   1
_chemical_formula_structural   Gd5Al31N36
_chemical_formula_sum   'Gd5 Al31 N36'
_cell_volume   859.71298168
_cell_formula_units_Z   1
loop_
 _symmetry_equiv_pos_site_id
 _symmetry_equiv_pos_as_xyz
  1  'x, y, z'
loop_
 _atom_site_type_symbol
 _atom_site_label
 _atom_site_symmetry_multiplicity
 _atom_site_fract_x
 _atom_site_fract_y
 _atom_site_fract_z
 _atom_site_occupancy
  Al  Al0  1  0.11424427  0.08537361  0.40738969  1
  Al  Al1  1  0.22593751  0.21686808  0.05133232  1
  Al  Al2  1  0.89116342  0.21161690  0.64065082  1
  Al  Al3  1  0.43278172  0.08752283  0.31965724  1
  Al  Al4  1  0.54576973  0.20796779  0.08616179  1
  Al  Al5  1  0.10992677  0.09882981  0.87954615  1
  Al  Al6  1  0.22820880  0.19956250  0.58130027  1
  Al  Al7  1  0.89671816  0.22368990  0.13250702  1
  Al  Al8  1  0.43849806  0.09526605  0.81985223  1
  Al  Al9  1  0.54805268  0.20628352  0.57952089  1
  Al  Al10  1  0.22725384  0.54687724  0.13692407  1
  Al  Al11  1  0.77439890  0.43077850  0.88361067  1
  Al  Al12  1  0.88518309  0.53902260  0.58196908  1
  Al  Al13  1  0.43727167  0.43966996  0.38296792  1
  Al  Al14  1  0.56613928  0.53808525  0.13762595  1
  Al  Al15  1  0.10893201  0.42268176  0.81447901  1
  Al  Al16  1  0.22784571  0.53701100  0.64280873  1
  Al  Al17  1  0.77182658  0.42655806  0.39816172  1
  Al  Al18  1  0.89894033  0.54309840  0.04910667  1
  Al  Al19  1  0.43320381  0.43518142  0.89846121  1
  Al  Al20  1  0.55321904  0.53300490  0.64288607  1
  Al  Al21  1  0.12701739  0.75419205  0.40756380  1
  Al  Al22  1  0.77725033  0.75569067  0.81556245  1
  Al  Al23  1  0.88915320  0.86755604  0.58029015  1
  Al  Al24  1  0.43836224  0.75617629  0.40738052  1
  Al  Al25  1  0.56327065  0.87354599  0.05068548  1
  Al  Al26  1  0.12136464  0.74679784  0.88299798  1
  Al  Al27  1  0.22326692  0.86856348  0.64714005  1
  Al  Al28  1  0.88985319  0.86501510  0.05539486  1
  Al  Al29  1  0.44756385  0.75150767  0.88184300  1
  Al  Al30  1  0.55355915  0.87565528  0.57979915  1
  Gd  Gd31  1  0.77018428  0.10170433  0.84759059  1
  Gd  Gd32  1  0.77888668  0.10057533  0.33799338  1
  Gd  Gd33  1  0.11343172  0.41167734  0.32730642  1
  Gd  Gd34  1  0.22688754  0.87936619  0.14180830  1
  Gd  Gd35  1  0.76776973  0.75987827  0.31430609  1
  N  N36  1  0.24154913  0.17439007  0.40282301  1
  N  N37  1  0.09734605  0.12193203  0.06046957  1
  N  N38  1  0.90470578  0.22716686  0.81767018  1
  N  N39  1  0.77110439  0.09835433  0.61221371  1
  N  N40  1  0.51673072  0.22247273  0.35218066  1
  N  N41  1  0.43793713  0.08631237  0.12933775  1
  N  N42  1  0.22505125  0.20749647  0.86786751  1
  N  N43  1  0.10713632  0.08772593  0.59062083  1
  N  N44  1  0.91839620  0.22667747  0.31817186  1
  N  N45  1  0.78266384  0.09380749  0.10579271  1
  N  N46  1  0.51838782  0.21525683  0.89803310  1
  N  N47  1  0.44609540  0.09544632  0.63834765  1
  N  N48  1  0.23304890  0.56245391  0.31969785  1
  N  N49  1  0.11480469  0.43117527  0.10765931  1
  N  N50  1  0.89038928  0.53970223  0.86668857  1
  N  N51  1  0.76731308  0.42205748  0.58262314  1
  N  N52  1  0.55993492  0.53918481  0.32834757  1
  N  N53  1  0.44446213  0.43952994  0.08348628  1
  N  N54  1  0.22890320  0.53447075  0.82424390  1
  N  N55  1  0.10900466  0.42242541  0.62820682  1
  N  N56  1  0.87679099  0.53686539  0.40550017  1
  N  N57  1  0.77765042  0.43192939  0.07074405  1
  N  N58  1  0.55480115  0.52937110  0.82646225  1
  N  N59  1  0.43903814  0.43163332  0.57297782  1
  N  N60  1  0.22219228  0.87110601  0.35790404  1
  N  N61  1  0.11167025  0.74701403  0.06558717  1
  N  N62  1  0.89957439  0.84503129  0.87108767  1
  N  N63  1  0.77462884  0.76117370  0.63319920  1
  N  N64  1  0.53046509  0.88629257  0.39760506  1
  N  N65  1  0.47316283  0.74234659  0.06476469  1
  N  N66  1  0.22261777  0.87086205  0.83302428  1
  N  N67  1  0.12069074  0.75232928  0.59349172  1
  N  N68  1  0.90850994  0.85615375  0.40023075  1
  N  N69  1  0.77975235  0.76119142  0.09880686  1
  N  N70  1  0.55535023  0.87500254  0.86734162  1
  N  N71  1  0.44432823  0.75291263  0.59263674  1
