# generated using pymatgen
data_Gd5Al31N36
_symmetry_space_group_name_H-M   'P 1'
_cell_length_a   9.65118554
_cell_length_b   9.65026313
_cell_length_c   10.67657284
_cell_angle_alpha   90.90856669
_cell_angle_beta   90.25441736
_cell_angle_gamma   60.08022044
_symmetry_Int_Tables_number   1
_chemical_formula_structural   Gd5Al31N36
_chemical_formula_sum   'Gd5 Al31 N36'
_cell_volume   861.73698122
_cell_formula_units_Z   1
loop_
 _symmetry_equiv_pos_site_id
 _symmetry_equiv_pos_as_xyz
  1  'x, y, z'
loop_
 _atom_site_type_symbol
 _atom_site_label
 _atom_site_symmetry_multiplicity
 _atom_site_fract_x
 _atom_site_fract_y
 _atom_site_fract_z
 _atom_site_occupancy
  Al  Al0  1  0.11438232  0.08412716  0.40750845  1
  Al  Al1  1  0.22679890  0.21342824  0.05409176  1
  Al  Al2  1  0.89300157  0.20917578  0.64699572  1
  Al  Al3  1  0.43256803  0.08499649  0.31948228  1
  Al  Al4  1  0.54940870  0.20914321  0.14244713  1
  Al  Al5  1  0.11151481  0.09808937  0.88311557  1
  Al  Al6  1  0.22907271  0.19708210  0.57864431  1
  Al  Al7  1  0.89366118  0.21757414  0.13904621  1
  Al  Al8  1  0.43525527  0.09115039  0.81339356  1
  Al  Al9  1  0.54485414  0.21335754  0.64522784  1
  Al  Al10  1  0.22840054  0.54252262  0.13343288  1
  Al  Al11  1  0.77494305  0.43295234  0.88409686  1
  Al  Al12  1  0.88711141  0.53791577  0.58190597  1
  Al  Al13  1  0.43397701  0.43883021  0.38494716  1
  Al  Al14  1  0.56608460  0.53329774  0.13420460  1
  Al  Al15  1  0.10916250  0.42228525  0.81561669  1
  Al  Al16  1  0.22818294  0.53534388  0.64354299  1
  Al  Al17  1  0.77244679  0.43135393  0.39642046  1
  Al  Al18  1  0.89848297  0.54064014  0.05041662  1
  Al  Al19  1  0.43258361  0.43466155  0.89026910  1
  Al  Al20  1  0.55475383  0.53183193  0.64126032  1
  Al  Al21  1  0.12604617  0.75628036  0.40870719  1
  Al  Al22  1  0.77742803  0.75868240  0.81713909  1
  Al  Al23  1  0.89088895  0.86771955  0.58803546  1
  Al  Al24  1  0.44126845  0.75387576  0.40587168  1
  Al  Al25  1  0.56315483  0.87182369  0.05216182  1
  Al  Al26  1  0.11887058  0.75084188  0.88339602  1
  Al  Al27  1  0.22514721  0.86738587  0.64643484  1
  Al  Al28  1  0.88916560  0.86383831  0.05799942  1
  Al  Al29  1  0.44745043  0.75243269  0.88267473  1
  Al  Al30  1  0.55634165  0.87244116  0.57649232  1
  Gd  Gd31  1  0.76791013  0.11435935  0.87718206  1
  Gd  Gd32  1  0.76524104  0.12478009  0.39300373  1
  Gd  Gd33  1  0.11168351  0.41037871  0.32394997  1
  Gd  Gd34  1  0.22626347  0.87643195  0.14509513  1
  Gd  Gd35  1  0.77416911  0.76756231  0.31356704  1
  N  N36  1  0.24190828  0.17521951  0.40280586  1
  N  N37  1  0.09553890  0.11809890  0.06211211  1
  N  N38  1  0.90801271  0.22820169  0.81855772  1
  N  N39  1  0.77290729  0.09742932  0.61826023  1
  N  N40  1  0.51419933  0.22850132  0.31918882  1
  N  N41  1  0.43793743  0.08239288  0.12897841  1
  N  N42  1  0.22763126  0.20837702  0.87442601  1
  N  N43  1  0.10617042  0.08576071  0.58845146  1
  N  N44  1  0.91742975  0.22602335  0.31952577  1
  N  N45  1  0.77881428  0.09292502  0.10600439  1
  N  N46  1  0.51725845  0.23098944  0.82165606  1
  N  N47  1  0.44198789  0.08552348  0.63507033  1
  N  N48  1  0.23072632  0.56417012  0.31722015  1
  N  N49  1  0.11365037  0.42873344  0.10905851  1
  N  N50  1  0.89102259  0.54205939  0.87019910  1
  N  N51  1  0.76956943  0.41779847  0.57972596  1
  N  N52  1  0.56007025  0.53634894  0.32611941  1
  N  N53  1  0.44831697  0.42492272  0.07383033  1
  N  N54  1  0.22438150  0.53993349  0.82351700  1
  N  N55  1  0.10976469  0.41912831  0.63124997  1
  N  N56  1  0.87638639  0.54373900  0.40720873  1
  N  N57  1  0.77832437  0.42597163  0.06986529  1
  N  N58  1  0.55611268  0.53225355  0.82407477  1
  N  N59  1  0.44225780  0.42411309  0.57100129  1
  N  N60  1  0.22564604  0.86978564  0.35826892  1
  N  N61  1  0.11250913  0.74418724  0.06398298  1
  N  N62  1  0.89541124  0.85322570  0.87359585  1
  N  N63  1  0.77611137  0.75932150  0.63656677  1
  N  N64  1  0.53567058  0.88398364  0.39590225  1
  N  N65  1  0.47162210  0.73869638  0.06305190  1
  N  N66  1  0.22390851  0.87192984  0.83079196  1
  N  N67  1  0.12296678  0.74956820  0.59255814  1
  N  N68  1  0.90578937  0.86957920  0.40678376  1
  N  N69  1  0.77951425  0.75826062  0.10082024  1
  N  N70  1  0.55602746  0.87722426  0.87161892  1
  N  N71  1  0.44646697  0.74950854  0.58868884  1
