# generated using pymatgen
data_Gd5Al31N36
_symmetry_space_group_name_H-M   'P 1'
_cell_length_a   9.62552526
_cell_length_b   9.61502735
_cell_length_c   10.67294808
_cell_angle_alpha   90.66233394
_cell_angle_beta   90.66675828
_cell_angle_gamma   60.27842545
_symmetry_Int_Tables_number   1
_chemical_formula_structural   Gd5Al31N36
_chemical_formula_sum   'Gd5 Al31 N36'
_cell_volume   857.75362245
_cell_formula_units_Z   1
loop_
 _symmetry_equiv_pos_site_id
 _symmetry_equiv_pos_as_xyz
  1  'x, y, z'
loop_
 _atom_site_type_symbol
 _atom_site_label
 _atom_site_symmetry_multiplicity
 _atom_site_fract_x
 _atom_site_fract_y
 _atom_site_fract_z
 _atom_site_occupancy
  Al  Al0  1  0.11166156  0.08872848  0.41995930  1
  Al  Al1  1  0.22623229  0.21668713  0.06578694  1
  Al  Al2  1  0.88817934  0.20535050  0.65977209  1
  Al  Al3  1  0.43060333  0.08953637  0.33283447  1
  Al  Al4  1  0.54759807  0.21532540  0.15724317  1
  Al  Al5  1  0.11010500  0.09814416  0.89473767  1
  Al  Al6  1  0.22675658  0.20097473  0.59070181  1
  Al  Al7  1  0.89331235  0.22240177  0.15501294  1
  Al  Al8  1  0.43593756  0.09430047  0.82439601  1
  Al  Al9  1  0.54997464  0.21178873  0.65528028  1
  Al  Al10  1  0.22991485  0.54649034  0.14195950  1
  Al  Al11  1  0.77546407  0.42811195  0.89788462  1
  Al  Al12  1  0.88579675  0.53549264  0.59511338  1
  Al  Al13  1  0.44128358  0.43790348  0.39866717  1
  Al  Al14  1  0.56735957  0.53640986  0.14643052  1
  Al  Al15  1  0.11131023  0.42366817  0.82675937  1
  Al  Al16  1  0.22532425  0.53909432  0.65177552  1
  Al  Al17  1  0.77352381  0.42286035  0.41405608  1
  Al  Al18  1  0.90011929  0.54660391  0.05909797  1
  Al  Al19  1  0.43890492  0.43245207  0.90015793  1
  Al  Al20  1  0.55324969  0.53380665  0.65548946  1
  Al  Al21  1  0.11879291  0.75710520  0.40660928  1
  Al  Al22  1  0.77562212  0.75250692  0.82580325  1
  Al  Al23  1  0.89337480  0.86440377  0.65448017  1
  Al  Al24  1  0.43434164  0.75753305  0.42068780  1
  Al  Al25  1  0.56534644  0.87743992  0.06069895  1
  Al  Al26  1  0.11512968  0.75125100  0.89510596  1
  Al  Al27  1  0.21948986  0.86956210  0.65474688  1
  Al  Al28  1  0.90059337  0.86862099  0.14836992  1
  Al  Al29  1  0.44654799  0.75456532  0.89389312  1
  Al  Al30  1  0.55120209  0.87577206  0.58948254  1
  Gd  Gd31  1  0.77765218  0.09084333  0.90633827  1
  Gd  Gd32  1  0.77688293  0.09632665  0.39608573  1
  Gd  Gd33  1  0.11409967  0.41791853  0.33524498  1
  Gd  Gd34  1  0.23004204  0.87849698  0.15667529  1
  Gd  Gd35  1  0.75474449  0.74639916  0.31895662  1
  N  N36  1  0.23868771  0.18133537  0.41395047  1
  N  N37  1  0.09418214  0.12150599  0.07524891  1
  N  N38  1  0.90045030  0.22008118  0.83428530  1
  N  N39  1  0.77468481  0.08967955  0.61672305  1
  N  N40  1  0.51890168  0.22849570  0.33407682  1
  N  N41  1  0.43840036  0.08620660  0.14099356  1
  N  N42  1  0.22811787  0.20889162  0.88596324  1
  N  N43  1  0.10301686  0.08968424  0.60123885  1
  N  N44  1  0.91194050  0.22246475  0.33537517  1
  N  N45  1  0.77680116  0.10087112  0.12653075  1
  N  N46  1  0.53026927  0.22581868  0.83435906  1
  N  N47  1  0.44010771  0.08936090  0.64727735  1
  N  N48  1  0.24252403  0.56217665  0.32487730  1
  N  N49  1  0.11497961  0.43225840  0.11910860  1
  N  N50  1  0.89281092  0.53801412  0.88057706  1
  N  N51  1  0.76720071  0.41681995  0.59635901  1
  N  N52  1  0.56264603  0.54233046  0.33902381  1
  N  N53  1  0.44926455  0.42859304  0.08449183  1
  N  N54  1  0.22884174  0.53979342  0.83395892  1
  N  N55  1  0.10888209  0.42123507  0.64413326  1
  N  N56  1  0.88310733  0.53140669  0.42197237  1
  N  N57  1  0.77982505  0.43075949  0.08450915  1
  N  N58  1  0.55679238  0.53543103  0.83740337  1
  N  N59  1  0.44065783  0.42683729  0.58432721  1
  N  N60  1  0.22070604  0.87526933  0.36997290  1
  N  N61  1  0.10449174  0.75348202  0.07283430  1
  N  N62  1  0.90855942  0.84427507  0.83035353  1
  N  N63  1  0.76834333  0.75559974  0.64360211  1
  N  N64  1  0.52768739  0.89058187  0.41110969  1
  N  N65  1  0.47382151  0.74291491  0.07507335  1
  N  N66  1  0.22251907  0.87232504  0.84118537  1
  N  N67  1  0.10908369  0.75530400  0.58958284  1
  N  N68  1  0.91916844  0.84850400  0.32697151  1
  N  N69  1  0.78174882  0.76549742  0.10637001  1
  N  N70  1  0.55711066  0.87936948  0.88141680  1
  N  N71  1  0.44039535  0.75173462  0.60182649  1
