# generated using pymatgen
data_Gd5Al31N36
_symmetry_space_group_name_H-M   'P 1'
_cell_length_a   9.65091008
_cell_length_b   9.64367869
_cell_length_c   10.59974604
_cell_angle_alpha   91.10565610
_cell_angle_beta   91.01713718
_cell_angle_gamma   60.49576270
_symmetry_Int_Tables_number   1
_chemical_formula_structural   Gd5Al31N36
_chemical_formula_sum   'Gd5 Al31 N36'
_cell_volume   858.39006739
_cell_formula_units_Z   1
loop_
 _symmetry_equiv_pos_site_id
 _symmetry_equiv_pos_as_xyz
  1  'x, y, z'
loop_
 _atom_site_type_symbol
 _atom_site_label
 _atom_site_symmetry_multiplicity
 _atom_site_fract_x
 _atom_site_fract_y
 _atom_site_fract_z
 _atom_site_occupancy
  Al  Al0  1  0.11315593  0.08291559  0.40033444  1
  Al  Al1  1  0.22398201  0.21667614  0.03539820  1
  Al  Al2  1  0.89031436  0.20961983  0.62246539  1
  Al  Al3  1  0.43379443  0.09149862  0.31512288  1
  Al  Al4  1  0.54115087  0.21473282  0.05702216  1
  Al  Al5  1  0.10900507  0.09930399  0.85896971  1
  Al  Al6  1  0.23020109  0.20520516  0.56946091  1
  Al  Al7  1  0.88351196  0.21546465  0.07852681  1
  Al  Al8  1  0.43563766  0.09952253  0.80398573  1
  Al  Al9  1  0.54706164  0.21152756  0.55294425  1
  Al  Al10  1  0.22235981  0.53958880  0.05231809  1
  Al  Al11  1  0.77117753  0.43104829  0.86231638  1
  Al  Al12  1  0.89044395  0.54116543  0.57240261  1
  Al  Al13  1  0.44071421  0.43372980  0.30970877  1
  Al  Al14  1  0.56807747  0.53896587  0.12623862  1
  Al  Al15  1  0.11278749  0.42992824  0.80357553  1
  Al  Al16  1  0.22763399  0.54163617  0.56246056  1
  Al  Al17  1  0.77262955  0.42357804  0.39473278  1
  Al  Al18  1  0.89409463  0.54156887  0.03285436  1
  Al  Al19  1  0.43284941  0.43026467  0.80848440  1
  Al  Al20  1  0.55553882  0.53987029  0.63375828  1
  Al  Al21  1  0.11863944  0.75113337  0.31882161  1
  Al  Al22  1  0.78092649  0.75409778  0.80499892  1
  Al  Al23  1  0.89782255  0.86600037  0.55960357  1
  Al  Al24  1  0.43593987  0.75591134  0.39437516  1
  Al  Al25  1  0.56497529  0.87690577  0.04103223  1
  Al  Al26  1  0.11619645  0.75093853  0.80750612  1
  Al  Al27  1  0.22799105  0.87160792  0.63523533  1
  Al  Al28  1  0.89791189  0.85773273  0.04774736  1
  Al  Al29  1  0.44945163  0.75498007  0.87284786  1
  Al  Al30  1  0.55544161  0.87825350  0.56681817  1
  Gd  Gd31  1  0.76260056  0.08736595  0.81269224  1
  Gd  Gd32  1  0.77884104  0.09299550  0.31120074  1
  Gd  Gd33  1  0.11616786  0.41559659  0.30692208  1
  Gd  Gd34  1  0.22906227  0.88514013  0.12355598  1
  Gd  Gd35  1  0.76695648  0.75353896  0.30240404  1
  N  N36  1  0.23699084  0.18049581  0.38999523  1
  N  N37  1  0.09333856  0.12322745  0.03979461  1
  N  N38  1  0.89579675  0.21929795  0.80677535  1
  N  N39  1  0.77440234  0.09502874  0.59056440  1
  N  N40  1  0.52075463  0.22406132  0.37243976  1
  N  N41  1  0.43843053  0.09186176  0.11983103  1
  N  N42  1  0.22380509  0.21078226  0.85265169  1
  N  N43  1  0.11243394  0.08926415  0.58444766  1
  N  N44  1  0.90932013  0.21836189  0.33482910  1
  N  N45  1  0.77658411  0.09338605  0.08070622  1
  N  N46  1  0.51362811  0.22850225  0.88084139  1
  N  N47  1  0.44923424  0.09569146  0.62510916  1
  N  N48  1  0.24213412  0.54949480  0.38453897  1
  N  N49  1  0.10993493  0.42911144  0.08792242  1
  N  N50  1  0.89116645  0.53761703  0.85087777  1
  N  N51  1  0.76867397  0.42753929  0.57863529  1
  N  N52  1  0.56511505  0.54399366  0.31562003  1
  N  N53  1  0.43955456  0.42952475  0.12388351  1
  N  N54  1  0.22375739  0.54231941  0.86922260  1
  N  N55  1  0.11498901  0.42920564  0.61987021  1
  N  N56  1  0.88506578  0.53078454  0.39592404  1
  N  N57  1  0.77169450  0.43111546  0.04988649  1
  N  N58  1  0.55481250  0.54185588  0.81396050  1
  N  N59  1  0.44179103  0.42198326  0.62511101  1
  N  N60  1  0.22348498  0.87191374  0.33814923  1
  N  N61  1  0.09877247  0.74434611  0.13100043  1
  N  N62  1  0.91198367  0.83670261  0.87106207  1
  N  N63  1  0.77684139  0.76518471  0.62253671  1
  N  N64  1  0.53122099  0.88791788  0.38648956  1
  N  N65  1  0.47496687  0.74221179  0.05305880  1
  N  N66  1  0.22893969  0.87347686  0.82227716  1
  N  N67  1  0.11178468  0.75685174  0.62697714  1
  N  N68  1  0.91730796  0.84824476  0.38495382  1
  N  N69  1  0.77919811  0.75787325  0.08764896  1
  N  N70  1  0.55886613  0.88173946  0.85840044  1
  N  N71  1  0.44330240  0.75451943  0.57723287  1
