# generated using pymatgen
data_Gd5Al31N36
_symmetry_space_group_name_H-M   'P 1'
_cell_length_a   9.68134149
_cell_length_b   9.63935585
_cell_length_c   10.68509166
_cell_angle_alpha   90.85370193
_cell_angle_beta   91.26397508
_cell_angle_gamma   60.20500649
_symmetry_Int_Tables_number   1
_chemical_formula_structural   Gd5Al31N36
_chemical_formula_sum   'Gd5 Al31 N36'
_cell_volume   865.11876130
_cell_formula_units_Z   1
loop_
 _symmetry_equiv_pos_site_id
 _symmetry_equiv_pos_as_xyz
  1  'x, y, z'
loop_
 _atom_site_type_symbol
 _atom_site_label
 _atom_site_symmetry_multiplicity
 _atom_site_fract_x
 _atom_site_fract_y
 _atom_site_fract_z
 _atom_site_occupancy
  Al  Al0  1  0.11187288  0.08899517  0.40742227  1
  Al  Al1  1  0.23034461  0.20988430  0.05327970  1
  Al  Al2  1  0.89224919  0.21109115  0.63795491  1
  Al  Al3  1  0.43339072  0.09322105  0.32881866  1
  Al  Al4  1  0.55085735  0.20873573  0.07212317  1
  Al  Al5  1  0.10789053  0.09615703  0.88327493  1
  Al  Al6  1  0.22729384  0.20397780  0.57962148  1
  Al  Al7  1  0.89759925  0.21890587  0.13202235  1
  Al  Al8  1  0.43435462  0.09836155  0.81873141  1
  Al  Al9  1  0.54249751  0.21422609  0.56513185  1
  Al  Al10  1  0.23258510  0.53132359  0.07963271  1
  Al  Al11  1  0.77580574  0.42622515  0.88581887  1
  Al  Al12  1  0.88509395  0.53978305  0.58098613  1
  Al  Al13  1  0.44150444  0.43521204  0.31674308  1
  Al  Al14  1  0.57342890  0.53898918  0.13766979  1
  Al  Al15  1  0.10494952  0.42130605  0.81824360  1
  Al  Al16  1  0.21855477  0.53992559  0.64071681  1
  Al  Al17  1  0.77290173  0.42469544  0.39886088  1
  Al  Al18  1  0.89781731  0.54375880  0.04730434  1
  Al  Al19  1  0.44013399  0.42474549  0.82367738  1
  Al  Al20  1  0.55748777  0.53671343  0.64714277  1
  Al  Al21  1  0.12770095  0.75395863  0.41787397  1
  Al  Al22  1  0.77618544  0.75492652  0.81540213  1
  Al  Al23  1  0.88529556  0.86951959  0.57674631  1
  Al  Al24  1  0.43650565  0.75590293  0.41075701  1
  Al  Al25  1  0.56589210  0.87585210  0.05355212  1
  Al  Al26  1  0.11775869  0.75531258  0.87950473  1
  Al  Al27  1  0.22280709  0.87223300  0.64900276  1
  Al  Al28  1  0.88936655  0.86806974  0.05186657  1
  Al  Al29  1  0.44823815  0.75433143  0.88621915  1
  Al  Al30  1  0.55121348  0.87884465  0.58089815  1
  Gd  Gd31  1  0.76035634  0.09861138  0.82413583  1
  Gd  Gd32  1  0.77802811  0.09372762  0.33106027  1
  Gd  Gd33  1  0.11375638  0.42131480  0.31953997  1
  Gd  Gd34  1  0.23023057  0.87250361  0.14869611  1
  Gd  Gd35  1  0.76285619  0.75751787  0.31457205  1
  N  N36  1  0.23707280  0.18319990  0.40215129  1
  N  N37  1  0.09993623  0.11554704  0.06317738  1
  N  N38  1  0.90198548  0.22176562  0.81703414  1
  N  N39  1  0.77183403  0.09837216  0.60406964  1
  N  N40  1  0.52014535  0.22542189  0.38543456  1
  N  N41  1  0.44514235  0.08948042  0.13534754  1
  N  N42  1  0.22456781  0.20486107  0.87226817  1
  N  N43  1  0.10720350  0.09097450  0.58911494  1
  N  N44  1  0.91374786  0.22444955  0.31794753  1
  N  N45  1  0.78282828  0.09284553  0.10440000  1
  N  N46  1  0.51362029  0.22530610  0.89777894  1
  N  N47  1  0.44550757  0.09722783  0.63966138  1
  N  N48  1  0.23808279  0.55315941  0.36168218  1
  N  N49  1  0.11662879  0.42738002  0.09944892  1
  N  N50  1  0.88839775  0.53908954  0.86853143  1
  N  N51  1  0.76619424  0.42325413  0.58152022  1
  N  N52  1  0.56440508  0.54685295  0.32488225  1
  N  N53  1  0.45087554  0.42573662  0.13067821  1
  N  N54  1  0.21947287  0.53799218  0.83948396  1
  N  N55  1  0.10527435  0.42314280  0.63602360  1
  N  N56  1  0.88174266  0.53359310  0.40706352  1
  N  N57  1  0.78082882  0.42861709  0.07010727  1
  N  N58  1  0.55984825  0.53713095  0.82920642  1
  N  N59  1  0.44487583  0.41905013  0.64051287  1
  N  N60  1  0.21949578  0.87291554  0.36173208  1
  N  N61  1  0.11330065  0.74804622  0.06113723  1
  N  N62  1  0.89647700  0.84804631  0.87186052  1
  N  N63  1  0.77262942  0.76174289  0.63508909  1
  N  N64  1  0.52878301  0.88909702  0.40178026  1
  N  N65  1  0.47351670  0.74395120  0.06605793  1
  N  N66  1  0.22498476  0.87198704  0.83215546  1
  N  N67  1  0.11452405  0.75890119  0.60216270  1
  N  N68  1  0.90841767  0.85114851  0.40054478  1
  N  N69  1  0.78355953  0.75978817  0.10082086  1
  N  N70  1  0.55644589  0.87950096  0.87180850  1
  N  N71  1  0.44237599  0.75365026  0.59291769  1
