# generated using pymatgen
data_Gd5Al31N36
_symmetry_space_group_name_H-M   'P 1'
_cell_length_a   9.67834833
_cell_length_b   9.63559044
_cell_length_c   10.65949453
_cell_angle_alpha   91.05287286
_cell_angle_beta   91.38309412
_cell_angle_gamma   60.15222105
_symmetry_Int_Tables_number   1
_chemical_formula_structural   Gd5Al31N36
_chemical_formula_sum   'Gd5 Al31 N36'
_cell_volume   861.93139493
_cell_formula_units_Z   1
loop_
 _symmetry_equiv_pos_site_id
 _symmetry_equiv_pos_as_xyz
  1  'x, y, z'
loop_
 _atom_site_type_symbol
 _atom_site_label
 _atom_site_symmetry_multiplicity
 _atom_site_fract_x
 _atom_site_fract_y
 _atom_site_fract_z
 _atom_site_occupancy
  Al  Al0  1  0.11541703  0.08439993  0.41034335  1
  Al  Al1  1  0.22676748  0.21554671  0.05254184  1
  Al  Al2  1  0.89360937  0.21053316  0.63742715  1
  Al  Al3  1  0.43418594  0.08878347  0.32490863  1
  Al  Al4  1  0.55195838  0.20450635  0.07632067  1
  Al  Al5  1  0.10560392  0.09602214  0.88240576  1
  Al  Al6  1  0.22982299  0.20172135  0.58234178  1
  Al  Al7  1  0.89616763  0.22070029  0.13299256  1
  Al  Al8  1  0.43290680  0.09901034  0.81865124  1
  Al  Al9  1  0.54191931  0.21486940  0.55907543  1
  Al  Al10  1  0.22095853  0.54942373  0.13150572  1
  Al  Al11  1  0.77529615  0.42515706  0.88567155  1
  Al  Al12  1  0.88583818  0.53949138  0.58377798  1
  Al  Al13  1  0.44404935  0.43616133  0.33799942  1
  Al  Al14  1  0.57158101  0.54042128  0.13476445  1
  Al  Al15  1  0.10648385  0.42270889  0.81681085  1
  Al  Al16  1  0.22995462  0.53563250  0.64967806  1
  Al  Al17  1  0.77274714  0.42386367  0.40211554  1
  Al  Al18  1  0.89846097  0.54490741  0.04695528  1
  Al  Al19  1  0.43205950  0.43744988  0.89466941  1
  Al  Al20  1  0.55315779  0.53192018  0.64830809  1
  Al  Al21  1  0.13162644  0.74703979  0.40884638  1
  Al  Al22  1  0.77721192  0.75562697  0.81633901  1
  Al  Al23  1  0.89155626  0.86342918  0.57246704  1
  Al  Al24  1  0.43944987  0.75554989  0.41317073  1
  Al  Al25  1  0.56446188  0.87731942  0.05090492  1
  Al  Al26  1  0.11773761  0.75259945  0.88457905  1
  Al  Al27  1  0.22462421  0.86775667  0.64789544  1
  Al  Al28  1  0.88655368  0.87398185  0.05222196  1
  Al  Al29  1  0.44700504  0.75464516  0.88406983  1
  Al  Al30  1  0.55464686  0.87775746  0.58245051  1
  Gd  Gd31  1  0.75233634  0.10054688  0.81478990  1
  Gd  Gd32  1  0.78341678  0.09236952  0.33682892  1
  Gd  Gd33  1  0.10900130  0.41243616  0.32441423  1
  Gd  Gd34  1  0.23018862  0.87748137  0.14772278  1
  Gd  Gd35  1  0.76344055  0.75531824  0.31050903  1
  N  N36  1  0.24182225  0.17657892  0.40460843  1
  N  N37  1  0.09754089  0.11919630  0.06222257  1
  N  N38  1  0.89852325  0.21953677  0.81694558  1
  N  N39  1  0.77470741  0.09642549  0.59462293  1
  N  N40  1  0.51996907  0.22162116  0.37635880  1
  N  N41  1  0.44175626  0.08945861  0.13510378  1
  N  N42  1  0.22206138  0.20630583  0.87090974  1
  N  N43  1  0.10942433  0.08842132  0.59119836  1
  N  N44  1  0.91869694  0.22475319  0.31974496  1
  N  N45  1  0.78105654  0.09572919  0.11081601  1
  N  N46  1  0.51472432  0.21787349  0.90159235  1
  N  N47  1  0.44920833  0.09783051  0.63946403  1
  N  N48  1  0.23122627  0.56221798  0.31221053  1
  N  N49  1  0.11316921  0.43048795  0.10623747  1
  N  N50  1  0.88882884  0.53827703  0.86722827  1
  N  N51  1  0.76674149  0.42361460  0.58475226  1
  N  N52  1  0.56425826  0.54295908  0.32439570  1
  N  N53  1  0.44762178  0.43571008  0.09761434  1
  N  N54  1  0.22262696  0.53863510  0.83121254  1
  N  N55  1  0.10830636  0.42233921  0.63351201  1
  N  N56  1  0.87805461  0.53540776  0.40907579  1
  N  N57  1  0.78068210  0.43048524  0.07068989  1
  N  N58  1  0.55529247  0.53218958  0.83255653  1
  N  N59  1  0.44052508  0.42953363  0.59882816  1
  N  N60  1  0.22342925  0.86917195  0.36211826  1
  N  N61  1  0.11012677  0.75248053  0.06422474  1
  N  N62  1  0.89524749  0.85224455  0.87174703  1
  N  N63  1  0.77602627  0.76208482  0.63556309  1
  N  N64  1  0.53230418  0.88679346  0.40181819  1
  N  N65  1  0.47296708  0.74617312  0.06525309  1
  N  N66  1  0.22322917  0.87055827  0.83197633  1
  N  N67  1  0.12170261  0.75032785  0.59252416  1
  N  N68  1  0.91250477  0.84455778  0.39522970  1
  N  N69  1  0.78173947  0.76293131  0.09712253  1
  N  N70  1  0.55519737  0.87872644  0.86898101  1
  N  N71  1  0.44603019  0.75336305  0.59563197  1
