# generated using pymatgen
data_Gd5Al31N36
_symmetry_space_group_name_H-M   'P 1'
_cell_length_a   9.66560984
_cell_length_b   9.65528324
_cell_length_c   10.54128648
_cell_angle_alpha   90.91061816
_cell_angle_beta   90.93556743
_cell_angle_gamma   60.21927512
_symmetry_Int_Tables_number   1
_chemical_formula_structural   Gd5Al31N36
_chemical_formula_sum   'Gd5 Al31 N36'
_cell_volume   853.68672339
_cell_formula_units_Z   1
loop_
 _symmetry_equiv_pos_site_id
 _symmetry_equiv_pos_as_xyz
  1  'x, y, z'
loop_
 _atom_site_type_symbol
 _atom_site_label
 _atom_site_symmetry_multiplicity
 _atom_site_fract_x
 _atom_site_fract_y
 _atom_site_fract_z
 _atom_site_occupancy
  Al  Al0  1  0.11724758  0.09009876  0.41496024  1
  Al  Al1  1  0.22554745  0.21170035  0.11772329  1
  Al  Al2  1  0.88642157  0.20595411  0.65838421  1
  Al  Al3  1  0.42963542  0.09569562  0.40940288  1
  Al  Al4  1  0.54489921  0.21335300  0.15496660  1
  Al  Al5  1  0.10915750  0.10089534  0.89338001  1
  Al  Al6  1  0.22063794  0.19974398  0.65670641  1
  Al  Al7  1  0.89314329  0.22382829  0.15661865  1
  Al  Al8  1  0.43535914  0.10661201  0.88514090  1
  Al  Al9  1  0.54644596  0.21120164  0.65307593  1
  Al  Al10  1  0.23158542  0.54945664  0.14583455  1
  Al  Al11  1  0.77526737  0.42753966  0.89936664  1
  Al  Al12  1  0.88372903  0.53731795  0.59324582  1
  Al  Al13  1  0.44439414  0.43402439  0.39873166  1
  Al  Al14  1  0.56709734  0.53795749  0.14773470  1
  Al  Al15  1  0.10642800  0.43348202  0.82913395  1
  Al  Al16  1  0.22613275  0.54038803  0.65251436  1
  Al  Al17  1  0.77296432  0.41985365  0.41406067  1
  Al  Al18  1  0.90214668  0.54568089  0.06155332  1
  Al  Al19  1  0.43911080  0.43279115  0.90197797  1
  Al  Al20  1  0.55388180  0.53150014  0.65789808  1
  Al  Al21  1  0.11834437  0.75437936  0.40859088  1
  Al  Al22  1  0.77729917  0.75187059  0.82651053  1
  Al  Al23  1  0.89363000  0.86419508  0.65551160  1
  Al  Al24  1  0.43378731  0.75185452  0.42599706  1
  Al  Al25  1  0.57218169  0.87280151  0.05206557  1
  Al  Al26  1  0.11617188  0.75451172  0.89888900  1
  Al  Al27  1  0.21800182  0.86924796  0.65374651  1
  Al  Al28  1  0.90452201  0.86739381  0.14990646  1
  Al  Al29  1  0.44434956  0.75517069  0.89029846  1
  Al  Al30  1  0.55195051  0.87070570  0.59853828  1
  Gd  Gd31  1  0.77605757  0.09147008  0.90661464  1
  Gd  Gd32  1  0.77832841  0.09094310  0.39301436  1
  Gd  Gd33  1  0.12146946  0.41731952  0.35051464  1
  Gd  Gd34  1  0.23541413  0.88745835  0.16443709  1
  Gd  Gd35  1  0.74978576  0.74473688  0.31639522  1
  N  N36  1  0.23918467  0.15692170  0.32506189  1
  N  N37  1  0.09462970  0.12698167  0.07172589  1
  N  N38  1  0.89744962  0.21951679  0.83524979  1
  N  N39  1  0.77477440  0.08925356  0.61731592  1
  N  N40  1  0.51414914  0.22059633  0.33626521  1
  N  N41  1  0.44680870  0.10235947  0.07218207  1
  N  N42  1  0.22023621  0.20516741  0.84030233  1
  N  N43  1  0.10689373  0.09422427  0.59952315  1
  N  N44  1  0.90932146  0.21887510  0.33883788  1
  N  N45  1  0.77821200  0.10129320  0.13016831  1
  N  N46  1  0.52630672  0.22598368  0.83146222  1
  N  N47  1  0.43390501  0.10436866  0.59883778  1
  N  N48  1  0.24610800  0.56045572  0.32807614  1
  N  N49  1  0.11547693  0.43652316  0.12342140  1
  N  N50  1  0.89153848  0.53768024  0.88109110  1
  N  N51  1  0.76698912  0.41805760  0.59837508  1
  N  N52  1  0.56231858  0.53894790  0.34070593  1
  N  N53  1  0.45105654  0.43012922  0.08733992  1
  N  N54  1  0.22824315  0.54160354  0.83757385  1
  N  N55  1  0.10611712  0.42855103  0.63938897  1
  N  N56  1  0.88059595  0.52873739  0.41787204  1
  N  N57  1  0.78039390  0.43290451  0.08769680  1
  N  N58  1  0.55659013  0.53352314  0.84070136  1
  N  N59  1  0.44123831  0.42774489  0.58558074  1
  N  N60  1  0.21926497  0.87069945  0.37898235  1
  N  N61  1  0.11048515  0.75842240  0.07894519  1
  N  N62  1  0.90921318  0.84393065  0.83408592  1
  N  N63  1  0.77078794  0.75535644  0.64382272  1
  N  N64  1  0.52996127  0.87706354  0.41730992  1
  N  N65  1  0.47607010  0.74643697  0.07649746  1
  N  N66  1  0.21994126  0.87391325  0.84174120  1
  N  N67  1  0.10801593  0.75554762  0.59272503  1
  N  N68  1  0.91879290  0.84100466  0.32949846  1
  N  N69  1  0.78447044  0.76771554  0.10121824  1
  N  N70  1  0.55570892  0.87590516  0.86903653  1
  N  N71  1  0.43976251  0.74999036  0.60986712  1
