# generated using pymatgen
data_Gd5Al31N36
_symmetry_space_group_name_H-M   'P 1'
_cell_length_a   9.67267591
_cell_length_b   9.65788093
_cell_length_c   10.62790948
_cell_angle_alpha   90.79338203
_cell_angle_beta   90.42439497
_cell_angle_gamma   60.02518913
_symmetry_Int_Tables_number   1
_chemical_formula_structural   Gd5Al31N36
_chemical_formula_sum   'Gd5 Al31 N36'
_cell_volume   859.95441914
_cell_formula_units_Z   1
loop_
 _symmetry_equiv_pos_site_id
 _symmetry_equiv_pos_as_xyz
  1  'x, y, z'
loop_
 _atom_site_type_symbol
 _atom_site_label
 _atom_site_symmetry_multiplicity
 _atom_site_fract_x
 _atom_site_fract_y
 _atom_site_fract_z
 _atom_site_occupancy
  Al  Al0  1  0.11257828  0.08629748  0.41797943  1
  Al  Al1  1  0.22653191  0.21483306  0.06664220  1
  Al  Al2  1  0.89175633  0.20859926  0.65930648  1
  Al  Al3  1  0.43101493  0.08734164  0.33105883  1
  Al  Al4  1  0.54768304  0.21254230  0.15424546  1
  Al  Al5  1  0.11164646  0.09802979  0.89510924  1
  Al  Al6  1  0.22798734  0.19846335  0.58958531  1
  Al  Al7  1  0.89418544  0.21959295  0.15247122  1
  Al  Al8  1  0.43520733  0.09265621  0.82493766  1
  Al  Al9  1  0.54581104  0.21352995  0.65636942  1
  Al  Al10  1  0.22859354  0.54475534  0.14316932  1
  Al  Al11  1  0.77540970  0.43095482  0.89743472  1
  Al  Al12  1  0.88614951  0.53596772  0.59258238  1
  Al  Al13  1  0.43824878  0.43845019  0.39612199  1
  Al  Al14  1  0.56706502  0.53486625  0.14695616  1
  Al  Al15  1  0.11050453  0.42302271  0.82671805  1
  Al  Al16  1  0.22774379  0.53677142  0.65329245  1
  Al  Al17  1  0.77334088  0.42502331  0.40927885  1
  Al  Al18  1  0.90000098  0.54276917  0.06190710  1
  Al  Al19  1  0.43594709  0.43366692  0.90125627  1
  Al  Al20  1  0.55456642  0.53242937  0.65365701  1
  Al  Al21  1  0.12116813  0.75889195  0.41518682  1
  Al  Al22  1  0.77562421  0.75363656  0.82591896  1
  Al  Al23  1  0.89482074  0.86465817  0.65111554  1
  Al  Al24  1  0.43798036  0.75518443  0.41830901  1
  Al  Al25  1  0.56359762  0.87478477  0.06250203  1
  Al  Al26  1  0.11538101  0.75160794  0.89175727  1
  Al  Al27  1  0.22361862  0.86842199  0.65618041  1
  Al  Al28  1  0.89333658  0.87129427  0.12075593  1
  Al  Al29  1  0.44738108  0.75299353  0.89394055  1
  Al  Al30  1  0.55302027  0.87406369  0.58789031  1
  Gd  Gd31  1  0.77370464  0.10176192  0.89183939  1
  Gd  Gd32  1  0.76948177  0.11060840  0.40548891  1
  Gd  Gd33  1  0.11549896  0.41642342  0.33815300  1
  Gd  Gd34  1  0.22785792  0.87542320  0.15640377  1
  Gd  Gd35  1  0.76409420  0.75692777  0.32551578  1
  N  N36  1  0.23913128  0.17823365  0.41255339  1
  N  N37  1  0.09638735  0.11875148  0.07563418  1
  N  N38  1  0.90534289  0.22520465  0.83289296  1
  N  N39  1  0.77400609  0.09448434  0.62736402  1
  N  N40  1  0.51538624  0.22849732  0.33142049  1
  N  N41  1  0.43865767  0.08441607  0.13943571  1
  N  N42  1  0.22752265  0.20873940  0.88592828  1
  N  N43  1  0.10509975  0.08774779  0.60050751  1
  N  N44  1  0.91349416  0.22167476  0.33277028  1
  N  N45  1  0.77688189  0.09837186  0.11624824  1
  N  N46  1  0.52222861  0.22861412  0.83454744  1
  N  N47  1  0.44098492  0.08764090  0.64640487  1
  N  N48  1  0.23772954  0.56549649  0.32619373  1
  N  N49  1  0.11457976  0.43042204  0.12114999  1
  N  N50  1  0.89233399  0.54011494  0.88198359  1
  N  N51  1  0.76853071  0.41712751  0.59339371  1
  N  N52  1  0.56148938  0.53839812  0.33807234  1
  N  N53  1  0.44827298  0.42799408  0.08512879  1
  N  N54  1  0.22737969  0.53877553  0.83487017  1
  N  N55  1  0.10956262  0.42058895  0.64213445  1
  N  N56  1  0.88061304  0.53348970  0.41839869  1
  N  N57  1  0.77945106  0.42860623  0.08374761  1
  N  N58  1  0.55696875  0.53318252  0.83680629  1
  N  N59  1  0.44188636  0.42537932  0.58312311  1
  N  N60  1  0.22424552  0.87208010  0.36993250  1
  N  N61  1  0.10494044  0.74955873  0.07116937  1
  N  N62  1  0.90565997  0.84730418  0.83405279  1
  N  N63  1  0.77044750  0.75585877  0.64330767  1
  N  N64  1  0.52852510  0.88814457  0.40879233  1
  N  N65  1  0.47302777  0.74089362  0.07551583  1
  N  N66  1  0.22383824  0.87197251  0.84234896  1
  N  N67  1  0.11662107  0.75301269  0.59828098  1
  N  N68  1  0.91193509  0.86114917  0.36567366  1
  N  N69  1  0.78072409  0.76281230  0.10918469  1
  N  N70  1  0.55689850  0.87765606  0.88206507  1
  N  N71  1  0.44387891  0.75014554  0.60128737  1
