# generated using pymatgen
data_Gd5Al31N36
_symmetry_space_group_name_H-M   'P 1'
_cell_length_a   9.76330439
_cell_length_b   9.70145360
_cell_length_c   10.31128159
_cell_angle_alpha   90.41695294
_cell_angle_beta   90.14902674
_cell_angle_gamma   59.74998248
_symmetry_Int_Tables_number   1
_chemical_formula_structural   Gd5Al31N36
_chemical_formula_sum   'Gd5 Al31 N36'
_cell_volume   843.65606128
_cell_formula_units_Z   1
loop_
 _symmetry_equiv_pos_site_id
 _symmetry_equiv_pos_as_xyz
  1  'x, y, z'
loop_
 _atom_site_type_symbol
 _atom_site_label
 _atom_site_symmetry_multiplicity
 _atom_site_fract_x
 _atom_site_fract_y
 _atom_site_fract_z
 _atom_site_occupancy
  Al  Al0  1  0.11369893  0.09563976  0.40831084  1
  Al  Al1  1  0.22083677  0.20523637  0.13944163  1
  Al  Al2  1  0.88994491  0.20681307  0.65507679  1
  Al  Al3  1  0.42890938  0.08964120  0.39113335  1
  Al  Al4  1  0.53937155  0.21256006  0.14972562  1
  Al  Al5  1  0.11202638  0.09948648  0.89341082  1
  Al  Al6  1  0.22274325  0.20161685  0.65445987  1
  Al  Al7  1  0.89122937  0.21977578  0.15072450  1
  Al  Al8  1  0.43819006  0.09444112  0.89698948  1
  Al  Al9  1  0.54430521  0.20731196  0.64783374  1
  Al  Al10  1  0.22614837  0.54371854  0.13888825  1
  Al  Al11  1  0.77616941  0.42907964  0.89795177  1
  Al  Al12  1  0.89005757  0.52790348  0.59443030  1
  Al  Al13  1  0.44286423  0.43888548  0.39337785  1
  Al  Al14  1  0.56457109  0.53472753  0.14460734  1
  Al  Al15  1  0.11698366  0.42541090  0.87691670  1
  Al  Al16  1  0.22597833  0.53674344  0.65492005  1
  Al  Al17  1  0.77371974  0.42490395  0.40399012  1
  Al  Al18  1  0.89009911  0.54848725  0.07891149  1
  Al  Al19  1  0.44055624  0.43022847  0.89706550  1
  Al  Al20  1  0.55488682  0.53297241  0.65062271  1
  Al  Al21  1  0.12650330  0.76142234  0.40871402  1
  Al  Al22  1  0.78055559  0.75004672  0.82839815  1
  Al  Al23  1  0.89783365  0.86647630  0.65212342  1
  Al  Al24  1  0.44267926  0.75823554  0.40740687  1
  Al  Al25  1  0.55579262  0.86995565  0.14170264  1
  Al  Al26  1  0.11487167  0.75384649  0.89294701  1
  Al  Al27  1  0.22325592  0.87106188  0.64591979  1
  Al  Al28  1  0.89647874  0.86505297  0.15122069  1
  Al  Al29  1  0.44920137  0.75618792  0.89299102  1
  Al  Al30  1  0.54482656  0.87484923  0.65009515  1
  Gd  Gd31  1  0.77383039  0.09463404  0.89924954  1
  Gd  Gd32  1  0.77024309  0.10858862  0.38793270  1
  Gd  Gd33  1  0.13700328  0.42138711  0.38251785  1
  Gd  Gd34  1  0.22477977  0.87316100  0.15697175  1
  Gd  Gd35  1  0.76818680  0.77275389  0.38047115  1
  N  N36  1  0.22716302  0.17386137  0.32300572  1
  N  N37  1  0.09631334  0.12030646  0.07528284  1
  N  N38  1  0.90107908  0.21996573  0.83472449  1
  N  N39  1  0.77570751  0.09174991  0.61742298  1
  N  N40  1  0.50454371  0.22706711  0.33317618  1
  N  N41  1  0.44394471  0.09222196  0.08238483  1
  N  N42  1  0.22503286  0.20099157  0.83926595  1
  N  N43  1  0.10861112  0.09776971  0.59585652  1
  N  N44  1  0.90758878  0.22106315  0.33469380  1
  N  N45  1  0.77209674  0.10112475  0.12588971  1
  N  N46  1  0.52131886  0.21961307  0.83063239  1
  N  N47  1  0.44041888  0.09061923  0.58268739  1
  N  N48  1  0.24522131  0.56915317  0.32091030  1
  N  N49  1  0.11803735  0.42829007  0.10368180  1
  N  N50  1  0.89056341  0.54008717  0.88528769  1
  N  N51  1  0.76937118  0.41883041  0.59394051  1
  N  N52  1  0.56268232  0.53560457  0.33764027  1
  N  N53  1  0.44848152  0.42852941  0.08330888  1
  N  N54  1  0.22768321  0.53738229  0.83924224  1
  N  N55  1  0.11501430  0.42435140  0.61856971  1
  N  N56  1  0.88579663  0.52549488  0.40795846  1
  N  N57  1  0.77691960  0.42911541  0.08628935  1
  N  N58  1  0.55709574  0.53318345  0.83650630  1
  N  N59  1  0.44167762  0.42768452  0.58398346  1
  N  N60  1  0.22517831  0.87587940  0.37803846  1
  N  N61  1  0.09875236  0.75267443  0.07304677  1
  N  N62  1  0.90652637  0.84346166  0.83245656  1
  N  N63  1  0.77532220  0.75618578  0.62839773  1
  N  N64  1  0.51664871  0.88130988  0.32665006  1
  N  N65  1  0.47219467  0.74452514  0.07520129  1
  N  N66  1  0.22316829  0.87133281  0.83925992  1
  N  N67  1  0.11459347  0.75461933  0.59468368  1
  N  N68  1  0.93106693  0.86171778  0.33223876  1
  N  N69  1  0.77826644  0.76212046  0.13408324  1
  N  N70  1  0.55128457  0.87423415  0.83588753  1
  N  N71  1  0.44877606  0.75420740  0.59518986  1
