# generated using pymatgen
data_Gd5Al31N36
_symmetry_space_group_name_H-M   'P 1'
_cell_length_a   9.64724429
_cell_length_b   9.63907090
_cell_length_c   10.58564021
_cell_angle_alpha   91.19276576
_cell_angle_beta   91.14343170
_cell_angle_gamma   60.46799785
_symmetry_Int_Tables_number   1
_chemical_formula_structural   Gd5Al31N36
_chemical_formula_sum   'Gd5 Al31 N36'
_cell_volume   856.23689769
_cell_formula_units_Z   1
loop_
 _symmetry_equiv_pos_site_id
 _symmetry_equiv_pos_as_xyz
  1  'x, y, z'
loop_
 _atom_site_type_symbol
 _atom_site_label
 _atom_site_symmetry_multiplicity
 _atom_site_fract_x
 _atom_site_fract_y
 _atom_site_fract_z
 _atom_site_occupancy
  Al  Al0  1  0.11177931  0.08497996  0.39367801  1
  Al  Al1  1  0.22401203  0.21625368  0.03626944  1
  Al  Al2  1  0.89030348  0.20978287  0.62418066  1
  Al  Al3  1  0.43312235  0.09134497  0.31432661  1
  Al  Al4  1  0.54305128  0.21410560  0.05841721  1
  Al  Al5  1  0.10629337  0.10096300  0.86301577  1
  Al  Al6  1  0.22877193  0.20489950  0.56799727  1
  Al  Al7  1  0.88926466  0.21967279  0.11002835  1
  Al  Al8  1  0.43548669  0.09956449  0.80436720  1
  Al  Al9  1  0.54584096  0.21156674  0.55416924  1
  Al  Al10  1  0.22237196  0.53945878  0.05197054  1
  Al  Al11  1  0.77303502  0.42754441  0.86721709  1
  Al  Al12  1  0.89026111  0.53956993  0.57127239  1
  Al  Al13  1  0.44056128  0.43446451  0.30947375  1
  Al  Al14  1  0.56774074  0.53925174  0.12534974  1
  Al  Al15  1  0.11230049  0.42934109  0.80407403  1
  Al  Al16  1  0.22732311  0.54157843  0.56282640  1
  Al  Al17  1  0.77403473  0.42252905  0.38871928  1
  Al  Al18  1  0.89397775  0.54188475  0.03372695  1
  Al  Al19  1  0.43337456  0.43008273  0.80878322  1
  Al  Al20  1  0.55679682  0.53817012  0.63272309  1
  Al  Al21  1  0.11876117  0.75138879  0.31813314  1
  Al  Al22  1  0.78105784  0.75369226  0.80551018  1
  Al  Al23  1  0.89750563  0.86514821  0.56066454  1
  Al  Al24  1  0.43550766  0.75630410  0.39411493  1
  Al  Al25  1  0.56492010  0.87702018  0.04077224  1
  Al  Al26  1  0.11605025  0.75136273  0.80773768  1
  Al  Al27  1  0.22620972  0.87299648  0.63383041  1
  Al  Al28  1  0.89698884  0.85959739  0.04953142  1
  Al  Al29  1  0.45010675  0.75474499  0.87137858  1
  Al  Al30  1  0.55510820  0.87803061  0.56725959  1
  Gd  Gd31  1  0.76472205  0.08916602  0.81656347  1
  Gd  Gd32  1  0.77624809  0.09176978  0.31529671  1
  Gd  Gd33  1  0.11783654  0.41684494  0.30587412  1
  Gd  Gd34  1  0.22931793  0.88381756  0.12132553  1
  Gd  Gd35  1  0.76675782  0.75241383  0.30232484  1
  N  N36  1  0.23603557  0.18150109  0.38832979  1
  N  N37  1  0.09136470  0.12494478  0.04278506  1
  N  N38  1  0.89744085  0.22042910  0.80330934  1
  N  N39  1  0.77415179  0.09494620  0.59020863  1
  N  N40  1  0.51900359  0.22488329  0.37305617  1
  N  N41  1  0.43873463  0.09163347  0.12020855  1
  N  N42  1  0.22359456  0.21008284  0.85340829  1
  N  N43  1  0.10866497  0.08991598  0.57753927  1
  N  N44  1  0.91102381  0.22128560  0.30827857  1
  N  N45  1  0.77708655  0.09385152  0.08673964  1
  N  N46  1  0.51432709  0.22813241  0.88144712  1
  N  N47  1  0.44769909  0.09572525  0.62503104  1
  N  N48  1  0.24278135  0.55053949  0.38507808  1
  N  N49  1  0.11028857  0.42924736  0.08771057  1
  N  N50  1  0.89069135  0.53706803  0.85173139  1
  N  N51  1  0.76874886  0.42397033  0.57222979  1
  N  N52  1  0.56480162  0.54481819  0.31463479  1
  N  N53  1  0.43912121  0.42984899  0.12392262  1
  N  N54  1  0.22393922  0.54235870  0.86895759  1
  N  N55  1  0.11448519  0.42862576  0.61974634  1
  N  N56  1  0.88691534  0.52867580  0.39457495  1
  N  N57  1  0.77348056  0.42957995  0.05343660  1
  N  N58  1  0.55725334  0.54020545  0.81358587  1
  N  N59  1  0.44138690  0.42187769  0.62544278  1
  N  N60  1  0.22342724  0.87237900  0.33633702  1
  N  N61  1  0.09877700  0.74357113  0.13120136  1
  N  N62  1  0.91179679  0.83716832  0.87184582  1
  N  N63  1  0.77685398  0.76368437  0.62237854  1
  N  N64  1  0.53114425  0.88816787  0.38663502  1
  N  N65  1  0.47532256  0.74191114  0.05173392  1
  N  N66  1  0.22804476  0.87513432  0.82180984  1
  N  N67  1  0.11139405  0.75680929  0.62713872  1
  N  N68  1  0.91765307  0.84696236  0.38543965  1
  N  N69  1  0.77899640  0.75838376  0.08809222  1
  N  N70  1  0.55902107  0.88163130  0.85796295  1
  N  N71  1  0.44287017  0.75424137  0.57719635  1
