# generated using pymatgen
data_Gd5Al31N36
_symmetry_space_group_name_H-M   'P 1'
_cell_length_a   9.67917410
_cell_length_b   9.66775916
_cell_length_c   10.61353224
_cell_angle_alpha   90.82074556
_cell_angle_beta   90.35783514
_cell_angle_gamma   60.01710165
_symmetry_Int_Tables_number   1
_chemical_formula_structural   Gd5Al31N36
_chemical_formula_sum   'Gd5 Al31 N36'
_cell_volume   860.17083593
_cell_formula_units_Z   1
loop_
 _symmetry_equiv_pos_site_id
 _symmetry_equiv_pos_as_xyz
  1  'x, y, z'
loop_
 _atom_site_type_symbol
 _atom_site_label
 _atom_site_symmetry_multiplicity
 _atom_site_fract_x
 _atom_site_fract_y
 _atom_site_fract_z
 _atom_site_occupancy
  Al  Al0  1  0.11260888  0.08577875  0.41798526  1
  Al  Al1  1  0.22672611  0.21449253  0.06664470  1
  Al  Al2  1  0.89255616  0.20960591  0.65895864  1
  Al  Al3  1  0.43129377  0.08655902  0.33060171  1
  Al  Al4  1  0.54854434  0.21106038  0.15347835  1
  Al  Al5  1  0.11195421  0.09818606  0.89512959  1
  Al  Al6  1  0.22826422  0.19792227  0.58960110  1
  Al  Al7  1  0.89432573  0.21835289  0.15155771  1
  Al  Al8  1  0.43510919  0.09213290  0.82501527  1
  Al  Al9  1  0.54435928  0.21430873  0.65633570  1
  Al  Al10  1  0.22878872  0.54397262  0.14342014  1
  Al  Al11  1  0.77560598  0.43171927  0.89703636  1
  Al  Al12  1  0.88620118  0.53637764  0.59217002  1
  Al  Al13  1  0.43691975  0.43890668  0.39574118  1
  Al  Al14  1  0.56695629  0.53457081  0.14689517  1
  Al  Al15  1  0.11013946  0.42276632  0.82691322  1
  Al  Al16  1  0.22900789  0.53550926  0.65437070  1
  Al  Al17  1  0.77274639  0.42658960  0.40813701  1
  Al  Al18  1  0.89986715  0.54133712  0.06237889  1
  Al  Al19  1  0.43505705  0.43389246  0.90164241  1
  Al  Al20  1  0.55465428  0.53236987  0.65323953  1
  Al  Al21  1  0.12322584  0.75785618  0.41964945  1
  Al  Al22  1  0.77629674  0.75508026  0.82625349  1
  Al  Al23  1  0.89246308  0.86586679  0.62357593  1
  Al  Al24  1  0.43872378  0.75477126  0.41745226  1
  Al  Al25  1  0.56320137  0.87394502  0.06296934  1
  Al  Al26  1  0.11827914  0.75070726  0.89031055  1
  Al  Al27  1  0.22487289  0.86829965  0.65744918  1
  Al  Al28  1  0.88997438  0.86813118  0.08272547  1
  Al  Al29  1  0.44791710  0.75275859  0.89408798  1
  Al  Al30  1  0.55378816  0.87343954  0.58761454  1
  Gd  Gd31  1  0.77069922  0.10852766  0.88609351  1
  Gd  Gd32  1  0.76736029  0.11526968  0.40614827  1
  Gd  Gd33  1  0.11504141  0.41536760  0.33857550  1
  Gd  Gd34  1  0.22685339  0.87525720  0.15582066  1
  Gd  Gd35  1  0.76946834  0.76233959  0.32640264  1
  N  N36  1  0.23962003  0.17699997  0.41237345  1
  N  N37  1  0.09660640  0.11859822  0.07556545  1
  N  N38  1  0.90732536  0.22699522  0.83203778  1
  N  N39  1  0.77259320  0.09776529  0.63039420  1
  N  N40  1  0.51436799  0.22868396  0.33105349  1
  N  N41  1  0.43876996  0.08389290  0.13926063  1
  N  N42  1  0.22751487  0.20864124  0.88578613  1
  N  N43  1  0.10557758  0.08721187  0.60044068  1
  N  N44  1  0.91410544  0.22188884  0.33224746  1
  N  N45  1  0.77848583  0.09440644  0.11512244  1
  N  N46  1  0.51884878  0.23002141  0.83409435  1
  N  N47  1  0.44136366  0.08696815  0.64584200  1
  N  N48  1  0.23495363  0.56672191  0.32694749  1
  N  N49  1  0.11457343  0.42991314  0.12152400  1
  N  N50  1  0.89209799  0.54048972  0.88192442  1
  N  N51  1  0.76878677  0.41765398  0.59258776  1
  N  N52  1  0.56062591  0.53764548  0.33795516  1
  N  N53  1  0.44873909  0.42707613  0.08549937  1
  N  N54  1  0.22714455  0.53797086  0.83520302  1
  N  N55  1  0.10967502  0.42038521  0.64145568  1
  N  N56  1  0.87827786  0.53649128  0.41695276  1
  N  N57  1  0.77932447  0.42764269  0.08353997  1
  N  N58  1  0.55696743  0.53262419  0.83665009  1
  N  N59  1  0.44226748  0.42504821  0.58267907  1
  N  N60  1  0.22349757  0.87149067  0.36981664  1
  N  N61  1  0.10890388  0.74641352  0.07135469  1
  N  N62  1  0.90136215  0.85005328  0.85469350  1
  N  N63  1  0.77202260  0.75629583  0.64508763  1
  N  N64  1  0.53092961  0.88600620  0.40721045  1
  N  N65  1  0.47291475  0.74032682  0.07574715  1
  N  N66  1  0.22469441  0.87221196  0.84290112  1
  N  N67  1  0.12227895  0.75055062  0.60405694  1
  N  N68  1  0.90599768  0.86223325  0.40997633  1
  N  N69  1  0.78067111  0.76097671  0.10999258  1
  N  N70  1  0.55657942  0.87735447  0.88209753  1
  N  N71  1  0.44488601  0.75010701  0.60090541  1
