# generated using pymatgen
data_Gd5Al31N36
_symmetry_space_group_name_H-M   'P 1'
_cell_length_a   9.65118517
_cell_length_b   9.65026196
_cell_length_c   10.67656897
_cell_angle_alpha   90.90865770
_cell_angle_beta   90.25445058
_cell_angle_gamma   60.08023857
_symmetry_Int_Tables_number   1
_chemical_formula_structural   Gd5Al31N36
_chemical_formula_sum   'Gd5 Al31 N36'
_cell_volume   861.73666452
_cell_formula_units_Z   1
loop_
 _symmetry_equiv_pos_site_id
 _symmetry_equiv_pos_as_xyz
  1  'x, y, z'
loop_
 _atom_site_type_symbol
 _atom_site_label
 _atom_site_symmetry_multiplicity
 _atom_site_fract_x
 _atom_site_fract_y
 _atom_site_fract_z
 _atom_site_occupancy
  Al  Al0  1  0.11438959  0.08412124  0.40910104  1
  Al  Al1  1  0.22680580  0.21342351  0.05567873  1
  Al  Al2  1  0.89300708  0.20917181  0.64858595  1
  Al  Al3  1  0.43257526  0.08499070  0.32107395  1
  Al  Al4  1  0.54941492  0.20913914  0.14404079  1
  Al  Al5  1  0.11152124  0.09808403  0.88470271  1
  Al  Al6  1  0.22907949  0.19707798  0.58023558  1
  Al  Al7  1  0.89366846  0.21756879  0.14063468  1
  Al  Al8  1  0.43526284  0.09114441  0.81498307  1
  Al  Al9  1  0.54486125  0.21335241  0.64681936  1
  Al  Al10  1  0.22840792  0.54251834  0.13502694  1
  Al  Al11  1  0.77494929  0.43294772  0.88569221  1
  Al  Al12  1  0.88711815  0.53791005  0.58349889  1
  Al  Al13  1  0.43398344  0.43882410  0.38654299  1
  Al  Al14  1  0.56608985  0.53329349  0.13579890  1
  Al  Al15  1  0.10916798  0.42228101  0.81721121  1
  Al  Al16  1  0.22818912  0.53533899  0.64513936  1
  Al  Al17  1  0.77245511  0.43134819  0.39800842  1
  Al  Al18  1  0.89848933  0.54063589  0.05201218  1
  Al  Al19  1  0.43259099  0.43465610  0.89186130  1
  Al  Al20  1  0.55476144  0.53182654  0.64285223  1
  Al  Al21  1  0.12605372  0.75627347  0.41030176  1
  Al  Al22  1  0.77743486  0.75867700  0.81873388  1
  Al  Al23  1  0.89089500  0.86771431  0.58962779  1
  Al  Al24  1  0.44127590  0.75386926  0.40746134  1
  Al  Al25  1  0.56316062  0.87181942  0.05375436  1
  Al  Al26  1  0.11887748  0.75083771  0.88498944  1
  Al  Al27  1  0.22515449  0.86738009  0.64802351  1
  Al  Al28  1  0.88917232  0.86383463  0.05959377  1
  Al  Al29  1  0.44745683  0.75242805  0.88426535  1
  Al  Al30  1  0.55634900  0.87243513  0.57808232  1
  Gd  Gd31  1  0.76791689  0.11435377  0.87877310  1
  Gd  Gd32  1  0.76524996  0.12477433  0.39459404  1
  Gd  Gd33  1  0.11169101  0.41037119  0.32554021  1
  Gd  Gd34  1  0.22626954  0.87643020  0.14668687  1
  Gd  Gd35  1  0.77417755  0.76755644  0.31515953  1
  N  N36  1  0.24191567  0.17521320  0.40439742  1
  N  N37  1  0.09554501  0.11809478  0.06369956  1
  N  N38  1  0.90801739  0.22819836  0.82014836  1
  N  N39  1  0.77291393  0.09742423  0.61985109  1
  N  N40  1  0.51420677  0.22849529  0.32078275  1
  N  N41  1  0.43794290  0.08238932  0.13056979  1
  N  N42  1  0.22763840  0.20837104  0.87601411  1
  N  N43  1  0.10617697  0.08575612  0.59004359  1
  N  N44  1  0.91743898  0.22601713  0.32111491  1
  N  N45  1  0.77882032  0.09292126  0.10759631  1
  N  N46  1  0.51726515  0.23098419  0.82324729  1
  N  N47  1  0.44199567  0.08551779  0.63666003  1
  N  N48  1  0.23073347  0.56416314  0.31881430  1
  N  N49  1  0.11365834  0.42872819  0.11064910  1
  N  N50  1  0.89102885  0.54205460  0.87179453  1
  N  N51  1  0.76957577  0.41779289  0.58131474  1
  N  N52  1  0.56007689  0.53634272  0.32771130  1
  N  N53  1  0.44832387  0.42491777  0.07542319  1
  N  N54  1  0.22438778  0.53992854  0.82511235  1
  N  N55  1  0.10977099  0.41912356  0.63284384  1
  N  N56  1  0.87639500  0.54373297  0.40880074  1
  N  N57  1  0.77833008  0.42596809  0.07145962  1
  N  N58  1  0.55611988  0.53224839  0.82566703  1
  N  N59  1  0.44226351  0.42410875  0.57259533  1
  N  N60  1  0.22565262  0.86977938  0.35986139  1
  N  N61  1  0.11251610  0.74418352  0.06557706  1
  N  N62  1  0.89541839  0.85322041  0.87518962  1
  N  N63  1  0.77611791  0.75931590  0.63816034  1
  N  N64  1  0.53567792  0.88397710  0.39749211  1
  N  N65  1  0.47162813  0.73869154  0.06464358  1
  N  N66  1  0.22391547  0.87192429  0.83238151  1
  N  N67  1  0.12297301  0.74956234  0.59415167  1
  N  N68  1  0.90579710  0.86957381  0.40837609  1
  N  N69  1  0.77952024  0.75825703  0.10241337  1
  N  N70  1  0.55603389  0.87721965  0.87321129  1
  N  N71  1  0.44647436  0.74950267  0.59027917  1
