# generated using pymatgen
data_Gd5Al31N36
_symmetry_space_group_name_H-M   'P 1'
_cell_length_a   9.71627844
_cell_length_b   9.70383879
_cell_length_c   10.39189525
_cell_angle_alpha   90.59735685
_cell_angle_beta   90.47727102
_cell_angle_gamma   59.94523265
_symmetry_Int_Tables_number   1
_chemical_formula_structural   Gd5Al31N36
_chemical_formula_sum   'Gd5 Al31 N36'
_cell_volume   848.01312216
_cell_formula_units_Z   1
loop_
 _symmetry_equiv_pos_site_id
 _symmetry_equiv_pos_as_xyz
  1  'x, y, z'
loop_
 _atom_site_type_symbol
 _atom_site_label
 _atom_site_symmetry_multiplicity
 _atom_site_fract_x
 _atom_site_fract_y
 _atom_site_fract_z
 _atom_site_occupancy
  Al  Al0  1  0.11289600  0.09388531  0.40990202  1
  Al  Al1  1  0.21929817  0.20884520  0.14480094  1
  Al  Al2  1  0.88724447  0.20701594  0.65717338  1
  Al  Al3  1  0.43415171  0.08540723  0.39651612  1
  Al  Al4  1  0.53949849  0.21535237  0.15176334  1
  Al  Al5  1  0.11025955  0.10164588  0.89621789  1
  Al  Al6  1  0.22320170  0.19601755  0.65381987  1
  Al  Al7  1  0.89062060  0.22038937  0.15352049  1
  Al  Al8  1  0.43201917  0.10363726  0.89384419  1
  Al  Al9  1  0.54215860  0.21047799  0.64987435  1
  Al  Al10  1  0.22567589  0.54625768  0.14639250  1
  Al  Al11  1  0.77538427  0.42856939  0.89840405  1
  Al  Al12  1  0.88451653  0.53312902  0.59545932  1
  Al  Al13  1  0.44585576  0.43998400  0.39469588  1
  Al  Al14  1  0.56683629  0.53619019  0.14585642  1
  Al  Al15  1  0.10998837  0.42970605  0.83005470  1
  Al  Al16  1  0.22729106  0.54353213  0.65376421  1
  Al  Al17  1  0.77628258  0.41808301  0.41016820  1
  Al  Al18  1  0.90399723  0.53922839  0.06987468  1
  Al  Al19  1  0.43722339  0.43338851  0.90021974  1
  Al  Al20  1  0.55333373  0.53358057  0.65400465  1
  Al  Al21  1  0.12241797  0.76186866  0.40858518  1
  Al  Al22  1  0.78089030  0.75067876  0.83326148  1
  Al  Al23  1  0.89343649  0.86510887  0.65401924  1
  Al  Al24  1  0.44281599  0.75904219  0.41565134  1
  Al  Al25  1  0.56082874  0.87352390  0.10371042  1
  Al  Al26  1  0.11523436  0.75537256  0.89586295  1
  Al  Al27  1  0.21886979  0.87302476  0.64810849  1
  Al  Al28  1  0.90030351  0.86956599  0.14575882  1
  Al  Al29  1  0.44529407  0.75694066  0.88954473  1
  Al  Al30  1  0.54757099  0.87428615  0.64984544  1
  Gd  Gd31  1  0.77151120  0.09609788  0.89911303  1
  Gd  Gd32  1  0.76953587  0.09876922  0.39201737  1
  Gd  Gd33  1  0.14494708  0.41419027  0.38365755  1
  Gd  Gd34  1  0.23144353  0.87656009  0.16158487  1
  Gd  Gd35  1  0.77811849  0.74111544  0.33527506  1
  N  N36  1  0.23203392  0.16613042  0.32549242  1
  N  N37  1  0.09641499  0.12238142  0.07712759  1
  N  N38  1  0.89958950  0.22026137  0.83581001  1
  N  N39  1  0.77315050  0.09152159  0.61995413  1
  N  N40  1  0.50419231  0.22843863  0.33429553  1
  N  N41  1  0.44122579  0.09862588  0.07893608  1
  N  N42  1  0.22119034  0.20242192  0.83691020  1
  N  N43  1  0.10535761  0.09800998  0.59588037  1
  N  N44  1  0.90503846  0.21578674  0.33695913  1
  N  N45  1  0.77206782  0.10201742  0.12467408  1
  N  N46  1  0.51813395  0.22540011  0.83076144  1
  N  N47  1  0.43790606  0.09393701  0.58728244  1
  N  N48  1  0.24702031  0.56968291  0.32638339  1
  N  N49  1  0.11351759  0.43347876  0.13593044  1
  N  N50  1  0.89450670  0.53618250  0.88290179  1
  N  N51  1  0.76639656  0.41867017  0.59805945  1
  N  N52  1  0.56592674  0.53774910  0.33914147  1
  N  N53  1  0.44779372  0.43084092  0.08592135  1
  N  N54  1  0.22654955  0.54181280  0.83736929  1
  N  N55  1  0.11162896  0.42689359  0.63533931  1
  N  N56  1  0.89594269  0.51145018  0.41789397  1
  N  N57  1  0.77935393  0.42972071  0.08631998  1
  N  N58  1  0.55567922  0.53391326  0.83821098  1
  N  N59  1  0.44039791  0.42918433  0.58387143  1
  N  N60  1  0.22413792  0.87461687  0.38046163  1
  N  N61  1  0.10547838  0.75405986  0.07563316  1
  N  N62  1  0.90698396  0.84516139  0.83479213  1
  N  N63  1  0.77413798  0.75435685  0.63733088  1
  N  N64  1  0.52485101  0.87772705  0.34574770  1
  N  N65  1  0.47358242  0.74419298  0.07134114  1
  N  N66  1  0.21996515  0.87453423  0.83966310  1
  N  N67  1  0.10940044  0.75798016  0.59367512  1
  N  N68  1  0.92628226  0.85515482  0.32838398  1
  N  N69  1  0.78215383  0.76344059  0.10970380  1
  N  N70  1  0.54970030  0.87810222  0.84225230  1
  N  N71  1  0.44491076  0.75520333  0.60240613  1
