# generated using pymatgen
data_Gd5Al31N36
_symmetry_space_group_name_H-M   'P 1'
_cell_length_a   9.66975620
_cell_length_b   9.65533201
_cell_length_c   10.62860411
_cell_angle_alpha   90.78801302
_cell_angle_beta   90.44381694
_cell_angle_gamma   60.03220268
_symmetry_Int_Tables_number   1
_chemical_formula_structural   Gd5Al31N36
_chemical_formula_sum   'Gd5 Al31 N36'
_cell_volume   859.58560888
_cell_formula_units_Z   1
loop_
 _symmetry_equiv_pos_site_id
 _symmetry_equiv_pos_as_xyz
  1  'x, y, z'
loop_
 _atom_site_type_symbol
 _atom_site_label
 _atom_site_symmetry_multiplicity
 _atom_site_fract_x
 _atom_site_fract_y
 _atom_site_fract_z
 _atom_site_occupancy
  Al  Al0  1  0.11257877  0.08649937  0.41804109  1
  Al  Al1  1  0.22646952  0.21493573  0.06662625  1
  Al  Al2  1  0.89153260  0.20826105  0.65939818  1
  Al  Al3  1  0.43094992  0.08752495  0.33106829  1
  Al  Al4  1  0.54771548  0.21283091  0.15438366  1
  Al  Al5  1  0.11152191  0.09800465  0.89509701  1
  Al  Al6  1  0.22792366  0.19861701  0.58964479  1
  Al  Al7  1  0.89395991  0.21982761  0.15259700  1
  Al  Al8  1  0.43528076  0.09276851  0.82496882  1
  Al  Al9  1  0.54620797  0.21330244  0.65637776  1
  Al  Al10  1  0.22852459  0.54504684  0.14301032  1
  Al  Al11  1  0.77541337  0.43069530  0.89754110  1
  Al  Al12  1  0.88618483  0.53578501  0.59287150  1
  Al  Al13  1  0.43849480  0.43841286  0.39634790  1
  Al  Al14  1  0.56709304  0.53493450  0.14684712  1
  Al  Al15  1  0.11057241  0.42310136  0.82674874  1
  Al  Al16  1  0.22737589  0.53708637  0.65302946  1
  Al  Al17  1  0.77344608  0.42475986  0.40964332  1
  Al  Al18  1  0.89988781  0.54341729  0.06181282  1
  Al  Al19  1  0.43618136  0.43357571  0.90115149  1
  Al  Al20  1  0.55451124  0.53244294  0.65383512  1
  Al  Al21  1  0.12056336  0.75913271  0.41364242  1
  Al  Al22  1  0.77565303  0.75351991  0.82602797  1
  Al  Al23  1  0.89488644  0.86454389  0.65283348  1
  Al  Al24  1  0.43770874  0.75529359  0.41854796  1
  Al  Al25  1  0.56399922  0.87484878  0.06244054  1
  Al  Al26  1  0.11487539  0.75167903  0.89259809  1
  Al  Al27  1  0.22319862  0.86851892  0.65595504  1
  Al  Al28  1  0.89460720  0.87147686  0.12949248  1
  Al  Al29  1  0.44727609  0.75306833  0.89392446  1
  Al  Al30  1  0.55275576  0.87422321  0.58811496  1
  Gd  Gd31  1  0.77441087  0.10014531  0.89371149  1
  Gd  Gd32  1  0.77009649  0.10937985  0.40458644  1
  Gd  Gd33  1  0.11559237  0.41649763  0.33788960  1
  Gd  Gd34  1  0.22810065  0.87554352  0.15636582  1
  Gd  Gd35  1  0.76287149  0.75565843  0.32522465  1
  N  N36  1  0.23909087  0.17846848  0.41259386  1
  N  N37  1  0.09624223  0.11891586  0.07565413  1
  N  N38  1  0.90486115  0.22468447  0.83306731  1
  N  N39  1  0.77430769  0.09365923  0.62622655  1
  N  N40  1  0.51575962  0.22847011  0.33169045  1
  N  N41  1  0.43862976  0.08459160  0.13955664  1
  N  N42  1  0.22753279  0.20874890  0.88591824  1
  N  N43  1  0.10497794  0.08787838  0.60052185  1
  N  N44  1  0.91324846  0.22171780  0.33305383  1
  N  N45  1  0.77660031  0.09914959  0.11718478  1
  N  N46  1  0.52307341  0.22824018  0.83463407  1
  N  N47  1  0.44090851  0.08778971  0.64650034  1
  N  N48  1  0.23821012  0.56512935  0.32617454  1
  N  N49  1  0.11460812  0.43052790  0.12101873  1
  N  N50  1  0.89234149  0.53996779  0.88186285  1
  N  N51  1  0.76846214  0.41702318  0.59361325  1
  N  N52  1  0.56165917  0.53865239  0.33815161  1
  N  N53  1  0.44819456  0.42816875  0.08508119  1
  N  N54  1  0.22739881  0.53902765  0.83473016  1
  N  N55  1  0.10954083  0.42062074  0.64226316  1
  N  N56  1  0.88109463  0.53303843  0.41878251  1
  N  N57  1  0.77949743  0.42884186  0.08381876  1
  N  N58  1  0.55695757  0.53332070  0.83684736  1
  N  N59  1  0.44178066  0.42549544  0.58325998  1
  N  N60  1  0.22416514  0.87231994  0.37000037  1
  N  N61  1  0.10428528  0.75024471  0.07167975  1
  N  N62  1  0.90612174  0.84674318  0.83309445  1
  N  N63  1  0.77032281  0.75591295  0.64297587  1
  N  N64  1  0.52815913  0.88853336  0.40911364  1
  N  N65  1  0.47311548  0.74102114  0.07544892  1
  N  N66  1  0.22360405  0.87190227  0.84220958  1
  N  N67  1  0.11518770  0.75360588  0.59670962  1
  N  N68  1  0.91349144  0.86088557  0.35471517  1
  N  N69  1  0.78080802  0.76323530  0.10944988  1
  N  N70  1  0.55694106  0.87771415  0.88198017  1
  N  N71  1  0.44360027  0.75017805  0.60137761  1
