# generated using pymatgen
data_Gd5Al31N36
_symmetry_space_group_name_H-M   'P 1'
_cell_length_a   9.66562090
_cell_length_b   9.63231650
_cell_length_c   10.66110651
_cell_angle_alpha   90.84813079
_cell_angle_beta   90.91147468
_cell_angle_gamma   60.31277815
_symmetry_Int_Tables_number   1
_chemical_formula_structural   Gd5Al31N36
_chemical_formula_sum   'Gd5 Al31 N36'
_cell_volume   862.15399464
_cell_formula_units_Z   1
loop_
 _symmetry_equiv_pos_site_id
 _symmetry_equiv_pos_as_xyz
  1  'x, y, z'
loop_
 _atom_site_type_symbol
 _atom_site_label
 _atom_site_symmetry_multiplicity
 _atom_site_fract_x
 _atom_site_fract_y
 _atom_site_fract_z
 _atom_site_occupancy
  Al  Al0  1  0.11113588  0.09017589  0.40077483  1
  Al  Al1  1  0.22576799  0.21377589  0.04822683  1
  Al  Al2  1  0.89275094  0.20975956  0.63239475  1
  Al  Al3  1  0.43282055  0.09243716  0.32239574  1
  Al  Al4  1  0.54526708  0.21253535  0.06891864  1
  Al  Al5  1  0.10663263  0.09952364  0.87695737  1
  Al  Al6  1  0.22818749  0.20364461  0.57428122  1
  Al  Al7  1  0.89383579  0.22066893  0.12581816  1
  Al  Al8  1  0.43404360  0.09903982  0.81434484  1
  Al  Al9  1  0.54642251  0.20940955  0.56173458  1
  Al  Al10  1  0.22967587  0.52994599  0.05055472  1
  Al  Al11  1  0.77543704  0.42732144  0.87951093  1
  Al  Al12  1  0.88944793  0.53729215  0.57549708  1
  Al  Al13  1  0.44223005  0.43529174  0.31775348  1
  Al  Al14  1  0.56866828  0.53974087  0.13300736  1
  Al  Al15  1  0.11035837  0.42656033  0.81073088  1
  Al  Al16  1  0.23261523  0.53110744  0.58027622  1
  Al  Al17  1  0.77520542  0.42199765  0.39337068  1
  Al  Al18  1  0.89639743  0.54381399  0.04260038  1
  Al  Al19  1  0.43519649  0.42675347  0.81651734  1
  Al  Al20  1  0.55915731  0.53573713  0.64228725  1
  Al  Al21  1  0.12644535  0.76188296  0.41541652  1
  Al  Al22  1  0.77634994  0.75428006  0.81021540  1
  Al  Al23  1  0.88682133  0.86691040  0.57384363  1
  Al  Al24  1  0.43688568  0.75570593  0.40545246  1
  Al  Al25  1  0.56346794  0.87682607  0.04871164  1
  Al  Al26  1  0.11669019  0.75718842  0.87458225  1
  Al  Al27  1  0.22280914  0.87175267  0.64588974  1
  Al  Al28  1  0.88658502  0.86921843  0.04767015  1
  Al  Al29  1  0.44829155  0.75400227  0.88085401  1
  Al  Al30  1  0.55163560  0.87733388  0.57633536  1
  Gd  Gd31  1  0.76016148  0.09945924  0.82197646  1
  Gd  Gd32  1  0.77816196  0.08950244  0.32436964  1
  Gd  Gd33  1  0.12134057  0.42568120  0.31498437  1
  Gd  Gd34  1  0.22691769  0.87634615  0.14003732  1
  Gd  Gd35  1  0.76328113  0.75318427  0.30956013  1
  N  N36  1  0.23458092  0.18659105  0.39464442  1
  N  N37  1  0.09569028  0.11939319  0.05630687  1
  N  N38  1  0.90138191  0.22263754  0.81088274  1
  N  N39  1  0.77336898  0.09567933  0.59955975  1
  N  N40  1  0.52087655  0.22356563  0.38126001  1
  N  N41  1  0.44129608  0.09065847  0.13036953  1
  N  N42  1  0.22319693  0.20841720  0.86594853  1
  N  N43  1  0.10841844  0.09024912  0.58306037  1
  N  N44  1  0.91224178  0.22132246  0.31243910  1
  N  N45  1  0.77786425  0.09568418  0.09861800  1
  N  N46  1  0.51280080  0.22652022  0.89347672  1
  N  N47  1  0.44598826  0.09548570  0.63441561  1
  N  N48  1  0.25145602  0.54510474  0.40103961  1
  N  N49  1  0.11278226  0.42995639  0.09800449  1
  N  N50  1  0.89059702  0.53863565  0.86246184  1
  N  N51  1  0.76855330  0.42200525  0.57593975  1
  N  N52  1  0.56522538  0.54652122  0.32107931  1
  N  N53  1  0.43940093  0.43056788  0.13252095  1
  N  N54  1  0.22513175  0.53355698  0.86713041  1
  N  N55  1  0.11238489  0.42583830  0.62824580  1
  N  N56  1  0.88864896  0.52722572  0.40002093  1
  N  N57  1  0.77665498  0.42997154  0.06441234  1
  N  N58  1  0.55943542  0.53735354  0.82326786  1
  N  N59  1  0.44708722  0.41615788  0.63665835  1
  N  N60  1  0.22103681  0.87252828  0.35375692  1
  N  N61  1  0.10754982  0.75197978  0.06220503  1
  N  N62  1  0.89618755  0.84784997  0.86662132  1
  N  N63  1  0.77289836  0.75946970  0.62908537  1
  N  N64  1  0.52849700  0.88943151  0.39667568  1
  N  N65  1  0.47193733  0.74367869  0.06066675  1
  N  N66  1  0.22484265  0.87363033  0.82857973  1
  N  N67  1  0.11387728  0.76014742  0.60095073  1
  N  N68  1  0.91101723  0.84583149  0.39477255  1
  N  N69  1  0.78000183  0.76094466  0.09626455  1
  N  N70  1  0.55595948  0.87993385  0.86654062  1
  N  N71  1  0.44218544  0.75247594  0.58750796  1
