# generated using pymatgen
data_Gd5Al31N36
_symmetry_space_group_name_H-M   'P 1'
_cell_length_a   9.68413080
_cell_length_b   9.68284354
_cell_length_c   10.60386673
_cell_angle_alpha   91.03012629
_cell_angle_beta   90.44008329
_cell_angle_gamma   59.99034261
_symmetry_Int_Tables_number   1
_chemical_formula_structural   Gd5Al31N36
_chemical_formula_sum   'Gd5 Al31 N36'
_cell_volume   860.88568902
_cell_formula_units_Z   1
loop_
 _symmetry_equiv_pos_site_id
 _symmetry_equiv_pos_as_xyz
  1  'x, y, z'
loop_
 _atom_site_type_symbol
 _atom_site_label
 _atom_site_symmetry_multiplicity
 _atom_site_fract_x
 _atom_site_fract_y
 _atom_site_fract_z
 _atom_site_occupancy
  Al  Al0  1  0.11456327  0.08473910  0.40631171  1
  Al  Al1  1  0.22607814  0.21551729  0.05258684  1
  Al  Al2  1  0.89162892  0.20900451  0.64340442  1
  Al  Al3  1  0.43192783  0.08566154  0.31774721  1
  Al  Al4  1  0.54739852  0.21112085  0.13952689  1
  Al  Al5  1  0.11119062  0.09943826  0.88057481  1
  Al  Al6  1  0.22900501  0.19793980  0.57779730  1
  Al  Al7  1  0.89439923  0.22024709  0.13727722  1
  Al  Al8  1  0.43596501  0.09206527  0.81213628  1
  Al  Al9  1  0.54635506  0.21308740  0.64150476  1
  Al  Al10  1  0.22901720  0.54352387  0.13342151  1
  Al  Al11  1  0.77482674  0.43261845  0.88209559  1
  Al  Al12  1  0.88604857  0.53789968  0.58149869  1
  Al  Al13  1  0.43694471  0.43703064  0.38481365  1
  Al  Al14  1  0.56612140  0.53460080  0.13386902  1
  Al  Al15  1  0.10947008  0.42309181  0.81391135  1
  Al  Al16  1  0.22806428  0.53644218  0.64213385  1
  Al  Al17  1  0.77209118  0.42819999  0.39684040  1
  Al  Al18  1  0.89879411  0.54128381  0.04886971  1
  Al  Al19  1  0.43391480  0.43411012  0.88905932  1
  Al  Al20  1  0.55383735  0.53276971  0.64088176  1
  Al  Al21  1  0.12722815  0.75444633  0.40669210  1
  Al  Al22  1  0.77725297  0.75832016  0.81552146  1
  Al  Al23  1  0.89024860  0.86680569  0.58404950  1
  Al  Al24  1  0.43940680  0.75420257  0.40513957  1
  Al  Al25  1  0.56311137  0.87286349  0.05032302  1
  Al  Al26  1  0.11909906  0.75019561  0.88280121  1
  Al  Al27  1  0.22396247  0.86842940  0.64576713  1
  Al  Al28  1  0.88964937  0.86350977  0.05854617  1
  Al  Al29  1  0.44729544  0.75272784  0.88147101  1
  Al  Al30  1  0.55457259  0.87356283  0.57590235  1
  Gd  Gd31  1  0.77041640  0.11150539  0.87495438  1
  Gd  Gd32  1  0.77075331  0.11391059  0.37884884  1
  Gd  Gd33  1  0.11279771  0.41284168  0.32559138  1
  Gd  Gd34  1  0.22614364  0.87871331  0.14253999  1
  Gd  Gd35  1  0.77042184  0.76206460  0.31261981  1
  N  N36  1  0.24115784  0.17565582  0.40032754  1
  N  N37  1  0.09529506  0.12100844  0.06070308  1
  N  N38  1  0.90694401  0.22762989  0.81686229  1
  N  N39  1  0.77335617  0.09688417  0.61089191  1
  N  N40  1  0.51417541  0.22795154  0.31806510  1
  N  N41  1  0.43788546  0.08391397  0.12581769  1
  N  N42  1  0.22754081  0.20900896  0.87152407  1
  N  N43  1  0.10662474  0.08695822  0.58824060  1
  N  N44  1  0.91741141  0.22466581  0.31884836  1
  N  N45  1  0.77887372  0.09382020  0.10665457  1
  N  N46  1  0.51975133  0.22986080  0.82079182  1
  N  N47  1  0.44220080  0.08700550  0.63294823  1
  N  N48  1  0.23455887  0.56234366  0.31725018  1
  N  N49  1  0.11380839  0.43038578  0.10832265  1
  N  N50  1  0.89095748  0.54125769  0.86736171  1
  N  N51  1  0.76841223  0.41940424  0.58087203  1
  N  N52  1  0.56031566  0.53626982  0.32589735  1
  N  N53  1  0.44828934  0.42661738  0.07316966  1
  N  N54  1  0.22513581  0.53933503  0.82321233  1
  N  N55  1  0.10988551  0.42063474  0.62844754  1
  N  N56  1  0.87635939  0.53916513  0.40579092  1
  N  N57  1  0.77814882  0.42804016  0.06919577  1
  N  N58  1  0.55547834  0.53278561  0.82408391  1
  N  N59  1  0.44181738  0.42542772  0.57107519  1
  N  N60  1  0.22374592  0.87043588  0.35697566  1
  N  N61  1  0.11239158  0.74534934  0.06465470  1
  N  N62  1  0.89623158  0.85115196  0.87250341  1
  N  N63  1  0.77516527  0.76000116  0.63388277  1
  N  N64  1  0.53219359  0.88478099  0.39436110  1
  N  N65  1  0.47231023  0.74011670  0.06323313  1
  N  N66  1  0.22311063  0.87230804  0.83130557  1
  N  N67  1  0.12195925  0.75097145  0.59183034  1
  N  N68  1  0.90795299  0.85974668  0.40151846  1
  N  N69  1  0.77933125  0.75890900  0.09884542  1
  N  N70  1  0.55561654  0.87710135  0.86890941  1
  N  N71  1  0.44513092  0.75071144  0.58902314  1
