# generated using pymatgen
data_Gd5Al31N36
_symmetry_space_group_name_H-M   'P 1'
_cell_length_a   9.70961525
_cell_length_b   9.70859412
_cell_length_c   10.54446598
_cell_angle_alpha   91.07460305
_cell_angle_beta   90.59386173
_cell_angle_gamma   59.94711783
_symmetry_Int_Tables_number   1
_chemical_formula_structural   Gd5Al31N36
_chemical_formula_sum   'Gd5 Al31 N36'
_cell_volume   860.21151667
_cell_formula_units_Z   1
loop_
 _symmetry_equiv_pos_site_id
 _symmetry_equiv_pos_as_xyz
  1  'x, y, z'
loop_
 _atom_site_type_symbol
 _atom_site_label
 _atom_site_symmetry_multiplicity
 _atom_site_fract_x
 _atom_site_fract_y
 _atom_site_fract_z
 _atom_site_occupancy
  Al  Al0  1  0.11536842  0.08526299  0.40686377  1
  Al  Al1  1  0.22535852  0.21643887  0.05150600  1
  Al  Al2  1  0.89101516  0.21036436  0.64158989  1
  Al  Al3  1  0.43204974  0.08680044  0.31726565  1
  Al  Al4  1  0.54474655  0.21297249  0.13188350  1
  Al  Al5  1  0.11027206  0.09951584  0.87954631  1
  Al  Al6  1  0.22880699  0.19890174  0.57988867  1
  Al  Al7  1  0.89579972  0.22280134  0.13484777  1
  Al  Al8  1  0.43620855  0.09188749  0.81582939  1
  Al  Al9  1  0.54714410  0.21211860  0.63673065  1
  Al  Al10  1  0.22782997  0.54554258  0.13545799  1
  Al  Al11  1  0.77427264  0.43202057  0.88246775  1
  Al  Al12  1  0.88534994  0.53859240  0.58200872  1
  Al  Al13  1  0.43841050  0.43603527  0.38335268  1
  Al  Al14  1  0.56604472  0.53670545  0.13571136  1
  Al  Al15  1  0.10928476  0.42304968  0.81429034  1
  Al  Al16  1  0.22765909  0.53683051  0.64232231  1
  Al  Al17  1  0.77174396  0.42730565  0.39771210  1
  Al  Al18  1  0.89875111  0.54242050  0.04885725  1
  Al  Al19  1  0.43426009  0.43372624  0.89302638  1
  Al  Al20  1  0.55337956  0.53297231  0.64180952  1
  Al  Al21  1  0.12759488  0.75400454  0.40719380  1
  Al  Al22  1  0.77712249  0.75655657  0.81526955  1
  Al  Al23  1  0.88928779  0.86773345  0.58221110  1
  Al  Al24  1  0.43860211  0.75552368  0.40626069  1
  Al  Al25  1  0.56326243  0.87291829  0.04992085  1
  Al  Al26  1  0.12020717  0.74787469  0.88296003  1
  Al  Al27  1  0.22333152  0.86870694  0.64655743  1
  Al  Al28  1  0.88992551  0.86336827  0.05777768  1
  Al  Al29  1  0.44729947  0.75171187  0.88156408  1
  Al  Al30  1  0.55358263  0.87514868  0.57796055  1
  Gd  Gd31  1  0.77503555  0.10483315  0.86589792  1
  Gd  Gd32  1  0.77612124  0.10619573  0.35824125  1
  Gd  Gd33  1  0.11284489  0.41273719  0.32670475  1
  Gd  Gd34  1  0.22641902  0.87952705  0.14166208  1
  Gd  Gd35  1  0.76863326  0.76036044  0.31388664  1
  N  N36  1  0.24218543  0.17551743  0.40129225  1
  N  N37  1  0.09593113  0.12190902  0.06054492  1
  N  N38  1  0.90623449  0.22846886  0.81668341  1
  N  N39  1  0.77296396  0.09724038  0.61127838  1
  N  N40  1  0.51466664  0.22804392  0.31548308  1
  N  N41  1  0.43716538  0.08439925  0.12418326  1
  N  N42  1  0.22571578  0.20831324  0.86948516  1
  N  N43  1  0.10705016  0.08762242  0.58951484  1
  N  N44  1  0.91874057  0.22564671  0.31847278  1
  N  N45  1  0.78036229  0.09405125  0.10708946  1
  N  N46  1  0.52044091  0.22485129  0.83799939  1
  N  N47  1  0.44281093  0.08965648  0.63527091  1
  N  N48  1  0.23438900  0.56181196  0.31931392  1
  N  N49  1  0.11433409  0.43102176  0.10768558  1
  N  N50  1  0.89050104  0.54023800  0.86664785  1
  N  N51  1  0.76751778  0.42116055  0.58199833  1
  N  N52  1  0.55996495  0.53769768  0.32727022  1
  N  N53  1  0.44613595  0.43238772  0.07691303  1
  N  N54  1  0.22668933  0.53720585  0.82402291  1
  N  N55  1  0.10930864  0.42184851  0.62796561  1
  N  N56  1  0.87635526  0.53743702  0.40544930  1
  N  N57  1  0.77770897  0.43051739  0.07020081  1
  N  N58  1  0.55480784  0.53158804  0.82543004  1
  N  N59  1  0.44142643  0.42562236  0.57183526  1
  N  N60  1  0.22278594  0.87105141  0.35740070  1
  N  N61  1  0.11189327  0.74645440  0.06587537  1
  N  N62  1  0.89846031  0.84591153  0.87195374  1
  N  N63  1  0.77465035  0.76081242  0.63292117  1
  N  N64  1  0.53059681  0.88634129  0.39552419  1
  N  N65  1  0.47279680  0.74120405  0.06442231  1
  N  N66  1  0.22234300  0.87171291  0.83268766  1
  N  N67  1  0.12132093  0.75178199  0.59282070  1
  N  N68  1  0.90903606  0.85638305  0.40016079  1
  N  N69  1  0.77923934  0.76001496  0.09896714  1
  N  N70  1  0.55546911  0.87490447  0.86761892  1
  N  N71  1  0.44450045  0.75181029  0.59100799  1
