# generated using pymatgen
data_Gd5Al31N36
_symmetry_space_group_name_H-M   'P 1'
_cell_length_a   9.71239522
_cell_length_b   9.71196098
_cell_length_c   10.53568215
_cell_angle_alpha   91.09477761
_cell_angle_beta   90.67428176
_cell_angle_gamma   59.94101785
_symmetry_Int_Tables_number   1
_chemical_formula_structural   Gd5Al31N36
_chemical_formula_sum   'Gd5 Al31 N36'
_cell_volume   859.97822532
_cell_formula_units_Z   1
loop_
 _symmetry_equiv_pos_site_id
 _symmetry_equiv_pos_as_xyz
  1  'x, y, z'
loop_
 _atom_site_type_symbol
 _atom_site_label
 _atom_site_symmetry_multiplicity
 _atom_site_fract_x
 _atom_site_fract_y
 _atom_site_fract_z
 _atom_site_occupancy
  Al  Al0  1  0.11513503  0.08543208  0.40704885  1
  Al  Al1  1  0.22576352  0.21648102  0.05083176  1
  Al  Al2  1  0.89129043  0.21140679  0.64142569  1
  Al  Al3  1  0.43213563  0.08725479  0.31709005  1
  Al  Al4  1  0.54468683  0.21145441  0.11486702  1
  Al  Al5  1  0.10976185  0.09926935  0.87939054  1
  Al  Al6  1  0.22800331  0.19958206  0.58088782  1
  Al  Al7  1  0.89652703  0.22324578  0.13350100  1
  Al  Al8  1  0.43766537  0.09376706  0.81925159  1
  Al  Al9  1  0.54886231  0.20868498  0.61011248  1
  Al  Al10  1  0.22738223  0.54657609  0.13636659  1
  Al  Al11  1  0.77422214  0.43148064  0.88300606  1
  Al  Al12  1  0.88524506  0.53883378  0.58199007  1
  Al  Al13  1  0.43832237  0.43700661  0.38097767  1
  Al  Al14  1  0.56592729  0.53776663  0.13663769  1
  Al  Al15  1  0.10916466  0.42276598  0.81459981  1
  Al  Al16  1  0.22718551  0.53706184  0.64254072  1
  Al  Al17  1  0.77181512  0.42705445  0.39781953  1
  Al  Al18  1  0.89884128  0.54277121  0.04894259  1
  Al  Al19  1  0.43359463  0.43416201  0.89691626  1
  Al  Al20  1  0.55360076  0.53306901  0.64246218  1
  Al  Al21  1  0.12718307  0.75434179  0.40732938  1
  Al  Al22  1  0.77709017  0.75605134  0.81557634  1
  Al  Al23  1  0.88944536  0.86707039  0.58127592  1
  Al  Al24  1  0.43847601  0.75598592  0.40668107  1
  Al  Al25  1  0.56317774  0.87321454  0.04986977  1
  Al  Al26  1  0.12081564  0.74712524  0.88291310  1
  Al  Al27  1  0.22326158  0.86862121  0.64701269  1
  Al  Al28  1  0.89007022  0.86395273  0.05663472  1
  Al  Al29  1  0.44744303  0.75143023  0.88163911  1
  Al  Al30  1  0.55374739  0.87512752  0.57902066  1
  Gd  Gd31  1  0.77317064  0.10294876  0.85842914  1
  Gd  Gd32  1  0.77798613  0.10323015  0.34633294  1
  Gd  Gd33  1  0.11321016  0.41207924  0.32675391  1
  Gd  Gd34  1  0.22673770  0.87951992  0.14141228  1
  Gd  Gd35  1  0.76812793  0.76022011  0.31416302  1
  N  N36  1  0.24252703  0.17504617  0.40247788  1
  N  N37  1  0.09661954  0.12197860  0.06042690  1
  N  N38  1  0.90535528  0.22841698  0.81699240  1
  N  N39  1  0.77211985  0.09766085  0.61202782  1
  N  N40  1  0.51507000  0.22702042  0.32055488  1
  N  N41  1  0.43655141  0.08407517  0.12583341  1
  N  N42  1  0.22466683  0.20766667  0.86793191  1
  N  N43  1  0.10708724  0.08763888  0.59006139  1
  N  N44  1  0.91893890  0.22637854  0.31840961  1
  N  N45  1  0.78289839  0.09327003  0.10703186  1
  N  N46  1  0.51889343  0.21866251  0.87657553  1
  N  N47  1  0.44442127  0.09300756  0.63723444  1
  N  N48  1  0.23318609  0.56246147  0.31996458  1
  N  N49  1  0.11473863  0.43103429  0.10744773  1
  N  N50  1  0.89038176  0.53995679  0.86657467  1
  N  N51  1  0.76732299  0.42157180  0.58220184  1
  N  N52  1  0.55997228  0.53871631  0.32797901  1
  N  N53  1  0.44447506  0.43792733  0.08088832  1
  N  N54  1  0.22797980  0.53575680  0.82377273  1
  N  N55  1  0.10905806  0.42224276  0.62797827  1
  N  N56  1  0.87658132  0.53721037  0.40543624  1
  N  N57  1  0.77765073  0.43127019  0.07054829  1
  N  N58  1  0.55465037  0.53034397  0.82576459  1
  N  N59  1  0.44049781  0.42743965  0.57139508  1
  N  N60  1  0.22248794  0.87125159  0.35762424  1
  N  N61  1  0.11173536  0.74678978  0.06576917  1
  N  N62  1  0.89925812  0.84469655  0.87141935  1
  N  N63  1  0.77458373  0.76103258  0.63297857  1
  N  N64  1  0.53038696  0.88683272  0.39678611  1
  N  N65  1  0.47308802  0.74176371  0.06452983  1
  N  N66  1  0.22236032  0.87123234  0.83285982  1
  N  N67  1  0.12117628  0.75199659  0.59313115  1
  N  N68  1  0.90862839  0.85640867  0.40047306  1
  N  N69  1  0.77941143  0.76064175  0.09890877  1
  N  N70  1  0.55533761  0.87436628  0.86693783  1
  N  N71  1  0.44435211  0.75229334  0.59179050  1
