# generated using pymatgen
data_Gd5Al31N36
_symmetry_space_group_name_H-M   'P 1'
_cell_length_a   9.70432358
_cell_length_b   9.68645052
_cell_length_c   10.47017168
_cell_angle_alpha   90.45722150
_cell_angle_beta   90.59428347
_cell_angle_gamma   59.98040341
_symmetry_Int_Tables_number   1
_chemical_formula_structural   Gd5Al31N36
_chemical_formula_sum   'Gd5 Al31 N36'
_cell_volume   852.12431276
_cell_formula_units_Z   1
loop_
 _symmetry_equiv_pos_site_id
 _symmetry_equiv_pos_as_xyz
  1  'x, y, z'
loop_
 _atom_site_type_symbol
 _atom_site_label
 _atom_site_symmetry_multiplicity
 _atom_site_fract_x
 _atom_site_fract_y
 _atom_site_fract_z
 _atom_site_occupancy
  Al  Al0  1  0.11594913  0.09373083  0.32667074  1
  Al  Al1  1  0.21963009  0.21121472  0.04748443  1
  Al  Al2  1  0.89066111  0.20877944  0.55910201  1
  Al  Al3  1  0.43409227  0.08984844  0.31347716  1
  Al  Al4  1  0.54271006  0.21314387  0.05661817  1
  Al  Al5  1  0.11217291  0.10400800  0.80867695  1
  Al  Al6  1  0.22475819  0.20251020  0.56828609  1
  Al  Al7  1  0.89068921  0.22015067  0.05473550  1
  Al  Al8  1  0.43712376  0.09881918  0.80604595  1
  Al  Al9  1  0.54459447  0.21006390  0.55424564  1
  Al  Al10  1  0.21950182  0.53760441  0.05134171  1
  Al  Al11  1  0.78606653  0.42882628  0.80532016  1
  Al  Al12  1  0.88895841  0.53530830  0.56824711  1
  Al  Al13  1  0.43890946  0.43392629  0.31179935  1
  Al  Al14  1  0.56063499  0.54149494  0.12858842  1
  Al  Al15  1  0.11226297  0.42965024  0.80989628  1
  Al  Al16  1  0.22569251  0.54109182  0.56448819  1
  Al  Al17  1  0.78520636  0.42325725  0.31380753  1
  Al  Al18  1  0.88788562  0.53867817  0.04140997  1
  Al  Al19  1  0.43420233  0.42955236  0.80931315  1
  Al  Al20  1  0.55421588  0.53816865  0.63067392  1
  Al  Al21  1  0.11731892  0.75382372  0.31629017  1
  Al  Al22  1  0.77968206  0.75702065  0.80489011  1
  Al  Al23  1  0.89508101  0.86718295  0.56129953  1
  Al  Al24  1  0.43349653  0.75677087  0.39057883  1
  Al  Al25  1  0.56374326  0.87710304  0.04188512  1
  Al  Al26  1  0.11386425  0.75166776  0.80816465  1
  Al  Al27  1  0.22719772  0.86880636  0.63272965  1
  Al  Al28  1  0.89187710  0.86031991  0.04735436  1
  Al  Al29  1  0.45554001  0.75012419  0.87119212  1
  Al  Al30  1  0.55317608  0.87779615  0.56686652  1
  Gd  Gd31  1  0.77150518  0.09996030  0.81513462  1
  Gd  Gd32  1  0.77711216  0.09596451  0.30856679  1
  Gd  Gd33  1  0.12085303  0.41996704  0.30561591  1
  Gd  Gd34  1  0.22338164  0.87368881  0.09841428  1
  Gd  Gd35  1  0.76822270  0.75628011  0.30486806  1
  N  N36  1  0.23395488  0.18009139  0.38902251  1
  N  N37  1  0.09679533  0.13378105  0.12683860  1
  N  N38  1  0.90504753  0.22303294  0.87393405  1
  N  N39  1  0.77341853  0.09759749  0.59081993  1
  N  N40  1  0.51928586  0.22142186  0.37155060  1
  N  N41  1  0.44212693  0.09166968  0.12023512  1
  N  N42  1  0.22346447  0.20581244  0.86271553  1
  N  N43  1  0.10880176  0.09714556  0.62395653  1
  N  N44  1  0.90349851  0.21591011  0.37931806  1
  N  N45  1  0.77863921  0.09565647  0.08132459  1
  N  N46  1  0.51765918  0.22453624  0.87764702  1
  N  N47  1  0.44492765  0.09597186  0.62442335  1
  N  N48  1  0.23983347  0.55215504  0.38560247  1
  N  N49  1  0.10955742  0.42948969  0.08582781  1
  N  N50  1  0.88841966  0.53993709  0.85784729  1
  N  N51  1  0.78222976  0.42327726  0.62211710  1
  N  N52  1  0.55684011  0.54419580  0.31920233  1
  N  N53  1  0.43739476  0.42997641  0.12217797  1
  N  N54  1  0.22328676  0.54157151  0.86753828  1
  N  N55  1  0.11383205  0.42840188  0.62075209  1
  N  N56  1  0.88300450  0.52270588  0.39049053  1
  N  N57  1  0.78570149  0.43005498  0.12312046  1
  N  N58  1  0.55757776  0.53620541  0.81731410  1
  N  N59  1  0.44211579  0.42194590  0.62355497  1
  N  N60  1  0.22408659  0.87020465  0.32704855  1
  N  N61  1  0.09216302  0.74042110  0.13037103  1
  N  N62  1  0.90656319  0.84295944  0.86726212  1
  N  N63  1  0.77682271  0.76187824  0.61866242  1
  N  N64  1  0.52973396  0.88624006  0.38496589  1
  N  N65  1  0.47988229  0.73956429  0.05273921  1
  N  N66  1  0.22794473  0.87091179  0.83094061  1
  N  N67  1  0.11087574  0.75823359  0.62635222  1
  N  N68  1  0.91535991  0.85218824  0.38451769  1
  N  N69  1  0.77668551  0.75987997  0.08876432  1
  N  N70  1  0.55803575  0.87976933  0.85646068  1
  N  N71  1  0.44155988  0.75442464  0.57708088  1
