# generated using pymatgen
data_Gd5Al31N36
_symmetry_space_group_name_H-M   'P 1'
_cell_length_a   9.70167899
_cell_length_b   9.67271345
_cell_length_c   10.29059436
_cell_angle_alpha   90.00533650
_cell_angle_beta   90.22137145
_cell_angle_gamma   59.95412729
_symmetry_Int_Tables_number   1
_chemical_formula_structural   Gd5Al31N36
_chemical_formula_sum   'Gd5 Al31 N36'
_cell_volume   835.91314299
_cell_formula_units_Z   1
loop_
 _symmetry_equiv_pos_site_id
 _symmetry_equiv_pos_as_xyz
  1  'x, y, z'
loop_
 _atom_site_type_symbol
 _atom_site_label
 _atom_site_symmetry_multiplicity
 _atom_site_fract_x
 _atom_site_fract_y
 _atom_site_fract_z
 _atom_site_occupancy
  Al  Al0  1  0.11417866  0.09724710  0.30390989  1
  Al  Al1  1  0.22135292  0.20808065  0.03816632  1
  Al  Al2  1  0.89126767  0.21044837  0.54420237  1
  Al  Al3  1  0.43299336  0.09267652  0.30154366  1
  Al  Al4  1  0.54449467  0.21072015  0.04540554  1
  Al  Al5  1  0.11526945  0.09641480  0.79070227  1
  Al  Al6  1  0.22463321  0.20141498  0.55318326  1
  Al  Al7  1  0.89269828  0.21646642  0.04502389  1
  Al  Al8  1  0.43673036  0.09746356  0.79669431  1
  Al  Al9  1  0.54335335  0.21122406  0.54443562  1
  Al  Al10  1  0.22129306  0.53626335  0.03842209  1
  Al  Al11  1  0.77875535  0.43142391  0.79640461  1
  Al  Al12  1  0.88614104  0.53683885  0.55888982  1
  Al  Al13  1  0.44186509  0.43577033  0.29974332  1
  Al  Al14  1  0.56371337  0.53559415  0.05053988  1
  Al  Al15  1  0.11379831  0.42724411  0.79728189  1
  Al  Al16  1  0.22816923  0.54119689  0.55343566  1
  Al  Al17  1  0.77686540  0.42785010  0.29990015  1
  Al  Al18  1  0.89020498  0.53596771  0.02893872  1
  Al  Al19  1  0.43897141  0.43345432  0.79900755  1
  Al  Al20  1  0.55764850  0.53503235  0.54871089  1
  Al  Al21  1  0.11902451  0.75574158  0.30472823  1
  Al  Al22  1  0.77857895  0.75683907  0.79682875  1
  Al  Al23  1  0.89391457  0.86611212  0.54957273  1
  Al  Al24  1  0.44613606  0.75810727  0.30670273  1
  Al  Al25  1  0.55852431  0.87061316  0.03717288  1
  Al  Al26  1  0.11737071  0.75623854  0.78889136  1
  Al  Al27  1  0.22222448  0.87195740  0.54639204  1
  Al  Al28  1  0.89315760  0.85975475  0.03388073  1
  Al  Al29  1  0.44491684  0.75905642  0.79022420  1
  Al  Al30  1  0.55003325  0.87557786  0.55457969  1
  Gd  Gd31  1  0.77344760  0.10145929  0.80181968  1
  Gd  Gd32  1  0.77496585  0.09745879  0.30076474  1
  Gd  Gd33  1  0.11745825  0.42662641  0.29870917  1
  Gd  Gd34  1  0.22407868  0.86999538  0.05648618  1
  Gd  Gd35  1  0.76742351  0.75898818  0.29118100  1
  N  N36  1  0.23144554  0.18211003  0.37158545  1
  N  N37  1  0.10043844  0.12466108  0.11824787  1
  N  N38  1  0.90834432  0.22182789  0.86205506  1
  N  N39  1  0.77355677  0.09795257  0.57458331  1
  N  N40  1  0.51592078  0.22348723  0.35974298  1
  N  N41  1  0.44323113  0.09103464  0.10805972  1
  N  N42  1  0.22268408  0.20257188  0.85103099  1
  N  N43  1  0.10968495  0.09398769  0.60489270  1
  N  N44  1  0.90325410  0.21836628  0.36168274  1
  N  N45  1  0.77987653  0.09329556  0.07026804  1
  N  N46  1  0.51850325  0.22386982  0.86401755  1
  N  N47  1  0.44407954  0.09553625  0.61215782  1
  N  N48  1  0.24171243  0.55307411  0.37212952  1
  N  N49  1  0.11107062  0.42729820  0.07536914  1
  N  N50  1  0.88952533  0.53737178  0.84348171  1
  N  N51  1  0.77486850  0.42546034  0.61195406  1
  N  N52  1  0.56019960  0.53339866  0.35945929  1
  N  N53  1  0.44265686  0.43201136  0.10854271  1
  N  N54  1  0.22342942  0.54264432  0.85155380  1
  N  N55  1  0.11453738  0.42770041  0.60534311  1
  N  N56  1  0.87629484  0.52609314  0.37803002  1
  N  N57  1  0.78034822  0.43040874  0.10841574  1
  N  N58  1  0.55688927  0.53867315  0.85945161  1
  N  N59  1  0.44804311  0.42695192  0.61232123  1
  N  N60  1  0.22211312  0.87299662  0.34926226  1
  N  N61  1  0.09628273  0.74144277  0.11832204  1
  N  N62  1  0.90802643  0.84326142  0.85064656  1
  N  N63  1  0.77454936  0.76322192  0.60729814  1
  N  N64  1  0.52673187  0.88599767  0.37249417  1
  N  N65  1  0.47953639  0.74629292  0.12011569  1
  N  N66  1  0.22331109  0.87254395  0.83666529  1
  N  N67  1  0.11346155  0.76178320  0.60573498  1
  N  N68  1  0.91582615  0.85068853  0.37018709  1
  N  N69  1  0.77805231  0.75754756  0.07112881  1
  N  N70  1  0.55123012  0.87375685  0.84957104  1
  N  N71  1  0.44505107  0.75698431  0.60364774  1
