# generated using pymatgen
data_Gd5Al31N36
_symmetry_space_group_name_H-M   'P 1'
_cell_length_a   9.70493658
_cell_length_b   9.69965816
_cell_length_c   10.55921168
_cell_angle_alpha   91.13099965
_cell_angle_beta   90.87903460
_cell_angle_gamma   59.92784970
_symmetry_Int_Tables_number   1
_chemical_formula_structural   Gd5Al31N36
_chemical_formula_sum   'Gd5 Al31 N36'
_cell_volume   860.00666341
_cell_formula_units_Z   1
loop_
 _symmetry_equiv_pos_site_id
 _symmetry_equiv_pos_as_xyz
  1  'x, y, z'
loop_
 _atom_site_type_symbol
 _atom_site_label
 _atom_site_symmetry_multiplicity
 _atom_site_fract_x
 _atom_site_fract_y
 _atom_site_fract_z
 _atom_site_occupancy
  Al  Al0  1  0.11365074  0.08497803  0.40775656  1
  Al  Al1  1  0.22635525  0.21728218  0.05192898  1
  Al  Al2  1  0.89110769  0.21153197  0.63963675  1
  Al  Al3  1  0.43372922  0.08754402  0.32279584  1
  Al  Al4  1  0.54720697  0.20677722  0.07755031  1
  Al  Al5  1  0.10963347  0.09854439  0.87999086  1
  Al  Al6  1  0.22860806  0.19943791  0.58120733  1
  Al  Al7  1  0.89664491  0.22388518  0.13168147  1
  Al  Al8  1  0.43783576  0.09594191  0.81818689  1
  Al  Al9  1  0.54628109  0.20574265  0.56529295  1
  Al  Al10  1  0.22748478  0.54660780  0.13695426  1
  Al  Al11  1  0.77461342  0.42989690  0.88402163  1
  Al  Al12  1  0.88518507  0.53919059  0.58207251  1
  Al  Al13  1  0.43702247  0.44108604  0.38649251  1
  Al  Al14  1  0.56635717  0.53806368  0.13800027  1
  Al  Al15  1  0.10892292  0.42260350  0.81435565  1
  Al  Al16  1  0.22841864  0.53712824  0.64341655  1
  Al  Al17  1  0.77168245  0.42584160  0.39884861  1
  Al  Al18  1  0.89898522  0.54357354  0.04894557  1
  Al  Al19  1  0.43304091  0.43599509  0.89821787  1
  Al  Al20  1  0.55300215  0.53321778  0.64365424  1
  Al  Al21  1  0.12759528  0.75317388  0.40778293  1
  Al  Al22  1  0.77743005  0.75546469  0.81546132  1
  Al  Al23  1  0.88888832  0.86822115  0.57887415  1
  Al  Al24  1  0.43829675  0.75606514  0.40826666  1
  Al  Al25  1  0.56353582  0.87433987  0.05131673  1
  Al  Al26  1  0.12134433  0.74710588  0.88319169  1
  Al  Al27  1  0.22327184  0.86860816  0.64733566  1
  Al  Al28  1  0.88927431  0.86645844  0.05395889  1
  Al  Al29  1  0.44771807  0.75190365  0.88226782  1
  Al  Al30  1  0.55333273  0.87616981  0.58031301  1
  Gd  Gd31  1  0.76707120  0.10084408  0.83789392  1
  Gd  Gd32  1  0.77924379  0.09842994  0.33345704  1
  Gd  Gd33  1  0.11256719  0.41180562  0.32730112  1
  Gd  Gd34  1  0.22701439  0.87920707  0.14244899  1
  Gd  Gd35  1  0.76744175  0.75917415  0.31395207  1
  N  N36  1  0.24065948  0.17432471  0.40247994  1
  N  N37  1  0.09798275  0.12188806  0.06080984  1
  N  N38  1  0.90392662  0.22580584  0.81778615  1
  N  N39  1  0.77092148  0.09868287  0.60964481  1
  N  N40  1  0.51928306  0.21798539  0.37561565  1
  N  N41  1  0.44013550  0.08890321  0.13235676  1
  N  N42  1  0.22514629  0.20737820  0.86853360  1
  N  N43  1  0.10732575  0.08789440  0.59067675  1
  N  N44  1  0.91764282  0.22602999  0.31812371  1
  N  N45  1  0.78150162  0.09480684  0.10521088  1
  N  N46  1  0.51766399  0.21533385  0.89808547  1
  N  N47  1  0.44659277  0.09603924  0.63781659  1
  N  N48  1  0.23430198  0.56078437  0.31952197  1
  N  N49  1  0.11462644  0.43143943  0.10802828  1
  N  N50  1  0.89044985  0.53934816  0.86683580  1
  N  N51  1  0.76726467  0.42261615  0.58302277  1
  N  N52  1  0.55993768  0.53877604  0.32854959  1
  N  N53  1  0.44520167  0.43868408  0.08392756  1
  N  N54  1  0.22862710  0.53463916  0.82471703  1
  N  N55  1  0.10911011  0.42244233  0.62846255  1
  N  N56  1  0.87659929  0.53650031  0.40575545  1
  N  N57  1  0.77774918  0.43246761  0.07093125  1
  N  N58  1  0.55494516  0.52950641  0.82718990  1
  N  N59  1  0.43827097  0.43460606  0.57457745  1
  N  N60  1  0.22217381  0.87055389  0.35817751  1
  N  N61  1  0.11159498  0.74728949  0.06560084  1
  N  N62  1  0.89945593  0.84556938  0.87094737  1
  N  N63  1  0.77475669  0.76142817  0.63329984  1
  N  N64  1  0.53085005  0.88546636  0.39812562  1
  N  N65  1  0.47318425  0.74310132  0.06525124  1
  N  N66  1  0.22286261  0.87070706  0.83309796  1
  N  N67  1  0.12021645  0.75266775  0.59338103  1
  N  N68  1  0.90897223  0.85551084  0.39907966  1
  N  N69  1  0.78013778  0.76176442  0.09875682  1
  N  N70  1  0.55534109  0.87586201  0.86798886  1
  N  N71  1  0.44431921  0.75346058  0.59323164  1
