# generated using pymatgen
data_Gd5Al31N36
_symmetry_space_group_name_H-M   'P 1'
_cell_length_a   9.66137264
_cell_length_b   9.66439696
_cell_length_c   10.52666525
_cell_angle_alpha   90.74595184
_cell_angle_beta   90.87493688
_cell_angle_gamma   60.15315392
_symmetry_Int_Tables_number   1
_chemical_formula_structural   Gd5Al31N36
_chemical_formula_sum   'Gd5 Al31 N36'
_cell_volume   852.40127572
_cell_formula_units_Z   1
loop_
 _symmetry_equiv_pos_site_id
 _symmetry_equiv_pos_as_xyz
  1  'x, y, z'
loop_
 _atom_site_type_symbol
 _atom_site_label
 _atom_site_symmetry_multiplicity
 _atom_site_fract_x
 _atom_site_fract_y
 _atom_site_fract_z
 _atom_site_occupancy
  Al  Al0  1  0.11739193  0.09024772  0.41088930  1
  Al  Al1  1  0.22636200  0.20652607  0.13797837  1
  Al  Al2  1  0.88736194  0.20650607  0.65758278  1
  Al  Al3  1  0.43114372  0.09418468  0.40510067  1
  Al  Al4  1  0.54433946  0.21334054  0.15375372  1
  Al  Al5  1  0.11022303  0.10278964  0.89566459  1
  Al  Al6  1  0.22130371  0.19939504  0.65498174  1
  Al  Al7  1  0.89328981  0.22259201  0.15577985  1
  Al  Al8  1  0.43197513  0.10898525  0.88967024  1
  Al  Al9  1  0.54491956  0.21187907  0.65260078  1
  Al  Al10  1  0.22977318  0.54662149  0.14753122  1
  Al  Al11  1  0.77610491  0.42761385  0.89930688  1
  Al  Al12  1  0.88183796  0.53895271  0.59352791  1
  Al  Al13  1  0.44579021  0.43523781  0.39839849  1
  Al  Al14  1  0.56739936  0.53686077  0.14674649  1
  Al  Al15  1  0.10705796  0.43238471  0.82737415  1
  Al  Al16  1  0.22631885  0.54229506  0.65245114  1
  Al  Al17  1  0.77410577  0.41939663  0.41333675  1
  Al  Al18  1  0.90571971  0.54171126  0.06391494  1
  Al  Al19  1  0.43860812  0.43297061  0.90176176  1
  Al  Al20  1  0.55377542  0.53230700  0.65771631  1
  Al  Al21  1  0.11797750  0.75687537  0.40848127  1
  Al  Al22  1  0.77671744  0.75259926  0.82792020  1
  Al  Al23  1  0.89273086  0.86524320  0.65543922  1
  Al  Al24  1  0.43406785  0.75173756  0.42453911  1
  Al  Al25  1  0.57177270  0.87227963  0.05301353  1
  Al  Al26  1  0.11563624  0.75424479  0.89806096  1
  Al  Al27  1  0.21761508  0.87141215  0.65337619  1
  Al  Al28  1  0.90353023  0.86660553  0.14870455  1
  Al  Al29  1  0.44452491  0.75570971  0.88990966  1
  Al  Al30  1  0.55094512  0.87230298  0.59666116  1
  Gd  Gd31  1  0.77576057  0.09239767  0.90482776  1
  Gd  Gd32  1  0.77737525  0.09124279  0.39266776  1
  Gd  Gd33  1  0.12817597  0.41742091  0.36513531  1
  Gd  Gd34  1  0.23446846  0.88192404  0.16122549  1
  Gd  Gd35  1  0.75165365  0.74303989  0.31537393  1
  N  N36  1  0.23992970  0.15671133  0.31945909  1
  N  N37  1  0.09644783  0.12547860  0.07416629  1
  N  N38  1  0.89885977  0.21976027  0.83482655  1
  N  N39  1  0.77417428  0.09060066  0.61759250  1
  N  N40  1  0.51255737  0.22269381  0.33538818  1
  N  N41  1  0.44494031  0.10158654  0.07583446  1
  N  N42  1  0.22013077  0.20487566  0.83639305  1
  N  N43  1  0.10722074  0.09570762  0.59567670  1
  N  N44  1  0.90857774  0.21857106  0.33824619  1
  N  N45  1  0.77790054  0.10052254  0.12902347  1
  N  N46  1  0.52424883  0.22600311  0.83160892  1
  N  N47  1  0.43269358  0.10651017  0.59353761  1
  N  N48  1  0.24667672  0.56313711  0.32900458  1
  N  N49  1  0.11491113  0.43370004  0.13343996  1
  N  N50  1  0.89331977  0.53713016  0.88175647  1
  N  N51  1  0.76683449  0.41895207  0.59806184  1
  N  N52  1  0.56341864  0.53885982  0.34009808  1
  N  N53  1  0.45001002  0.43012121  0.08710979  1
  N  N54  1  0.22766307  0.54157969  0.83668405  1
  N  N55  1  0.10673468  0.42959380  0.63584858  1
  N  N56  1  0.88213214  0.52770404  0.41768538  1
  N  N57  1  0.78063058  0.43145543  0.08701705  1
  N  N58  1  0.55666420  0.53370398  0.84040769  1
  N  N59  1  0.44120241  0.42877348  0.58533016  1
  N  N60  1  0.21979593  0.87160973  0.37677987  1
  N  N61  1  0.10923850  0.75480227  0.07773780  1
  N  N62  1  0.90843052  0.84460061  0.83383850  1
  N  N63  1  0.76957378  0.75662955  0.64386965  1
  N  N64  1  0.53001155  0.87665405  0.41486860  1
  N  N65  1  0.47656401  0.74503802  0.07591312  1
  N  N66  1  0.21935221  0.87500226  0.84198056  1
  N  N67  1  0.10755373  0.75768117  0.59265959  1
  N  N68  1  0.91839009  0.84163245  0.32929886  1
  N  N69  1  0.78497688  0.76559721  0.10064199  1
  N  N70  1  0.55456788  0.87766928  0.86980971  1
  N  N71  1  0.43945051  0.75103793  0.60892797  1
