# generated using pymatgen
data_Gd5Al31N36
_symmetry_space_group_name_H-M   'P 1'
_cell_length_a   9.67056563
_cell_length_b   9.64959060
_cell_length_c   10.64892951
_cell_angle_alpha   91.18065198
_cell_angle_beta   91.30392055
_cell_angle_gamma   60.10908498
_symmetry_Int_Tables_number   1
_chemical_formula_structural   Gd5Al31N36
_chemical_formula_sum   'Gd5 Al31 N36'
_cell_volume   861.26420637
_cell_formula_units_Z   1
loop_
 _symmetry_equiv_pos_site_id
 _symmetry_equiv_pos_as_xyz
  1  'x, y, z'
loop_
 _atom_site_type_symbol
 _atom_site_label
 _atom_site_symmetry_multiplicity
 _atom_site_fract_x
 _atom_site_fract_y
 _atom_site_fract_z
 _atom_site_occupancy
  Al  Al0  1  0.11312908  0.08479426  0.40914999  1
  Al  Al1  1  0.22717645  0.21698388  0.05221348  1
  Al  Al2  1  0.89265991  0.21126629  0.63858815  1
  Al  Al3  1  0.43402993  0.08878208  0.32536685  1
  Al  Al4  1  0.55010825  0.20663401  0.07351654  1
  Al  Al5  1  0.10696130  0.09696103  0.88215235  1
  Al  Al6  1  0.22879095  0.20117910  0.58093685  1
  Al  Al7  1  0.89592251  0.22255901  0.13176566  1
  Al  Al8  1  0.43442484  0.09716858  0.81821444  1
  Al  Al9  1  0.54582643  0.20667759  0.56191681  1
  Al  Al10  1  0.22859491  0.54651633  0.13651442  1
  Al  Al11  1  0.77461869  0.42655797  0.88539156  1
  Al  Al12  1  0.88595236  0.53952245  0.58257934  1
  Al  Al13  1  0.43728034  0.44168690  0.38870341  1
  Al  Al14  1  0.56741114  0.53828044  0.13820350  1
  Al  Al15  1  0.10848036  0.42250221  0.81522139  1
  Al  Al16  1  0.22825369  0.53784885  0.64532419  1
  Al  Al17  1  0.77184642  0.42425899  0.40101135  1
  Al  Al18  1  0.89936797  0.54466278  0.04737321  1
  Al  Al19  1  0.43247652  0.43772351  0.89872984  1
  Al  Al20  1  0.55342431  0.53435236  0.64577140  1
  Al  Al21  1  0.12834572  0.75027505  0.40670954  1
  Al  Al22  1  0.77809750  0.75452093  0.81600577  1
  Al  Al23  1  0.88987607  0.86573690  0.57288077  1
  Al  Al24  1  0.43824879  0.75631590  0.41124785  1
  Al  Al25  1  0.56474787  0.87645514  0.05096454  1
  Al  Al26  1  0.12106844  0.74883845  0.88491990  1
  Al  Al27  1  0.22336151  0.86888622  0.64781506  1
  Al  Al28  1  0.88902604  0.87062273  0.05254697  1
  Al  Al29  1  0.44775889  0.75276536  0.88386661  1
  Al  Al30  1  0.55416350  0.87716216  0.58152764  1
  Gd  Gd31  1  0.75939309  0.09781157  0.82204097  1
  Gd  Gd32  1  0.77841395  0.09553089  0.33105542  1
  Gd  Gd33  1  0.10982816  0.41158196  0.32372223  1
  Gd  Gd34  1  0.22970841  0.87906733  0.14591732  1
  Gd  Gd35  1  0.76387489  0.75561870  0.31074193  1
  N  N36  1  0.24027113  0.17585468  0.40346158  1
  N  N37  1  0.09782231  0.12101023  0.06174465  1
  N  N38  1  0.90037074  0.22142601  0.81742902  1
  N  N39  1  0.77339752  0.09728351  0.60092195  1
  N  N40  1  0.52028573  0.21758901  0.38168025  1
  N  N41  1  0.44237981  0.09039041  0.13444760  1
  N  N42  1  0.22314759  0.20682241  0.87025630  1
  N  N43  1  0.10818705  0.08862254  0.59064166  1
  N  N44  1  0.91682382  0.22499352  0.31877358  1
  N  N45  1  0.78109631  0.09618852  0.10645027  1
  N  N46  1  0.51633851  0.21640519  0.89742393  1
  N  N47  1  0.44750541  0.09740433  0.63928233  1
  N  N48  1  0.23577556  0.55828351  0.31818543  1
  N  N49  1  0.11497607  0.43162390  0.10674456  1
  N  N50  1  0.89018243  0.53772010  0.86709927  1
  N  N51  1  0.76707340  0.42336782  0.58416814  1
  N  N52  1  0.56017347  0.53968743  0.32927104  1
  N  N53  1  0.44595944  0.43912737  0.08307585  1
  N  N54  1  0.22737291  0.53659662  0.82543316  1
  N  N55  1  0.10910979  0.42238673  0.63125528  1
  N  N56  1  0.87769411  0.53541475  0.40794806  1
  N  N57  1  0.77855428  0.43238403  0.07126867  1
  N  N58  1  0.55483111  0.53042169  0.82804169  1
  N  N59  1  0.43766848  0.43640156  0.57612937  1
  N  N60  1  0.22211292  0.87006040  0.36002737  1
  N  N61  1  0.11276298  0.74904614  0.06578488  1
  N  N62  1  0.89893698  0.84730666  0.87216795  1
  N  N63  1  0.77571076  0.76204085  0.63484832  1
  N  N64  1  0.53155071  0.88630435  0.40082967  1
  N  N65  1  0.47407359  0.74449575  0.06575574  1
  N  N66  1  0.22326477  0.87051045  0.83235338  1
  N  N67  1  0.12024466  0.75237732  0.59109335  1
  N  N68  1  0.90907369  0.84990802  0.39510169  1
  N  N69  1  0.78188978  0.76281775  0.09753292  1
  N  N70  1  0.55570569  0.87708016  0.86873168  1
  N  N71  1  0.44455968  0.75462790  0.59459779  1
