# generated using pymatgen
data_Gd5Al31N36
_symmetry_space_group_name_H-M   'P 1'
_cell_length_a   9.65128562
_cell_length_b   9.65037177
_cell_length_c   10.67637989
_cell_angle_alpha   90.90861255
_cell_angle_beta   90.25472676
_cell_angle_gamma   60.07961727
_symmetry_Int_Tables_number   1
_chemical_formula_structural   Gd5Al31N36
_chemical_formula_sum   'Gd5 Al31 N36'
_cell_volume   861.73483147
_cell_formula_units_Z   1
loop_
 _symmetry_equiv_pos_site_id
 _symmetry_equiv_pos_as_xyz
  1  'x, y, z'
loop_
 _atom_site_type_symbol
 _atom_site_label
 _atom_site_symmetry_multiplicity
 _atom_site_fract_x
 _atom_site_fract_y
 _atom_site_fract_z
 _atom_site_occupancy
  Al  Al0  1  0.11441889  0.08410040  0.41712797  1
  Al  Al1  1  0.22683903  0.21340109  0.06371044  1
  Al  Al2  1  0.89303856  0.20914498  0.65661070  1
  Al  Al3  1  0.43260541  0.08496697  0.32909924  1
  Al  Al4  1  0.54944631  0.20911647  0.15206632  1
  Al  Al5  1  0.11155515  0.09806130  0.89273143  1
  Al  Al6  1  0.22911269  0.19705326  0.58826242  1
  Al  Al7  1  0.89370301  0.21754400  0.14866353  1
  Al  Al8  1  0.43529720  0.09112174  0.82301105  1
  Al  Al9  1  0.54489634  0.21332716  0.65484190  1
  Al  Al10  1  0.22844596  0.54249447  0.14305604  1
  Al  Al11  1  0.77498539  0.43291966  0.89372137  1
  Al  Al12  1  0.88714963  0.53788191  0.59152748  1
  Al  Al13  1  0.43402604  0.43879887  0.39457254  1
  Al  Al14  1  0.56612585  0.53326988  0.14382900  1
  Al  Al15  1  0.10920441  0.42225661  0.82523827  1
  Al  Al16  1  0.22822434  0.53531593  0.65316685  1
  Al  Al17  1  0.77249012  0.43131142  0.40603858  1
  Al  Al18  1  0.89852714  0.54060765  0.06004300  1
  Al  Al19  1  0.43262860  0.43462994  0.89988872  1
  Al  Al20  1  0.55479476  0.53180309  0.65088278  1
  Al  Al21  1  0.12608821  0.75624867  0.41832930  1
  Al  Al22  1  0.77746908  0.75864811  0.82676241  1
  Al  Al23  1  0.89092804  0.86768253  0.59765478  1
  Al  Al24  1  0.44130455  0.75384603  0.41549034  1
  Al  Al25  1  0.56319521  0.87179528  0.06178081  1
  Al  Al26  1  0.11891162  0.75081173  0.89301650  1
  Al  Al27  1  0.22518592  0.86735815  0.65605278  1
  Al  Al28  1  0.88920750  0.86380644  0.06762402  1
  Al  Al29  1  0.44749113  0.75240338  0.89229378  1
  Al  Al30  1  0.55637884  0.87241116  0.58611149  1
  Gd  Gd31  1  0.76795389  0.11432224  0.88679807  1
  Gd  Gd32  1  0.76528953  0.12472287  0.40260378  1
  Gd  Gd33  1  0.11173650  0.41035917  0.33358192  1
  Gd  Gd34  1  0.22630331  0.87640501  0.15471268  1
  Gd  Gd35  1  0.77420225  0.76751649  0.32318748  1
  N  N36  1  0.24194399  0.17518911  0.41241972  1
  N  N37  1  0.09558032  0.11807367  0.07173143  1
  N  N38  1  0.90804926  0.22816967  0.82817785  1
  N  N39  1  0.77294917  0.09739549  0.62786962  1
  N  N40  1  0.51423410  0.22847261  0.32881188  1
  N  N41  1  0.43798011  0.08236532  0.13859410  1
  N  N42  1  0.22767187  0.20834712  0.88404150  1
  N  N43  1  0.10621129  0.08573429  0.59807388  1
  N  N44  1  0.91746483  0.22598215  0.32914645  1
  N  N45  1  0.77885446  0.09289492  0.11562634  1
  N  N46  1  0.51730134  0.23095794  0.83127453  1
  N  N47  1  0.44202965  0.08549549  0.64468491  1
  N  N48  1  0.23077974  0.56414217  0.32684293  1
  N  N49  1  0.11369566  0.42870460  0.11868459  1
  N  N50  1  0.89106552  0.54202446  0.87982161  1
  N  N51  1  0.76960807  0.41776936  0.58934822  1
  N  N52  1  0.56011246  0.53631875  0.33574105  1
  N  N53  1  0.44836068  0.42489468  0.08345172  1
  N  N54  1  0.22442355  0.53990191  0.83314189  1
  N  N55  1  0.10980703  0.41910114  0.64086667  1
  N  N56  1  0.87643014  0.54369258  0.41682603  1
  N  N57  1  0.77836636  0.42594408  0.07949122  1
  N  N58  1  0.55615412  0.53222374  0.83369866  1
  N  N59  1  0.44229800  0.42408716  0.58062548  1
  N  N60  1  0.22568017  0.86975869  0.36789062  1
  N  N61  1  0.11254989  0.74415907  0.07360627  1
  N  N62  1  0.89545325  0.85319025  0.88321476  1
  N  N63  1  0.77614975  0.75928801  0.64618588  1
  N  N64  1  0.53570303  0.88395376  0.40551903  1
  N  N65  1  0.47166489  0.73866883  0.07267512  1
  N  N66  1  0.22394808  0.87190028  0.84041382  1
  N  N67  1  0.12300540  0.74954096  0.60218253  1
  N  N68  1  0.90583262  0.86952300  0.41639847  1
  N  N69  1  0.77955545  0.75823056  0.11043846  1
  N  N70  1  0.55606688  0.87719389  0.88123572  1
  N  N71  1  0.44650539  0.74947996  0.59831074  1
