# generated using pymatgen
data_Gd5Al31N36
_symmetry_space_group_name_H-M   'P 1'
_cell_length_a   9.68144643
_cell_length_b   9.64822635
_cell_length_c   10.57375614
_cell_angle_alpha   91.02632029
_cell_angle_beta   90.94226889
_cell_angle_gamma   60.24009949
_symmetry_Int_Tables_number   1
_chemical_formula_structural   Gd5Al31N36
_chemical_formula_sum   'Gd5 Al31 N36'
_cell_volume   857.24938363
_cell_formula_units_Z   1
loop_
 _symmetry_equiv_pos_site_id
 _symmetry_equiv_pos_as_xyz
  1  'x, y, z'
loop_
 _atom_site_type_symbol
 _atom_site_label
 _atom_site_symmetry_multiplicity
 _atom_site_fract_x
 _atom_site_fract_y
 _atom_site_fract_z
 _atom_site_occupancy
  Al  Al0  1  0.11114814  0.08735816  0.42546315  1
  Al  Al1  1  0.22127402  0.22471774  0.05613625  1
  Al  Al2  1  0.88432447  0.20536951  0.66073424  1
  Al  Al3  1  0.43701094  0.09725962  0.42210540  1
  Al  Al4  1  0.54379303  0.21234803  0.15516062  1
  Al  Al5  1  0.10648966  0.09752684  0.88998976  1
  Al  Al6  1  0.21883356  0.20224515  0.62454812  1
  Al  Al7  1  0.89429427  0.22412264  0.15660402  1
  Al  Al8  1  0.44197683  0.10149403  0.87413723  1
  Al  Al9  1  0.55041305  0.21079583  0.65550913  1
  Al  Al10  1  0.23242730  0.54945103  0.14405951  1
  Al  Al11  1  0.77421055  0.42802293  0.89964433  1
  Al  Al12  1  0.88569402  0.53595461  0.59222894  1
  Al  Al13  1  0.44190004  0.43344313  0.39860163  1
  Al  Al14  1  0.56724643  0.53825968  0.14829894  1
  Al  Al15  1  0.10601116  0.43307189  0.82709613  1
  Al  Al16  1  0.22643054  0.53897851  0.65200358  1
  Al  Al17  1  0.77266005  0.42098272  0.41429365  1
  Al  Al18  1  0.90009385  0.54869483  0.05854447  1
  Al  Al19  1  0.43927850  0.43327602  0.90223173  1
  Al  Al20  1  0.55397503  0.53100940  0.65736402  1
  Al  Al21  1  0.11847492  0.75268705  0.40743936  1
  Al  Al22  1  0.77846773  0.75049054  0.82492802  1
  Al  Al23  1  0.89424993  0.86376764  0.65484417  1
  Al  Al24  1  0.43276709  0.75409004  0.42581654  1
  Al  Al25  1  0.57188455  0.87433625  0.05097857  1
  Al  Al26  1  0.11603375  0.75302807  0.89876411  1
  Al  Al27  1  0.21817767  0.86649967  0.65670535  1
  Al  Al28  1  0.90444246  0.86796040  0.15059686  1
  Al  Al29  1  0.44539500  0.75383121  0.89098932  1
  Al  Al30  1  0.55438875  0.86734121  0.60084208  1
  Gd  Gd31  1  0.77610120  0.09021552  0.90954191  1
  Gd  Gd32  1  0.77870242  0.09231681  0.39190875  1
  Gd  Gd33  1  0.11400424  0.41311024  0.33224667  1
  Gd  Gd34  1  0.23433156  0.88838224  0.16118229  1
  Gd  Gd35  1  0.74894578  0.74618350  0.31649249  1
  N  N36  1  0.22976831  0.17819395  0.40175430  1
  N  N37  1  0.09484247  0.12807424  0.07189238  1
  N  N38  1  0.89494894  0.21961134  0.83693398  1
  N  N39  1  0.77539798  0.08844803  0.61618249  1
  N  N40  1  0.51541326  0.21842183  0.33634016  1
  N  N41  1  0.44905397  0.10220538  0.06889387  1
  N  N42  1  0.21948812  0.20936730  0.86152586  1
  N  N43  1  0.10273692  0.08889274  0.60903463  1
  N  N44  1  0.91148242  0.21929275  0.33834246  1
  N  N45  1  0.77864601  0.10184254  0.13142907  1
  N  N46  1  0.52952623  0.22705841  0.83235340  1
  N  N47  1  0.44398900  0.09709431  0.61284891  1
  N  N48  1  0.24335631  0.55692136  0.32735900  1
  N  N49  1  0.11711290  0.43675893  0.11116845  1
  N  N50  1  0.89032149  0.53758856  0.87976867  1
  N  N51  1  0.76752551  0.41708715  0.59815361  1
  N  N52  1  0.56110847  0.53927429  0.34107650  1
  N  N53  1  0.45146038  0.43033492  0.08758420  1
  N  N54  1  0.22911665  0.54102681  0.83689649  1
  N  N55  1  0.10547194  0.42775818  0.64378121  1
  N  N56  1  0.88051431  0.53012485  0.41769448  1
  N  N57  1  0.78062954  0.43387921  0.08823122  1
  N  N58  1  0.55663234  0.53344012  0.84026362  1
  N  N59  1  0.44157483  0.42632490  0.58540010  1
  N  N60  1  0.21855011  0.87180403  0.37584657  1
  N  N61  1  0.11001051  0.75892777  0.07862463  1
  N  N62  1  0.90973029  0.84353383  0.83328027  1
  N  N63  1  0.77278118  0.75344103  0.64349659  1
  N  N64  1  0.53054454  0.87853533  0.41866496  1
  N  N65  1  0.47654923  0.74676198  0.07633567  1
  N  N66  1  0.22126286  0.87143746  0.84326103  1
  N  N67  1  0.10894573  0.75398740  0.59178974  1
  N  N68  1  0.91851511  0.84198411  0.32933301  1
  N  N69  1  0.78401889  0.76905709  0.10114260  1
  N  N70  1  0.55758308  0.87276662  0.86788400  1
  N  N71  1  0.43907618  0.74963875  0.60932760  1
