# generated using pymatgen
data_Gd5Al31N36
_symmetry_space_group_name_H-M   'P 1'
_cell_length_a   9.65353557
_cell_length_b   9.64652986
_cell_length_c   10.59909811
_cell_angle_alpha   91.07883802
_cell_angle_beta   90.98479854
_cell_angle_gamma   60.49664654
_symmetry_Int_Tables_number   1
_chemical_formula_structural   Gd5Al31N36
_chemical_formula_sum   'Gd5 Al31 N36'
_cell_volume   858.84316235
_cell_formula_units_Z   1
loop_
 _symmetry_equiv_pos_site_id
 _symmetry_equiv_pos_as_xyz
  1  'x, y, z'
loop_
 _atom_site_type_symbol
 _atom_site_label
 _atom_site_symmetry_multiplicity
 _atom_site_fract_x
 _atom_site_fract_y
 _atom_site_fract_z
 _atom_site_occupancy
  Al  Al0  1  0.11387184  0.08220747  0.40200458  1
  Al  Al1  1  0.22403983  0.21671326  0.03536032  1
  Al  Al2  1  0.89016394  0.20933353  0.62042564  1
  Al  Al3  1  0.43394963  0.09149516  0.31515179  1
  Al  Al4  1  0.54098485  0.21476732  0.05680158  1
  Al  Al5  1  0.11010155  0.09872962  0.85799254  1
  Al  Al6  1  0.23048500  0.20531247  0.56982339  1
  Al  Al7  1  0.88225721  0.21440654  0.06753808  1
  Al  Al8  1  0.43568434  0.09955852  0.80393256  1
  Al  Al9  1  0.54718622  0.21149861  0.55259417  1
  Al  Al10  1  0.22236192  0.53958569  0.05237889  1
  Al  Al11  1  0.77049249  0.43242941  0.86099455  1
  Al  Al12  1  0.89051877  0.54149173  0.57269729  1
  Al  Al13  1  0.44077299  0.43357395  0.30970582  1
  Al  Al14  1  0.56837925  0.53873313  0.12632653  1
  Al  Al15  1  0.11290720  0.43006594  0.80352099  1
  Al  Al16  1  0.22771602  0.54167546  0.56243407  1
  Al  Al17  1  0.77200403  0.42423989  0.39633025  1
  Al  Al18  1  0.89411121  0.54142401  0.03277104  1
  Al  Al19  1  0.43273519  0.43026985  0.80848941  1
  Al  Al20  1  0.55509833  0.54033111  0.63405375  1
  Al  Al21  1  0.11852288  0.75114375  0.31888218  1
  Al  Al22  1  0.78093190  0.75422764  0.80492100  1
  Al  Al23  1  0.89784673  0.86607270  0.55928405  1
  Al  Al24  1  0.43595801  0.75586690  0.39436604  1
  Al  Al25  1  0.56499813  0.87688807  0.04110009  1
  Al  Al26  1  0.11616906  0.75084355  0.80751464  1
  Al  Al27  1  0.22842739  0.87120186  0.63566828  1
  Al  Al28  1  0.89796617  0.85751049  0.04743965  1
  Al  Al29  1  0.44933654  0.75503794  0.87320092  1
  Al  Al30  1  0.55545679  0.87829258  0.56673270  1
  Gd  Gd31  1  0.76197793  0.08684573  0.81150020  1
  Gd  Gd32  1  0.77970625  0.09366595  0.31025588  1
  Gd  Gd33  1  0.11597960  0.41552232  0.30717140  1
  Gd  Gd34  1  0.22893132  0.88526633  0.12375755  1
  Gd  Gd35  1  0.76692696  0.75382785  0.30238593  1
  N  N36  1  0.23711739  0.18034184  0.39024232  1
  N  N37  1  0.09407223  0.12277577  0.03943023  1
  N  N38  1  0.89521858  0.21890674  0.80901227  1
  N  N39  1  0.77427108  0.09488011  0.59063594  1
  N  N40  1  0.52119840  0.22377978  0.37216130  1
  N  N41  1  0.43847474  0.09189751  0.11974860  1
  N  N42  1  0.22391164  0.21098072  0.85250946  1
  N  N43  1  0.11359144  0.08896210  0.58646909  1
  N  N44  1  0.90847422  0.21747729  0.34432300  1
  N  N45  1  0.77660795  0.09330349  0.07948655  1
  N  N46  1  0.51353677  0.22854805  0.88071043  1
  N  N47  1  0.44952378  0.09569334  0.62508188  1
  N  N48  1  0.24206827  0.54939292  0.38444973  1
  N  N49  1  0.10991784  0.42907293  0.08796961  1
  N  N50  1  0.89131158  0.53781575  0.85065425  1
  N  N51  1  0.76848788  0.42869994  0.58057300  1
  N  N52  1  0.56518220  0.54378235  0.31587129  1
  N  N53  1  0.43967812  0.42947727  0.12381723  1
  N  N54  1  0.22370030  0.54229165  0.86923535  1
  N  N55  1  0.11511356  0.42933853  0.61986321  1
  N  N56  1  0.88473983  0.53110866  0.39611749  1
  N  N57  1  0.77147688  0.43142851  0.04920307  1
  N  N58  1  0.55407489  0.54230242  0.81411801  1
  N  N59  1  0.44190581  0.42196319  0.62502725  1
  N  N60  1  0.22340894  0.87186937  0.33842780  1
  N  N61  1  0.09869627  0.74442291  0.13093138  1
  N  N62  1  0.91198192  0.83666766  0.87087508  1
  N  N63  1  0.77682651  0.76548598  0.62249844  1
  N  N64  1  0.53113576  0.88786474  0.38641910  1
  N  N65  1  0.47502256  0.74224290  0.05337751  1
  N  N66  1  0.22916585  0.87297474  0.82253768  1
  N  N67  1  0.11182142  0.75690402  0.62692723  1
  N  N68  1  0.91706978  0.84865480  0.38467924  1
  N  N69  1  0.77924038  0.75777005  0.08751586  1
  N  N70  1  0.55881947  0.88177016  0.85841832  1
  N  N71  1  0.44332255  0.75459401  0.57724198  1
