# generated using pymatgen
data_Gd5Al31N36
_symmetry_space_group_name_H-M   'P 1'
_cell_length_a   9.70855903
_cell_length_b   9.70697700
_cell_length_c   10.54301859
_cell_angle_alpha   91.12134816
_cell_angle_beta   90.80385548
_cell_angle_gamma   59.93366660
_symmetry_Int_Tables_number   1
_chemical_formula_structural   Gd5Al31N36
_chemical_formula_sum   'Gd5 Al31 N36'
_cell_volume   859.71666278
_cell_formula_units_Z   1
loop_
 _symmetry_equiv_pos_site_id
 _symmetry_equiv_pos_as_xyz
  1  'x, y, z'
loop_
 _atom_site_type_symbol
 _atom_site_label
 _atom_site_symmetry_multiplicity
 _atom_site_fract_x
 _atom_site_fract_y
 _atom_site_fract_z
 _atom_site_occupancy
  Al  Al0  1  0.11408566  0.08530239  0.40749139  1
  Al  Al1  1  0.22598868  0.21699293  0.05147456  1
  Al  Al2  1  0.89109205  0.21158129  0.64039753  1
  Al  Al3  1  0.43300444  0.08749762  0.32046540  1
  Al  Al4  1  0.54609263  0.20753369  0.08308613  1
  Al  Al5  1  0.10990647  0.09875208  0.87960905  1
  Al  Al6  1  0.22835348  0.19949298  0.58133042  1
  Al  Al7  1  0.89671422  0.22378395  0.13229419  1
  Al  Al8  1  0.43843768  0.09547672  0.81942097  1
  Al  Al9  1  0.54750583  0.20602249  0.57398937  1
  Al  Al10  1  0.22725269  0.54685306  0.13693729  1
  Al  Al11  1  0.77444738  0.43059210  0.88370177  1
  Al  Al12  1  0.88517443  0.53905942  0.58200279  1
  Al  Al13  1  0.43709403  0.44027285  0.38383892  1
  Al  Al14  1  0.56620407  0.53809399  0.13774969  1
  Al  Al15  1  0.10892758  0.42266179  0.81443333  1
  Al  Al16  1  0.22806992  0.53698369  0.64291856  1
  Al  Al17  1  0.77179599  0.42641418  0.39831216  1
  Al  Al18  1  0.89895128  0.54319393  0.04909432  1
  Al  Al19  1  0.43316859  0.43536909  0.89844362  1
  Al  Al20  1  0.55312102  0.53298993  0.64302165  1
  Al  Al21  1  0.12711995  0.75399964  0.40764745  1
  Al  Al22  1  0.77729278  0.75563621  0.81553368  1
  Al  Al23  1  0.88905205  0.86778479  0.58004598  1
  Al  Al24  1  0.43833483  0.75618692  0.40758849  1
  Al  Al25  1  0.56333753  0.87368311  0.05085365  1
  Al  Al26  1  0.12138776  0.74683126  0.88301230  1
  Al  Al27  1  0.22327240  0.86856362  0.64716994  1
  Al  Al28  1  0.88971998  0.86532439  0.05505361  1
  Al  Al29  1  0.44760030  0.75157546  0.88189899  1
  Al  Al30  1  0.55346743  0.87583013  0.57996192  1
  Gd  Gd31  1  0.76940116  0.10151941  0.84505618  1
  Gd  Gd32  1  0.77922927  0.09990575  0.33670693  1
  Gd  Gd33  1  0.11326084  0.41170226  0.32739284  1
  Gd  Gd34  1  0.22690694  0.87932191  0.14193235  1
  Gd  Gd35  1  0.76770486  0.75973759  0.31427276  1
  N  N36  1  0.24129415  0.17433912  0.40273077  1
  N  N37  1  0.09750855  0.12191478  0.06053710  1
  N  N38  1  0.90455031  0.22685983  0.81774837  1
  N  N39  1  0.77095010  0.09848277  0.61171062  1
  N  N40  1  0.51750862  0.22110905  0.36005748  1
  N  N41  1  0.43847565  0.08703553  0.13019500  1
  N  N42  1  0.22513220  0.20745907  0.86800575  1
  N  N43  1  0.10717326  0.08776401  0.59067194  1
  N  N44  1  0.91823979  0.22659604  0.31813814  1
  N  N45  1  0.78229677  0.09406970  0.10567913  1
  N  N46  1  0.51821924  0.21513948  0.89864784  1
  N  N47  1  0.44630428  0.09569081  0.63820728  1
  N  N48  1  0.23328246  0.56213967  0.31959762  1
  N  N49  1  0.11476895  0.43122996  0.10775576  1
  N  N50  1  0.89040362  0.53963254  0.86672727  1
  N  N51  1  0.76731025  0.42219163  0.58271305  1
  N  N52  1  0.55993381  0.53914989  0.32836942  1
  N  N53  1  0.44465452  0.43930142  0.08376660  1
  N  N54  1  0.22889943  0.53442707  0.82438558  1
  N  N55  1  0.10902106  0.42243650  0.62824818  1
  N  N56  1  0.87676624  0.53678523  0.40553233  1
  N  N57  1  0.77766287  0.43206921  0.07079286  1
  N  N58  1  0.55483780  0.52933403  0.82665504  1
  N  N59  1  0.43878004  0.43254630  0.57333866  1
  N  N60  1  0.22215422  0.87100437  0.35795908  1
  N  N61  1  0.11164332  0.74708081  0.06558234  1
  N  N62  1  0.89956322  0.84516354  0.87105446  1
  N  N63  1  0.77465293  0.76121107  0.63322073  1
  N  N64  1  0.53054191  0.88608875  0.39771185  1
  N  N65  1  0.47315925  0.74251275  0.06486667  1
  N  N66  1  0.22267947  0.87081049  0.83305660  1
  N  N67  1  0.12056569  0.75241078  0.59351161  1
  N  N68  1  0.90861097  0.85602026  0.40001672  1
  N  N69  1  0.77983338  0.76131553  0.09880444  1
  N  N70  1  0.55533938  0.87521477  0.86750093  1
  N  N71  1  0.44433155  0.75304630  0.59279042  1
