# generated using pymatgen
data_Gd5Al31N36
_symmetry_space_group_name_H-M   'P 1'
_cell_length_a   9.71918752
_cell_length_b   9.71519035
_cell_length_c   10.39292138
_cell_angle_alpha   90.04974742
_cell_angle_beta   90.54498192
_cell_angle_gamma   59.84402084
_symmetry_Int_Tables_number   1
_chemical_formula_structural   Gd5Al31N36
_chemical_formula_sum   'Gd5 Al31 N36'
_cell_volume   848.47824707
_cell_formula_units_Z   1
loop_
 _symmetry_equiv_pos_site_id
 _symmetry_equiv_pos_as_xyz
  1  'x, y, z'
loop_
 _atom_site_type_symbol
 _atom_site_label
 _atom_site_symmetry_multiplicity
 _atom_site_fract_x
 _atom_site_fract_y
 _atom_site_fract_z
 _atom_site_occupancy
  Al  Al0  1  0.11464346  0.09753411  0.31314220  1
  Al  Al1  1  0.22076175  0.21094223  0.05118547  1
  Al  Al2  1  0.89394675  0.20751724  0.55603353  1
  Al  Al3  1  0.43233239  0.09167430  0.31413995  1
  Al  Al4  1  0.54516089  0.21032803  0.05765659  1
  Al  Al5  1  0.11285301  0.10511290  0.81023480  1
  Al  Al6  1  0.22383751  0.20107019  0.56520854  1
  Al  Al7  1  0.89063536  0.22010543  0.05853274  1
  Al  Al8  1  0.43778313  0.09891708  0.80665980  1
  Al  Al9  1  0.54303999  0.21037126  0.55465959  1
  Al  Al10  1  0.21981959  0.53547344  0.05165365  1
  Al  Al11  1  0.78636994  0.42778933  0.80692899  1
  Al  Al12  1  0.88894880  0.53506972  0.56911484  1
  Al  Al13  1  0.44065394  0.43720959  0.31449706  1
  Al  Al14  1  0.56167957  0.53545725  0.10295105  1
  Al  Al15  1  0.11372047  0.42719575  0.80987406  1
  Al  Al16  1  0.22639142  0.54198547  0.56531712  1
  Al  Al17  1  0.77917561  0.42726423  0.31594338  1
  Al  Al18  1  0.88838531  0.53839204  0.04263760  1
  Al  Al19  1  0.43693080  0.42850693  0.80988561  1
  Al  Al20  1  0.55709718  0.53424072  0.61597916  1
  Al  Al21  1  0.11873455  0.75647585  0.31441019  1
  Al  Al22  1  0.78029302  0.75680470  0.80516760  1
  Al  Al23  1  0.89571068  0.86624195  0.56124394  1
  Al  Al24  1  0.42997002  0.76023247  0.39009159  1
  Al  Al25  1  0.56245235  0.87706725  0.04206734  1
  Al  Al26  1  0.11323301  0.74989700  0.80917614  1
  Al  Al27  1  0.22556495  0.86994230  0.63446311  1
  Al  Al28  1  0.89083873  0.85943789  0.04875056  1
  Al  Al29  1  0.45673886  0.75002040  0.86664579  1
  Al  Al30  1  0.55174583  0.87854021  0.56879207  1
  Gd  Gd31  1  0.77443277  0.10116231  0.81457762  1
  Gd  Gd32  1  0.77512464  0.09752993  0.31347522  1
  Gd  Gd33  1  0.11980709  0.42588613  0.31014043  1
  Gd  Gd34  1  0.21801457  0.87450971  0.08733973  1
  Gd  Gd35  1  0.76582485  0.75885972  0.30700584  1
  N  N36  1  0.23054951  0.18163781  0.38505793  1
  N  N37  1  0.09692742  0.13424883  0.12839797  1
  N  N38  1  0.90779519  0.22229549  0.87766208  1
  N  N39  1  0.77413739  0.09742376  0.58819124  1
  N  N40  1  0.51508564  0.22384767  0.37172455  1
  N  N41  1  0.44367660  0.09076080  0.12051715  1
  N  N42  1  0.22519690  0.20427192  0.86574933  1
  N  N43  1  0.10884027  0.09760533  0.62571962  1
  N  N44  1  0.90474660  0.21649393  0.37536681  1
  N  N45  1  0.78060504  0.09388826  0.08433172  1
  N  N46  1  0.52086302  0.22189499  0.87731734  1
  N  N47  1  0.44312603  0.09695965  0.62412382  1
  N  N48  1  0.24058470  0.55605716  0.38631340  1
  N  N49  1  0.10992129  0.42841179  0.08891693  1
  N  N50  1  0.88962315  0.53889391  0.85774704  1
  N  N51  1  0.78405335  0.42067147  0.62300458  1
  N  N52  1  0.55817116  0.54003463  0.34201347  1
  N  N53  1  0.44023024  0.42933338  0.12123941  1
  N  N54  1  0.22448586  0.53872095  0.86701645  1
  N  N55  1  0.11501294  0.42705258  0.61930348  1
  N  N56  1  0.88061544  0.52422168  0.39056596  1
  N  N57  1  0.78250852  0.43133296  0.12283432  1
  N  N58  1  0.56093448  0.53098009  0.82734791  1
  N  N59  1  0.44360540  0.42165153  0.62421748  1
  N  N60  1  0.22382609  0.87298040  0.32001358  1
  N  N61  1  0.09315497  0.73762967  0.12843999  1
  N  N62  1  0.90545077  0.84386644  0.86722778  1
  N  N63  1  0.77699815  0.76155382  0.61825528  1
  N  N64  1  0.52721513  0.88821545  0.38638522  1
  N  N65  1  0.47589636  0.74316230  0.05191251  1
  N  N66  1  0.22630587  0.87061241  0.83331223  1
  N  N67  1  0.11108224  0.75837851  0.62709072  1
  N  N68  1  0.91704913  0.85086670  0.38358135  1
  N  N69  1  0.77579961  0.75877305  0.08904885  1
  N  N70  1  0.55849491  0.87893325  0.85509931  1
  N  N71  1  0.43985112  0.75712532  0.58185614  1
