# generated using pymatgen
data_Gd5Al31N36
_symmetry_space_group_name_H-M   'P 1'
_cell_length_a   9.71598963
_cell_length_b   9.71730522
_cell_length_c   10.38115951
_cell_angle_alpha   90.04305249
_cell_angle_beta   90.55060438
_cell_angle_gamma   59.85222944
_symmetry_Int_Tables_number   1
_chemical_formula_structural   Gd5Al31N36
_chemical_formula_sum   'Gd5 Al31 N36'
_cell_volume   847.49257002
_cell_formula_units_Z   1
loop_
 _symmetry_equiv_pos_site_id
 _symmetry_equiv_pos_as_xyz
  1  'x, y, z'
loop_
 _atom_site_type_symbol
 _atom_site_label
 _atom_site_symmetry_multiplicity
 _atom_site_fract_x
 _atom_site_fract_y
 _atom_site_fract_z
 _atom_site_occupancy
  Al  Al0  1  0.11439880  0.09777453  0.31325281  1
  Al  Al1  1  0.22080938  0.21093711  0.05123289  1
  Al  Al2  1  0.89403735  0.20740649  0.55622866  1
  Al  Al3  1  0.43232949  0.09186956  0.31418343  1
  Al  Al4  1  0.54514843  0.21034336  0.05787558  1
  Al  Al5  1  0.11267514  0.10528992  0.81040728  1
  Al  Al6  1  0.22384219  0.20105048  0.56528730  1
  Al  Al7  1  0.89072623  0.22008762  0.05884839  1
  Al  Al8  1  0.43779119  0.09909214  0.80679560  1
  Al  Al9  1  0.54305116  0.21037820  0.55481557  1
  Al  Al10  1  0.21987665  0.53559972  0.05179481  1
  Al  Al11  1  0.78427468  0.42843305  0.80718644  1
  Al  Al12  1  0.88885462  0.53521831  0.56935753  1
  Al  Al13  1  0.44153425  0.43792551  0.31457638  1
  Al  Al14  1  0.56397274  0.53066235  0.07621356  1
  Al  Al15  1  0.11370279  0.42716833  0.81009608  1
  Al  Al16  1  0.22634510  0.54213082  0.56556002  1
  Al  Al17  1  0.77701732  0.42821827  0.31601542  1
  Al  Al18  1  0.88826562  0.53858703  0.04280352  1
  Al  Al19  1  0.43819603  0.42902698  0.80994509  1
  Al  Al20  1  0.55877736  0.53114153  0.59028357  1
  Al  Al21  1  0.11868592  0.75630600  0.31446727  1
  Al  Al22  1  0.78041570  0.75671202  0.80525994  1
  Al  Al23  1  0.89572244  0.86626794  0.56132328  1
  Al  Al24  1  0.42900217  0.76207265  0.39042954  1
  Al  Al25  1  0.56231812  0.87751424  0.04229461  1
  Al  Al26  1  0.11325922  0.74975514  0.80929386  1
  Al  Al27  1  0.22552399  0.86994062  0.63491151  1
  Al  Al28  1  0.89095125  0.85941637  0.04878702  1
  Al  Al29  1  0.45616025  0.75125378  0.86599415  1
  Al  Al30  1  0.55179878  0.87871082  0.56933888  1
  Gd  Gd31  1  0.77434721  0.10135922  0.81485389  1
  Gd  Gd32  1  0.77503714  0.09763635  0.31360572  1
  Gd  Gd33  1  0.11981077  0.42576958  0.31034525  1
  Gd  Gd34  1  0.21818181  0.87447717  0.08752435  1
  Gd  Gd35  1  0.76589305  0.75882870  0.30706038  1
  N  N36  1  0.23060314  0.18150748  0.38512068  1
  N  N37  1  0.09684904  0.13448950  0.12856024  1
  N  N38  1  0.90790353  0.22238058  0.87777714  1
  N  N39  1  0.77411105  0.09748582  0.58818254  1
  N  N40  1  0.51485880  0.22407871  0.37172397  1
  N  N41  1  0.44367091  0.09117831  0.12062397  1
  N  N42  1  0.22521710  0.20422945  0.86576267  1
  N  N43  1  0.10874421  0.09770844  0.62576602  1
  N  N44  1  0.90455616  0.21683755  0.37537711  1
  N  N45  1  0.78064429  0.09387281  0.08432985  1
  N  N46  1  0.52064066  0.22197451  0.87735976  1
  N  N47  1  0.44310347  0.09724920  0.62414457  1
  N  N48  1  0.24057731  0.55592394  0.38628221  1
  N  N49  1  0.10994168  0.42839941  0.08891650  1
  N  N50  1  0.88933059  0.53874586  0.85766179  1
  N  N51  1  0.78235768  0.42148820  0.62398981  1
  N  N52  1  0.55975747  0.53596955  0.36243431  1
  N  N53  1  0.44148261  0.43043400  0.12190848  1
  N  N54  1  0.22480563  0.53853211  0.86691833  1
  N  N55  1  0.11508521  0.42700023  0.61930016  1
  N  N56  1  0.88036115  0.52411754  0.39051025  1
  N  N57  1  0.77998282  0.43234602  0.12368090  1
  N  N58  1  0.56304233  0.52659071  0.84697975  1
  N  N59  1  0.44471063  0.42271094  0.62493450  1
  N  N60  1  0.22362561  0.87302107  0.32029766  1
  N  N61  1  0.09320697  0.73747427  0.12852191  1
  N  N62  1  0.90545115  0.84390588  0.86716281  1
  N  N63  1  0.77712439  0.76157326  0.61820305  1
  N  N64  1  0.52716214  0.88832063  0.38654243  1
  N  N65  1  0.47488833  0.74577034  0.05338849  1
  N  N66  1  0.22606733  0.87065713  0.83337247  1
  N  N67  1  0.11107905  0.75839514  0.62705750  1
  N  N68  1  0.91697704  0.85096549  0.38354985  1
  N  N69  1  0.77588734  0.75885165  0.08900990  1
  N  N70  1  0.55865538  0.87900743  0.85487633  1
  N  N71  1  0.43987677  0.75799785  0.58400835  1
