# generated using pymatgen
data_Gd5Al31N36
_symmetry_space_group_name_H-M   'P 1'
_cell_length_a   9.70736282
_cell_length_b   9.68648278
_cell_length_c   10.47649363
_cell_angle_alpha   90.50371175
_cell_angle_beta   90.59650714
_cell_angle_gamma   59.98331731
_symmetry_Int_Tables_number   1
_chemical_formula_structural   Gd5Al31N36
_chemical_formula_sum   'Gd5 Al31 N36'
_cell_volume   852.93054945
_cell_formula_units_Z   1
loop_
 _symmetry_equiv_pos_site_id
 _symmetry_equiv_pos_as_xyz
  1  'x, y, z'
loop_
 _atom_site_type_symbol
 _atom_site_label
 _atom_site_symmetry_multiplicity
 _atom_site_fract_x
 _atom_site_fract_y
 _atom_site_fract_z
 _atom_site_occupancy
  Al  Al0  1  0.11712518  0.09044822  0.33893448  1
  Al  Al1  1  0.21965868  0.21152017  0.04559072  1
  Al  Al2  1  0.88900289  0.20974796  0.56036509  1
  Al  Al3  1  0.43429727  0.08954747  0.31311719  1
  Al  Al4  1  0.54252975  0.21325933  0.05652886  1
  Al  Al5  1  0.11195715  0.10380801  0.80897229  1
  Al  Al6  1  0.22538672  0.20343615  0.56969541  1
  Al  Al7  1  0.89048538  0.21993912  0.05266725  1
  Al  Al8  1  0.43726451  0.09890900  0.80584019  1
  Al  Al9  1  0.54475157  0.21009661  0.55394498  1
  Al  Al10  1  0.21946519  0.53827161  0.05139784  1
  Al  Al11  1  0.78542370  0.42943817  0.80486864  1
  Al  Al12  1  0.88882942  0.53561643  0.56792157  1
  Al  Al13  1  0.43887937  0.43366311  0.31146848  1
  Al  Al14  1  0.56079803  0.54139169  0.12828231  1
  Al  Al15  1  0.11201765  0.43033231  0.80961881  1
  Al  Al16  1  0.22556662  0.54118832  0.56429726  1
  Al  Al17  1  0.78553438  0.42298051  0.31339932  1
  Al  Al18  1  0.88818857  0.53840315  0.04132626  1
  Al  Al19  1  0.43399783  0.42976349  0.80931765  1
  Al  Al20  1  0.55385519  0.53848039  0.63089862  1
  Al  Al21  1  0.11685985  0.75312989  0.31659439  1
  Al  Al22  1  0.77972671  0.75691362  0.80496378  1
  Al  Al23  1  0.89502321  0.86729753  0.56128872  1
  Al  Al24  1  0.43478434  0.75550002  0.39137094  1
  Al  Al25  1  0.56402407  0.87703735  0.04169471  1
  Al  Al26  1  0.11395968  0.75189172  0.80815703  1
  Al  Al27  1  0.22751781  0.86839596  0.63303968  1
  Al  Al28  1  0.89220081  0.86038844  0.04725227  1
  Al  Al29  1  0.45492770  0.75055877  0.87146391  1
  Al  Al30  1  0.55337836  0.87781034  0.56684868  1
  Gd  Gd31  1  0.77069756  0.09941940  0.81503271  1
  Gd  Gd32  1  0.77742121  0.09607203  0.30770825  1
  Gd  Gd33  1  0.12099106  0.41877871  0.30502722  1
  Gd  Gd34  1  0.22462173  0.87450225  0.10226365  1
  Gd  Gd35  1  0.76829140  0.75625216  0.30462068  1
  N  N36  1  0.23499562  0.18006772  0.39039773  1
  N  N37  1  0.09696493  0.13302034  0.11924474  1
  N  N38  1  0.90350508  0.22336042  0.87156374  1
  N  N39  1  0.77307864  0.09771676  0.59102123  1
  N  N40  1  0.51977668  0.22101516  0.37121243  1
  N  N41  1  0.44199448  0.09176166  0.12006104  1
  N  N42  1  0.22327416  0.20661898  0.86080946  1
  N  N43  1  0.10892171  0.09692856  0.62233864  1
  N  N44  1  0.90295917  0.21620297  0.38052815  1
  N  N45  1  0.77815340  0.09588347  0.08076439  1
  N  N46  1  0.51709157  0.22498149  0.87775297  1
  N  N47  1  0.44558950  0.09590956  0.62441468  1
  N  N48  1  0.23963775  0.55143183  0.38530563  1
  N  N49  1  0.10990441  0.42972785  0.08557057  1
  N  N50  1  0.88830684  0.53990505  0.85782981  1
  N  N51  1  0.78158268  0.42436037  0.62186687  1
  N  N52  1  0.55704014  0.54381167  0.31907606  1
  N  N53  1  0.43737854  0.43012491  0.12215415  1
  N  N54  1  0.22321174  0.54194460  0.86757784  1
  N  N55  1  0.11348402  0.42910975  0.62070857  1
  N  N56  1  0.88316890  0.52262588  0.39013288  1
  N  N57  1  0.78589203  0.42955641  0.12297161  1
  N  N58  1  0.55711100  0.53662647  0.81721268  1
  N  N59  1  0.44194944  0.42204625  0.62340528  1
  N  N60  1  0.22418591  0.86921455  0.33001137  1
  N  N61  1  0.09212519  0.74123611  0.13072308  1
  N  N62  1  0.90683665  0.84255575  0.86730383  1
  N  N63  1  0.77684230  0.76201157  0.61861755  1
  N  N64  1  0.52970844  0.88599140  0.38482061  1
  N  N65  1  0.48033617  0.73946910  0.05259448  1
  N  N66  1  0.22810335  0.87100655  0.82976620  1
  N  N67  1  0.11075737  0.75821787  0.62618380  1
  N  N68  1  0.91492782  0.85270749  0.38451886  1
  N  N69  1  0.77693081  0.75985307  0.08873637  1
  N  N70  1  0.55802894  0.87997179  0.85640764  1
  N  N71  1  0.44190040  0.75436087  0.57719126  1
