# generated using pymatgen
data_Gd5Al31N36
_symmetry_space_group_name_H-M   'P 1'
_cell_length_a   9.68206594
_cell_length_b   9.63852277
_cell_length_c   10.69247791
_cell_angle_alpha   90.86841397
_cell_angle_beta   91.27117165
_cell_angle_gamma   60.19627253
_symmetry_Int_Tables_number   1
_chemical_formula_structural   Gd5Al31N36
_chemical_formula_sum   'Gd5 Al31 N36'
_cell_volume   865.62787723
_cell_formula_units_Z   1
loop_
 _symmetry_equiv_pos_site_id
 _symmetry_equiv_pos_as_xyz
  1  'x, y, z'
loop_
 _atom_site_type_symbol
 _atom_site_label
 _atom_site_symmetry_multiplicity
 _atom_site_fract_x
 _atom_site_fract_y
 _atom_site_fract_z
 _atom_site_occupancy
  Al  Al0  1  0.11196433  0.08856025  0.40779095  1
  Al  Al1  1  0.23038447  0.21027583  0.05310044  1
  Al  Al2  1  0.89230018  0.21102629  0.63807646  1
  Al  Al3  1  0.43348574  0.09323640  0.32886109  1
  Al  Al4  1  0.55092537  0.20884059  0.07173261  1
  Al  Al5  1  0.10794511  0.09598707  0.88320624  1
  Al  Al6  1  0.22735848  0.20367641  0.57985442  1
  Al  Al7  1  0.89762836  0.21890223  0.13192018  1
  Al  Al8  1  0.43437045  0.09840663  0.81872749  1
  Al  Al9  1  0.54252682  0.21427270  0.56536090  1
  Al  Al10  1  0.23128173  0.53393281  0.09295050  1
  Al  Al11  1  0.77577189  0.42620534  0.88583626  1
  Al  Al12  1  0.88498272  0.53974938  0.58114344  1
  Al  Al13  1  0.44262854  0.43463537  0.31655055  1
  Al  Al14  1  0.57372180  0.53896796  0.13769973  1
  Al  Al15  1  0.10496630  0.42144254  0.81806646  1
  Al  Al16  1  0.21784989  0.54054117  0.64418976  1
  Al  Al17  1  0.77267423  0.42475312  0.39920930  1
  Al  Al18  1  0.89795527  0.54380399  0.04721828  1
  Al  Al19  1  0.43961603  0.42504709  0.82385242  1
  Al  Al20  1  0.55742083  0.53663253  0.64713922  1
  Al  Al21  1  0.12776817  0.75330268  0.41634551  1
  Al  Al22  1  0.77639153  0.75491301  0.81548897  1
  Al  Al23  1  0.88570851  0.86925051  0.57624665  1
  Al  Al24  1  0.43670456  0.75620842  0.41084898  1
  Al  Al25  1  0.56594544  0.87588057  0.05345063  1
  Al  Al26  1  0.11858399  0.75367321  0.88055502  1
  Al  Al27  1  0.22286043  0.87170396  0.64875298  1
  Al  Al28  1  0.88936617  0.86818568  0.05186300  1
  Al  Al29  1  0.44813814  0.75429811  0.88619875  1
  Al  Al30  1  0.55142952  0.87882418  0.58096864  1
  Gd  Gd31  1  0.76054611  0.09832171  0.82395461  1
  Gd  Gd32  1  0.77779489  0.09408571  0.33101273  1
  Gd  Gd33  1  0.11233471  0.41972178  0.32004429  1
  Gd  Gd34  1  0.23038295  0.87306099  0.14885383  1
  Gd  Gd35  1  0.76288985  0.75756590  0.31430191  1
  N  N36  1  0.23754242  0.18232190  0.40256192  1
  N  N37  1  0.09999865  0.11571629  0.06306208  1
  N  N38  1  0.90197146  0.22170383  0.81706370  1
  N  N39  1  0.77207168  0.09812929  0.60403156  1
  N  N40  1  0.51965448  0.22598070  0.38583786  1
  N  N41  1  0.44517147  0.08962381  0.13534922  1
  N  N42  1  0.22451162  0.20497820  0.87228127  1
  N  N43  1  0.10720888  0.09067293  0.58924951  1
  N  N44  1  0.91399576  0.22454157  0.31798544  1
  N  N45  1  0.78295539  0.09281677  0.10447200  1
  N  N46  1  0.51369691  0.22534322  0.89755034  1
  N  N47  1  0.44558680  0.09717425  0.63976765  1
  N  N48  1  0.23547483  0.55580505  0.35078367  1
  N  N49  1  0.11632374  0.42735233  0.10028361  1
  N  N50  1  0.88847759  0.53899540  0.86858900  1
  N  N51  1  0.76620330  0.42314199  0.58163766  1
  N  N52  1  0.56439835  0.54697099  0.32526762  1
  N  N53  1  0.45277782  0.42476548  0.13094821  1
  N  N54  1  0.21850813  0.53887339  0.83477429  1
  N  N55  1  0.10507301  0.42278442  0.63533939  1
  N  N56  1  0.88090347  0.53414224  0.40737323  1
  N  N57  1  0.78097058  0.42867132  0.07011841  1
  N  N58  1  0.55978271  0.53706718  0.82917441  1
  N  N59  1  0.44470917  0.41935118  0.63975149  1
  N  N60  1  0.21978885  0.87283039  0.36175704  1
  N  N61  1  0.11365463  0.74788422  0.06135674  1
  N  N62  1  0.89686651  0.84783069  0.87216125  1
  N  N63  1  0.77288164  0.76178217  0.63521023  1
  N  N64  1  0.52912739  0.88916447  0.40184253  1
  N  N65  1  0.47354712  0.74398572  0.06608192  1
  N  N66  1  0.22479938  0.87158704  0.83205057  1
  N  N67  1  0.11550967  0.75773101  0.59997463  1
  N  N68  1  0.90816090  0.85147490  0.40011940  1
  N  N69  1  0.78359597  0.75984660  0.10071646  1
  N  N70  1  0.55645972  0.87948130  0.87184207  1
  N  N71  1  0.44257041  0.75367154  0.59285812  1
