# generated using pymatgen
data_Gd5Al31N36
_symmetry_space_group_name_H-M   'P 1'
_cell_length_a   9.70560340
_cell_length_b   9.67981458
_cell_length_c   10.28881943
_cell_angle_alpha   89.99643744
_cell_angle_beta   90.26722200
_cell_angle_gamma   59.90156796
_symmetry_Int_Tables_number   1
_chemical_formula_structural   Gd5Al31N36
_chemical_formula_sum   'Gd5 Al31 N36'
_cell_volume   836.27236002
_cell_formula_units_Z   1
loop_
 _symmetry_equiv_pos_site_id
 _symmetry_equiv_pos_as_xyz
  1  'x, y, z'
loop_
 _atom_site_type_symbol
 _atom_site_label
 _atom_site_symmetry_multiplicity
 _atom_site_fract_x
 _atom_site_fract_y
 _atom_site_fract_z
 _atom_site_occupancy
  Al  Al0  1  0.11415496  0.09742238  0.31745366  1
  Al  Al1  1  0.22173977  0.20837438  0.05239631  1
  Al  Al2  1  0.89139904  0.21047370  0.55811306  1
  Al  Al3  1  0.43269978  0.09288617  0.31567610  1
  Al  Al4  1  0.54517579  0.21030906  0.05940850  1
  Al  Al5  1  0.11526847  0.09719015  0.80564432  1
  Al  Al6  1  0.22461141  0.20154283  0.56707416  1
  Al  Al7  1  0.89249536  0.21697660  0.05920143  1
  Al  Al8  1  0.43724375  0.09731220  0.81066666  1
  Al  Al9  1  0.54368985  0.21094510  0.55838940  1
  Al  Al10  1  0.22177539  0.53574402  0.05257709  1
  Al  Al11  1  0.77889536  0.43138901  0.81032712  1
  Al  Al12  1  0.88606425  0.53675601  0.57281181  1
  Al  Al13  1  0.44194926  0.43560703  0.31376401  1
  Al  Al14  1  0.56365823  0.53548609  0.06449756  1
  Al  Al15  1  0.11398988  0.42714847  0.81125908  1
  Al  Al16  1  0.22832455  0.54104642  0.56735406  1
  Al  Al17  1  0.77646753  0.42808100  0.31391814  1
  Al  Al18  1  0.89021220  0.53603246  0.04319675  1
  Al  Al19  1  0.43955461  0.43288130  0.81289988  1
  Al  Al20  1  0.55755352  0.53515312  0.56262189  1
  Al  Al21  1  0.11922436  0.75571342  0.31828723  1
  Al  Al22  1  0.77865651  0.75665079  0.81054463  1
  Al  Al23  1  0.89414333  0.86573820  0.56348057  1
  Al  Al24  1  0.44508357  0.75860781  0.32004129  1
  Al  Al25  1  0.55864726  0.87062970  0.05129541  1
  Al  Al26  1  0.11733630  0.75537237  0.80391634  1
  Al  Al27  1  0.22216620  0.87198032  0.56420925  1
  Al  Al28  1  0.89310203  0.85928111  0.04828172  1
  Al  Al29  1  0.44571961  0.75851618  0.80540203  1
  Al  Al30  1  0.54962616  0.87554212  0.56864280  1
  Gd  Gd31  1  0.77441833  0.10086143  0.81586095  1
  Gd  Gd32  1  0.77545623  0.09705321  0.31494797  1
  Gd  Gd33  1  0.11684629  0.42731563  0.31285777  1
  Gd  Gd34  1  0.22320680  0.87070088  0.07061168  1
  Gd  Gd35  1  0.76653625  0.75943177  0.30590658  1
  N  N36  1  0.23097991  0.18262872  0.38543593  1
  N  N37  1  0.10040626  0.12548929  0.13176573  1
  N  N38  1  0.90825726  0.22212247  0.87631515  1
  N  N39  1  0.77408751  0.09758732  0.58848195  1
  N  N40  1  0.51624805  0.22315324  0.37371278  1
  N  N41  1  0.44369486  0.09096623  0.12215273  1
  N  N42  1  0.22327085  0.20272024  0.86530252  1
  N  N43  1  0.10959746  0.09462727  0.61980813  1
  N  N44  1  0.90323042  0.21847718  0.37556297  1
  N  N45  1  0.78055229  0.09294841  0.08442843  1
  N  N46  1  0.51955148  0.22318948  0.87782783  1
  N  N47  1  0.44418714  0.09549237  0.62607741  1
  N  N48  1  0.24178019  0.55307881  0.38606533  1
  N  N49  1  0.11121201  0.42739513  0.08960172  1
  N  N50  1  0.88960817  0.53729826  0.85753797  1
  N  N51  1  0.77492750  0.42541344  0.62583425  1
  N  N52  1  0.55970326  0.53388446  0.37329035  1
  N  N53  1  0.44316632  0.43151917  0.12253344  1
  N  N54  1  0.22410406  0.54168095  0.86575011  1
  N  N55  1  0.11457610  0.42773789  0.61924751  1
  N  N56  1  0.87578368  0.52623760  0.39204670  1
  N  N57  1  0.78018007  0.43069860  0.12255088  1
  N  N58  1  0.55731656  0.53804937  0.87356549  1
  N  N59  1  0.44834245  0.42672255  0.62618250  1
  N  N60  1  0.22148577  0.87342125  0.36192979  1
  N  N61  1  0.09663196  0.74093156  0.13178474  1
  N  N62  1  0.90787545  0.84271797  0.86507781  1
  N  N63  1  0.77447719  0.76319135  0.62100534  1
  N  N64  1  0.52554218  0.88614777  0.38660147  1
  N  N65  1  0.47908664  0.74648991  0.13319973  1
  N  N66  1  0.22326791  0.87246219  0.85027318  1
  N  N67  1  0.11336044  0.76124109  0.62070920  1
  N  N68  1  0.91618330  0.84999023  0.38412175  1
  N  N69  1  0.77808528  0.75732752  0.08596692  1
  N  N70  1  0.55170432  0.87365150  0.86375234  1
  N  N71  1  0.44554817  0.75664250  0.61882476  1
