# generated using pymatgen
data_Gd5Al31N36
_symmetry_space_group_name_H-M   'P 1'
_cell_length_a   9.67357451
_cell_length_b   9.65922091
_cell_length_c   10.59642877
_cell_angle_alpha   90.88543506
_cell_angle_beta   90.94945390
_cell_angle_gamma   60.36939482
_symmetry_Int_Tables_number   1
_chemical_formula_structural   Gd5Al31N36
_chemical_formula_sum   'Gd5 Al31 N36'
_cell_volume   860.49629103
_cell_formula_units_Z   1
loop_
 _symmetry_equiv_pos_site_id
 _symmetry_equiv_pos_as_xyz
  1  'x, y, z'
loop_
 _atom_site_type_symbol
 _atom_site_label
 _atom_site_symmetry_multiplicity
 _atom_site_fract_x
 _atom_site_fract_y
 _atom_site_fract_z
 _atom_site_occupancy
  Al  Al0  1  0.12073918  0.07850018  0.40363450  1
  Al  Al1  1  0.22655255  0.21543602  0.03746158  1
  Al  Al2  1  0.88920781  0.20331441  0.57358726  1
  Al  Al3  1  0.43361953  0.09227596  0.31327307  1
  Al  Al4  1  0.54445071  0.21404018  0.05548766  1
  Al  Al5  1  0.11590272  0.09511853  0.86134883  1
  Al  Al6  1  0.23002059  0.20623543  0.57068569  1
  Al  Al7  1  0.88191145  0.21568609  0.03404980  1
  Al  Al8  1  0.43724570  0.09892976  0.80370739  1
  Al  Al9  1  0.54635082  0.21068510  0.55127622  1
  Al  Al10  1  0.22253559  0.53899926  0.05224299  1
  Al  Al11  1  0.77366828  0.43413460  0.84172259  1
  Al  Al12  1  0.89121941  0.54245873  0.57604967  1
  Al  Al13  1  0.43841949  0.43330696  0.30920400  1
  Al  Al14  1  0.57167919  0.53711934  0.12747963  1
  Al  Al15  1  0.11509047  0.42917699  0.80475508  1
  Al  Al16  1  0.22673950  0.54183902  0.56207259  1
  Al  Al17  1  0.76469573  0.43329342  0.40133867  1
  Al  Al18  1  0.89194273  0.53933081  0.03258673  1
  Al  Al19  1  0.43339613  0.42924471  0.80841060  1
  Al  Al20  1  0.55131711  0.54209903  0.63438035  1
  Al  Al21  1  0.11514908  0.75164957  0.31717290  1
  Al  Al22  1  0.78088518  0.75653980  0.80522088  1
  Al  Al23  1  0.89626159  0.86590885  0.55742865  1
  Al  Al24  1  0.43312099  0.75715396  0.39500562  1
  Al  Al25  1  0.56578045  0.87686581  0.04054528  1
  Al  Al26  1  0.11576941  0.75031840  0.80734378  1
  Al  Al27  1  0.22848716  0.87104280  0.63811649  1
  Al  Al28  1  0.89689783  0.85910591  0.04648409  1
  Al  Al29  1  0.45121632  0.75309997  0.87491442  1
  Al  Al30  1  0.55464101  0.87857325  0.56635249  1
  Gd  Gd31  1  0.76459494  0.08881381  0.80709472  1
  Gd  Gd32  1  0.78090097  0.09836821  0.30465438  1
  Gd  Gd33  1  0.11136113  0.41856177  0.30528428  1
  Gd  Gd34  1  0.23008540  0.88108105  0.12207567  1
  Gd  Gd35  1  0.76370785  0.75515034  0.30052059  1
  N  N36  1  0.23569785  0.18288181  0.38883823  1
  N  N37  1  0.10068093  0.12020012  0.04686694  1
  N  N38  1  0.89494720  0.21553627  0.84444898  1
  N  N39  1  0.77263375  0.09362290  0.58968408  1
  N  N40  1  0.52376595  0.22142793  0.37057225  1
  N  N41  1  0.44194593  0.09175871  0.11970261  1
  N  N42  1  0.22565261  0.20988242  0.85327777  1
  N  N43  1  0.11727711  0.08713569  0.59013437  1
  N  N44  1  0.90199148  0.21612869  0.38751155  1
  N  N45  1  0.77895533  0.09404229  0.07856633  1
  N  N46  1  0.51582887  0.22693535  0.87908947  1
  N  N47  1  0.44903273  0.09592591  0.62418311  1
  N  N48  1  0.23885075  0.54905813  0.38347000  1
  N  N49  1  0.11067259  0.42898695  0.08648876  1
  N  N50  1  0.89259486  0.53859394  0.84852136  1
  N  N51  1  0.76919252  0.43087760  0.59328680  1
  N  N52  1  0.56150738  0.54390238  0.32011299  1
  N  N53  1  0.44070198  0.42952938  0.12383420  1
  N  N54  1  0.22467298  0.54166209  0.86881453  1
  N  N55  1  0.11584188  0.42948703  0.62055368  1
  N  N56  1  0.88151795  0.53313874  0.39879696  1
  N  N57  1  0.77541776  0.43256299  0.06080094  1
  N  N58  1  0.55304025  0.54195509  0.81420518  1
  N  N59  1  0.44165288  0.42171854  0.62371998  1
  N  N60  1  0.22055607  0.87205223  0.33780223  1
  N  N61  1  0.09739916  0.74319403  0.13067463  1
  N  N62  1  0.91167125  0.83811581  0.86961514  1
  N  N63  1  0.77610242  0.76673033  0.62220524  1
  N  N64  1  0.52836964  0.88841702  0.38571656  1
  N  N65  1  0.47739357  0.74158138  0.05448073  1
  N  N66  1  0.23035867  0.87029811  0.82450001  1
  N  N67  1  0.11099517  0.75769597  0.62598409  1
  N  N68  1  0.91203438  0.85278411  0.38163894  1
  N  N69  1  0.77997615  0.75783131  0.08593212  1
  N  N70  1  0.55868296  0.88081211  0.85766287  1
  N  N71  1  0.44194720  0.75557717  0.57738882  1
