# generated using pymatgen
data_Gd5Al31N36
_symmetry_space_group_name_H-M   'P 1'
_cell_length_a   9.76029518
_cell_length_b   9.69998221
_cell_length_c   10.29440564
_cell_angle_alpha   90.43459179
_cell_angle_beta   90.16681747
_cell_angle_gamma   59.76530597
_symmetry_Int_Tables_number   1
_chemical_formula_structural   Gd5Al31N36
_chemical_formula_sum   'Gd5 Al31 N36'
_cell_volume   842.01751054
_cell_formula_units_Z   1
loop_
 _symmetry_equiv_pos_site_id
 _symmetry_equiv_pos_as_xyz
  1  'x, y, z'
loop_
 _atom_site_type_symbol
 _atom_site_label
 _atom_site_symmetry_multiplicity
 _atom_site_fract_x
 _atom_site_fract_y
 _atom_site_fract_z
 _atom_site_occupancy
  Al  Al0  1  0.11421298  0.09579381  0.40959176  1
  Al  Al1  1  0.22224540  0.20331852  0.13929144  1
  Al  Al2  1  0.89067174  0.20698402  0.65457850  1
  Al  Al3  1  0.42868356  0.08968382  0.39169116  1
  Al  Al4  1  0.54042505  0.21188510  0.15033476  1
  Al  Al5  1  0.11260409  0.09971431  0.89283372  1
  Al  Al6  1  0.22220294  0.20425410  0.65550637  1
  Al  Al7  1  0.89137031  0.21904845  0.15141574  1
  Al  Al8  1  0.43794739  0.09544040  0.89727489  1
  Al  Al9  1  0.54481087  0.20681375  0.64768476  1
  Al  Al10  1  0.22798867  0.54369914  0.13889924  1
  Al  Al11  1  0.77667743  0.42896285  0.89745604  1
  Al  Al12  1  0.88975068  0.53000200  0.59543131  1
  Al  Al13  1  0.44253758  0.43772040  0.39464512  1
  Al  Al14  1  0.56345567  0.53451981  0.14550473  1
  Al  Al15  1  0.12027501  0.42395344  0.89526594  1
  Al  Al16  1  0.22440757  0.53505937  0.65583720  1
  Al  Al17  1  0.77254395  0.42585739  0.40364752  1
  Al  Al18  1  0.88760664  0.54681810  0.08026177  1
  Al  Al19  1  0.44064746  0.43020135  0.89657764  1
  Al  Al20  1  0.55527775  0.53297522  0.65044511  1
  Al  Al21  1  0.12554902  0.76012108  0.40929082  1
  Al  Al22  1  0.77932400  0.75402834  0.85422216  1
  Al  Al23  1  0.89607006  0.86450679  0.65574432  1
  Al  Al24  1  0.44313718  0.75790913  0.40796632  1
  Al  Al25  1  0.55489568  0.87049906  0.13993868  1
  Al  Al26  1  0.11609736  0.75364310  0.89294456  1
  Al  Al27  1  0.22351684  0.87087123  0.64500418  1
  Al  Al28  1  0.89648419  0.86451986  0.14841011  1
  Al  Al29  1  0.44834573  0.75582357  0.89335935  1
  Al  Al30  1  0.54890606  0.87281328  0.65366082  1
  Gd  Gd31  1  0.77357392  0.09746475  0.89918167  1
  Gd  Gd32  1  0.77253181  0.10613180  0.38803348  1
  Gd  Gd33  1  0.13324873  0.42311806  0.38158469  1
  Gd  Gd34  1  0.22431292  0.87373063  0.15847935  1
  Gd  Gd35  1  0.76435071  0.77849576  0.38934136  1
  N  N36  1  0.22707501  0.17398398  0.32258480  1
  N  N37  1  0.09616556  0.12037010  0.07526585  1
  N  N38  1  0.90183380  0.22047670  0.83432495  1
  N  N39  1  0.77667418  0.09088836  0.61821848  1
  N  N40  1  0.50674450  0.22533311  0.33414446  1
  N  N41  1  0.44359344  0.09315567  0.08271767  1
  N  N42  1  0.22460464  0.20329153  0.84084175  1
  N  N43  1  0.10947586  0.09823275  0.59681681  1
  N  N44  1  0.90800026  0.22098131  0.33568262  1
  N  N45  1  0.77288463  0.10116845  0.12610354  1
  N  N46  1  0.52152619  0.21963646  0.83073042  1
  N  N47  1  0.44147520  0.08918169  0.58385630  1
  N  N48  1  0.24514267  0.56763268  0.32099189  1
  N  N49  1  0.11996917  0.42695808  0.09700960  1
  N  N50  1  0.89265622  0.53716778  0.88695124  1
  N  N51  1  0.77028224  0.41950249  0.59344440  1
  N  N52  1  0.56118940  0.53532044  0.33827523  1
  N  N53  1  0.44919661  0.42743985  0.08338362  1
  N  N54  1  0.22681949  0.53620091  0.84073936  1
  N  N55  1  0.11590666  0.42359055  0.61035736  1
  N  N56  1  0.88088102  0.53038052  0.40309240  1
  N  N57  1  0.77599174  0.42843774  0.08743876  1
  N  N58  1  0.55749872  0.53284622  0.83666394  1
  N  N59  1  0.44155698  0.42770849  0.58507809  1
  N  N60  1  0.22452504  0.87534531  0.38037908  1
  N  N61  1  0.10080008  0.75177847  0.07326655  1
  N  N62  1  0.90584584  0.84486074  0.83630993  1
  N  N63  1  0.77548243  0.75755793  0.62537536  1
  N  N64  1  0.51695038  0.88075617  0.32442216  1
  N  N65  1  0.47099301  0.74395758  0.07571945  1
  N  N66  1  0.22345492  0.87141229  0.83890851  1
  N  N67  1  0.11328984  0.75418294  0.59607501  1
  N  N68  1  0.93109798  0.85786650  0.32917197  1
  N  N69  1  0.77556331  0.76686156  0.11519945  1
  N  N70  1  0.55158262  0.87424894  0.83935630  1
  N  N71  1  0.45022715  0.75434842  0.59610616  1
