# generated using pymatgen
data_Gd5Al31N36
_symmetry_space_group_name_H-M   'P 1'
_cell_length_a   9.67994347
_cell_length_b   9.63369610
_cell_length_c   10.66515395
_cell_angle_alpha   91.05138020
_cell_angle_beta   91.38814539
_cell_angle_gamma   60.15243298
_symmetry_Int_Tables_number   1
_chemical_formula_structural   Gd5Al31N36
_chemical_formula_sum   'Gd5 Al31 N36'
_cell_volume   862.36207946
_cell_formula_units_Z   1
loop_
 _symmetry_equiv_pos_site_id
 _symmetry_equiv_pos_as_xyz
  1  'x, y, z'
loop_
 _atom_site_type_symbol
 _atom_site_label
 _atom_site_symmetry_multiplicity
 _atom_site_fract_x
 _atom_site_fract_y
 _atom_site_fract_z
 _atom_site_occupancy
  Al  Al0  1  0.11539860  0.08441068  0.41038196  1
  Al  Al1  1  0.22682545  0.21543809  0.05267396  1
  Al  Al2  1  0.89361669  0.21042443  0.63729786  1
  Al  Al3  1  0.43435618  0.08923859  0.32532107  1
  Al  Al4  1  0.55208010  0.20478949  0.07655434  1
  Al  Al5  1  0.10559414  0.09595827  0.88247526  1
  Al  Al6  1  0.22997078  0.20156481  0.58233306  1
  Al  Al7  1  0.89624928  0.22044208  0.13313457  1
  Al  Al8  1  0.43275283  0.09913005  0.81862500  1
  Al  Al9  1  0.54132609  0.21612641  0.55908955  1
  Al  Al10  1  0.21946587  0.54996342  0.13144445  1
  Al  Al11  1  0.77565698  0.42493906  0.88591330  1
  Al  Al12  1  0.88574457  0.53949963  0.58372113  1
  Al  Al13  1  0.44543971  0.43418116  0.32245431  1
  Al  Al14  1  0.57278662  0.54088255  0.13501660  1
  Al  Al15  1  0.10589442  0.42260954  0.81682906  1
  Al  Al16  1  0.22907739  0.53577459  0.64978465  1
  Al  Al17  1  0.77241375  0.42413967  0.40213413  1
  Al  Al18  1  0.89847407  0.54491231  0.04698384  1
  Al  Al19  1  0.43254959  0.43621888  0.88453476  1
  Al  Al20  1  0.55352477  0.53190654  0.64841393  1
  Al  Al21  1  0.13178721  0.74678276  0.40882763  1
  Al  Al22  1  0.77717900  0.75569333  0.81633273  1
  Al  Al23  1  0.89152680  0.86345035  0.57228240  1
  Al  Al24  1  0.43966535  0.75509129  0.41306672  1
  Al  Al25  1  0.56449608  0.87740503  0.05114146  1
  Al  Al26  1  0.11739189  0.75317750  0.88482687  1
  Al  Al27  1  0.22470081  0.86765052  0.64775283  1
  Al  Al28  1  0.88645115  0.87411884  0.05233753  1
  Al  Al29  1  0.44680648  0.75520500  0.88437116  1
  Al  Al30  1  0.55461478  0.87779520  0.58233706  1
  Gd  Gd31  1  0.75219152  0.10046000  0.81430421  1
  Gd  Gd32  1  0.78313597  0.09255952  0.33724231  1
  Gd  Gd33  1  0.10913812  0.41254318  0.32467596  1
  Gd  Gd34  1  0.23025217  0.87746686  0.14808784  1
  Gd  Gd35  1  0.76340004  0.75526514  0.31063170  1
  N  N36  1  0.24187474  0.17652141  0.40474928  1
  N  N37  1  0.09758166  0.11905173  0.06220130  1
  N  N38  1  0.89844895  0.21937117  0.81691830  1
  N  N39  1  0.77491651  0.09624652  0.59446379  1
  N  N40  1  0.51916725  0.22357485  0.37657995  1
  N  N41  1  0.44187250  0.08944064  0.13510504  1
  N  N42  1  0.22208166  0.20632644  0.87106653  1
  N  N43  1  0.10943646  0.08839246  0.59123782  1
  N  N44  1  0.91859463  0.22478360  0.31975498  1
  N  N45  1  0.78118197  0.09552314  0.11084512  1
  N  N46  1  0.51432197  0.21900110  0.90221242  1
  N  N47  1  0.44927063  0.09761044  0.63961395  1
  N  N48  1  0.23035560  0.56266459  0.31240646  1
  N  N49  1  0.11297628  0.43036800  0.10617862  1
  N  N50  1  0.88864955  0.53835052  0.86732461  1
  N  N51  1  0.76675313  0.42359569  0.58478533  1
  N  N52  1  0.56467091  0.54397547  0.32439659  1
  N  N53  1  0.44940384  0.43289977  0.10819597  1
  N  N54  1  0.22063088  0.53961876  0.83169418  1
  N  N55  1  0.10805493  0.42223283  0.63369684  1
  N  N56  1  0.87819941  0.53534507  0.40922899  1
  N  N57  1  0.78102516  0.43021341  0.07055259  1
  N  N58  1  0.55583724  0.53310676  0.83315520  1
  N  N59  1  0.44181082  0.42678572  0.60810428  1
  N  N60  1  0.22346089  0.86919433  0.36225348  1
  N  N61  1  0.11022039  0.75263564  0.06409897  1
  N  N62  1  0.89502325  0.85249031  0.87190928  1
  N  N63  1  0.77602030  0.76208601  0.63568573  1
  N  N64  1  0.53232771  0.88695514  0.40192516  1
  N  N65  1  0.47284466  0.74616818  0.06520093  1
  N  N66  1  0.22328621  0.87050034  0.83190971  1
  N  N67  1  0.12178511  0.75016862  0.59247138  1
  N  N68  1  0.91242369  0.84463285  0.39526595  1
  N  N69  1  0.78179141  0.76283738  0.09719504  1
  N  N70  1  0.55522426  0.87907348  0.86927248  1
  N  N71  1  0.44607252  0.75313241  0.59557417  1
