# generated using pymatgen
data_Gd5Al31N36
_symmetry_space_group_name_H-M   'P 1'
_cell_length_a   9.69550509
_cell_length_b   9.69213338
_cell_length_c   10.46974643
_cell_angle_alpha   90.17309751
_cell_angle_beta   90.53269495
_cell_angle_gamma   59.88431572
_symmetry_Int_Tables_number   1
_chemical_formula_structural   Gd5Al31N36
_chemical_formula_sum   'Gd5 Al31 N36'
_cell_volume   851.00011395
_cell_formula_units_Z   1
loop_
 _symmetry_equiv_pos_site_id
 _symmetry_equiv_pos_as_xyz
  1  'x, y, z'
loop_
 _atom_site_type_symbol
 _atom_site_label
 _atom_site_symmetry_multiplicity
 _atom_site_fract_x
 _atom_site_fract_y
 _atom_site_fract_z
 _atom_site_occupancy
  Al  Al0  1  0.11486302  0.09785175  0.31214121  1
  Al  Al1  1  0.22031503  0.21131376  0.05081813  1
  Al  Al2  1  0.89367459  0.20699861  0.55609891  1
  Al  Al3  1  0.43290160  0.09185485  0.31366419  1
  Al  Al4  1  0.54462304  0.21187129  0.05725768  1
  Al  Al5  1  0.11327343  0.10464025  0.80934633  1
  Al  Al6  1  0.22406665  0.20089843  0.56489131  1
  Al  Al7  1  0.88904142  0.22205065  0.05779697  1
  Al  Al8  1  0.43795952  0.09791873  0.80649549  1
  Al  Al9  1  0.54418558  0.20953827  0.55514810  1
  Al  Al10  1  0.22013564  0.53521697  0.05193259  1
  Al  Al11  1  0.78810725  0.42725864  0.80623129  1
  Al  Al12  1  0.88922721  0.53447551  0.56917686  1
  Al  Al13  1  0.43948125  0.43517865  0.31304195  1
  Al  Al14  1  0.55835042  0.54349241  0.12988739  1
  Al  Al15  1  0.11376800  0.42722335  0.80996100  1
  Al  Al16  1  0.22697925  0.54119126  0.56536642  1
  Al  Al17  1  0.78430498  0.42477269  0.31413829  1
  Al  Al18  1  0.88761182  0.53848031  0.04229240  1
  Al  Al19  1  0.43587252  0.42803077  0.80992831  1
  Al  Al20  1  0.55531507  0.53719644  0.63009502  1
  Al  Al21  1  0.11903196  0.75629883  0.31398085  1
  Al  Al22  1  0.77961105  0.75689748  0.80524261  1
  Al  Al23  1  0.89575095  0.86570004  0.56109839  1
  Al  Al24  1  0.42961547  0.76085923  0.38755553  1
  Al  Al25  1  0.56147952  0.87723746  0.04284577  1
  Al  Al26  1  0.11337482  0.74976827  0.80857200  1
  Al  Al27  1  0.22700309  0.86858946  0.63397256  1
  Al  Al28  1  0.89006031  0.85973469  0.04817091  1
  Al  Al29  1  0.45739233  0.74834123  0.87100252  1
  Al  Al30  1  0.55228610  0.87726284  0.56674748  1
  Gd  Gd31  1  0.77460677  0.10053227  0.81397571  1
  Gd  Gd32  1  0.77640129  0.09579428  0.31155983  1
  Gd  Gd33  1  0.12034068  0.42605214  0.30850113  1
  Gd  Gd34  1  0.21547574  0.87563327  0.08585962  1
  Gd  Gd35  1  0.76715857  0.75750665  0.30560376  1
  N  N36  1  0.23069669  0.18229593  0.38523720  1
  N  N37  1  0.09591668  0.13525178  0.12875086  1
  N  N38  1  0.90761531  0.22237531  0.87768954  1
  N  N39  1  0.77477709  0.09643671  0.58913830  1
  N  N40  1  0.51720812  0.22323462  0.37302653  1
  N  N41  1  0.44322317  0.09142047  0.12100547  1
  N  N42  1  0.22515980  0.20421311  0.86607119  1
  N  N43  1  0.10932013  0.09684966  0.62571732  1
  N  N44  1  0.90453885  0.21574754  0.37624222  1
  N  N45  1  0.78046561  0.09434744  0.08400069  1
  N  N46  1  0.52100723  0.22191348  0.87765891  1
  N  N47  1  0.44368635  0.09541954  0.62442566  1
  N  N48  1  0.24164987  0.55611387  0.38734856  1
  N  N49  1  0.10913977  0.42889273  0.08862516  1
  N  N50  1  0.88966481  0.53919645  0.85827715  1
  N  N51  1  0.78425493  0.42024388  0.62275258  1
  N  N52  1  0.55598412  0.54645154  0.31930345  1
  N  N53  1  0.43818423  0.42876867  0.12284137  1
  N  N54  1  0.22425538  0.53922538  0.86798473  1
  N  N55  1  0.11518748  0.42666200  0.62025279  1
  N  N56  1  0.88164021  0.52372208  0.39166154  1
  N  N57  1  0.78387751  0.43197726  0.12352630  1
  N  N58  1  0.55910534  0.53506632  0.81734190  1
  N  N59  1  0.44353779  0.42073314  0.62473952  1
  N  N60  1  0.22387125  0.87340783  0.31742075  1
  N  N61  1  0.09180609  0.73771580  0.12954352  1
  N  N62  1  0.90567180  0.84360064  0.86786436  1
  N  N63  1  0.77665477  0.76113060  0.61914295  1
  N  N64  1  0.52858434  0.88822423  0.38546710  1
  N  N65  1  0.47538304  0.74142855  0.05298299  1
  N  N66  1  0.22758201  0.86994659  0.83238488  1
  N  N67  1  0.11109360  0.75776505  0.62762954  1
  N  N68  1  0.91748474  0.84997039  0.38447850  1
  N  N69  1  0.77500690  0.75927745  0.08922109  1
  N  N70  1  0.55807866  0.87858128  0.85693265  1
  N  N71  1  0.44011541  0.75428142  0.57576330  1
