# generated using pymatgen
data_Gd5Al31N36
_symmetry_space_group_name_H-M   'P 1'
_cell_length_a   9.71134630
_cell_length_b   9.71120346
_cell_length_c   10.53530341
_cell_angle_alpha   91.10663713
_cell_angle_beta   90.72220582
_cell_angle_gamma   59.93925525
_symmetry_Int_Tables_number   1
_chemical_formula_structural   Gd5Al31N36
_chemical_formula_sum   'Gd5 Al31 N36'
_cell_volume   859.76648728
_cell_formula_units_Z   1
loop_
 _symmetry_equiv_pos_site_id
 _symmetry_equiv_pos_as_xyz
  1  'x, y, z'
loop_
 _atom_site_type_symbol
 _atom_site_label
 _atom_site_symmetry_multiplicity
 _atom_site_fract_x
 _atom_site_fract_y
 _atom_site_fract_z
 _atom_site_occupancy
  Al  Al0  1  0.11473269  0.08545860  0.40716435  1
  Al  Al1  1  0.22587526  0.21659354  0.05097466  1
  Al  Al2  1  0.89129887  0.21161476  0.64117136  1
  Al  Al3  1  0.43237229  0.08750808  0.31789453  1
  Al  Al4  1  0.54511748  0.20963619  0.09929642  1
  Al  Al5  1  0.10984958  0.09906185  0.87942849  1
  Al  Al6  1  0.22793916  0.19967924  0.58114666  1
  Al  Al7  1  0.89669276  0.22343123  0.13303453  1
  Al  Al8  1  0.43830491  0.09460561  0.82021806  1
  Al  Al9  1  0.54889446  0.20737727  0.59576271  1
  Al  Al10  1  0.22731515  0.54680741  0.13673255  1
  Al  Al11  1  0.77428528  0.43118868  0.88331372  1
  Al  Al12  1  0.88521234  0.53892488  0.58194591  1
  Al  Al13  1  0.43791308  0.43798004  0.38125668  1
  Al  Al14  1  0.56597962  0.53800721  0.13716065  1
  Al  Al15  1  0.10901701  0.42272264  0.81458507  1
  Al  Al16  1  0.22733327  0.53708441  0.64261580  1
  Al  Al17  1  0.77184741  0.42686025  0.39790112  1
  Al  Al18  1  0.89889610  0.54290163  0.04905250  1
  Al  Al19  1  0.43336480  0.43459274  0.89805994  1
  Al  Al20  1  0.55348603  0.53306923  0.64263437  1
  Al  Al21  1  0.12698453  0.75442208  0.40739512  1
  Al  Al22  1  0.77714592  0.75586492  0.81560997  1
  Al  Al23  1  0.88937104  0.86711611  0.58083277  1
  Al  Al24  1  0.43843176  0.75609611  0.40693640  1
  Al  Al25  1  0.56316127  0.87331981  0.05020836  1
  Al  Al26  1  0.12115356  0.74687505  0.88295707  1
  Al  Al27  1  0.22325686  0.86858473  0.64708677  1
  Al  Al28  1  0.89007907  0.86434514  0.05613659  1
  Al  Al29  1  0.44749111  0.75141210  0.88172731  1
  Al  Al30  1  0.55374124  0.87526449  0.57938962  1
  Gd  Gd31  1  0.77191596  0.10229994  0.85389617  1
  Gd  Gd32  1  0.77813258  0.10218003  0.34187191  1
  Gd  Gd33  1  0.11349662  0.41179004  0.32698075  1
  Gd  Gd34  1  0.22683514  0.87946712  0.14153286  1
  Gd  Gd35  1  0.76793988  0.76013423  0.31428211  1
  N  N36  1  0.24220794  0.17468788  0.40282922  1
  N  N37  1  0.09694887  0.12197751  0.06038527  1
  N  N38  1  0.90503436  0.22790276  0.81733694  1
  N  N39  1  0.77156616  0.09800770  0.61258784  1
  N  N40  1  0.51535964  0.22550379  0.33214351  1
  N  N41  1  0.43684758  0.08467708  0.12726163  1
  N  N42  1  0.22477322  0.20757264  0.86767898  1
  N  N43  1  0.10708490  0.08766013  0.59036883  1
  N  N44  1  0.91874006  0.22663323  0.31831183  1
  N  N45  1  0.78334692  0.09325979  0.10634673  1
  N  N46  1  0.51865985  0.21639174  0.89132407  1
  N  N47  1  0.44531483  0.09442353  0.63813947  1
  N  N48  1  0.23287123  0.56272256  0.31995936  1
  N  N49  1  0.11482387  0.43107526  0.10747355  1
  N  N50  1  0.89036853  0.53984975  0.86659945  1
  N  N51  1  0.76731132  0.42176144  0.58239250  1
  N  N52  1  0.55995572  0.53905023  0.32822627  1
  N  N53  1  0.44417380  0.43950307  0.08234953  1
  N  N54  1  0.22860516  0.53494601  0.82390418  1
  N  N55  1  0.10900424  0.42235910  0.62808048  1
  N  N56  1  0.87672369  0.53706678  0.40545298  1
  N  N57  1  0.77764158  0.43157130  0.07063699  1
  N  N58  1  0.55470578  0.52973451  0.82601509  1
  N  N59  1  0.43981921  0.42919502  0.57203595  1
  N  N60  1  0.22234390  0.87124920  0.35775929  1
  N  N61  1  0.11171332  0.74687478  0.06565920  1
  N  N62  1  0.89948115  0.84475679  0.87121060  1
  N  N63  1  0.77459036  0.76110217  0.63309473  1
  N  N64  1  0.53035923  0.88671185  0.39725740  1
  N  N65  1  0.47315922  0.74199763  0.06458442  1
  N  N66  1  0.22246511  0.87103357  0.83293367  1
  N  N67  1  0.12098351  0.75213903  0.59333936  1
  N  N68  1  0.90843953  0.85641419  0.40051239  1
  N  N69  1  0.77955754  0.76089706  0.09884180  1
  N  N70  1  0.55535349  0.87454697  0.86699860  1
  N  N71  1  0.44432652  0.75257223  0.59220183  1
