# generated using pymatgen
data_Gd5Al31N36
_symmetry_space_group_name_H-M   'P 1'
_cell_length_a   9.72674034
_cell_length_b   9.72380441
_cell_length_c   10.30717732
_cell_angle_alpha   90.02448090
_cell_angle_beta   90.46948866
_cell_angle_gamma   59.82159132
_symmetry_Int_Tables_number   1
_chemical_formula_structural   Gd5Al31N36
_chemical_formula_sum   'Gd5 Al31 N36'
_cell_volume   842.69769372
_cell_formula_units_Z   1
loop_
 _symmetry_equiv_pos_site_id
 _symmetry_equiv_pos_as_xyz
  1  'x, y, z'
loop_
 _atom_site_type_symbol
 _atom_site_label
 _atom_site_symmetry_multiplicity
 _atom_site_fract_x
 _atom_site_fract_y
 _atom_site_fract_z
 _atom_site_occupancy
  Al  Al0  1  0.11285068  0.09939895  0.31308020  1
  Al  Al1  1  0.22214686  0.21003069  0.05279115  1
  Al  Al2  1  0.89310771  0.20872156  0.55697336  1
  Al  Al3  1  0.43128336  0.09316086  0.31501882  1
  Al  Al4  1  0.54599797  0.20992064  0.05954642  1
  Al  Al5  1  0.11195789  0.10602817  0.81025528  1
  Al  Al6  1  0.22440896  0.20161831  0.56562000  1
  Al  Al7  1  0.89135205  0.21964719  0.06008677  1
  Al  Al8  1  0.43817836  0.09931351  0.80859904  1
  Al  Al9  1  0.54413571  0.21046341  0.55657858  1
  Al  Al10  1  0.22233327  0.53422372  0.05283866  1
  Al  Al11  1  0.78199762  0.42882166  0.80811083  1
  Al  Al12  1  0.88732320  0.53602094  0.57068080  1
  Al  Al13  1  0.44148747  0.43697196  0.31285672  1
  Al  Al14  1  0.56420606  0.53239587  0.05682875  1
  Al  Al15  1  0.11414972  0.42687477  0.81102384  1
  Al  Al16  1  0.22831107  0.54118131  0.56600874  1
  Al  Al17  1  0.77451937  0.42985824  0.31375947  1
  Al  Al18  1  0.88833215  0.53763550  0.04390912  1
  Al  Al19  1  0.44066821  0.42919035  0.81080728  1
  Al  Al20  1  0.56009192  0.53059652  0.56818815  1
  Al  Al21  1  0.11817454  0.75569808  0.31388252  1
  Al  Al22  1  0.78152226  0.75583620  0.80742093  1
  Al  Al23  1  0.89566968  0.86533461  0.56176951  1
  Al  Al24  1  0.43051854  0.76417787  0.36184818  1
  Al  Al25  1  0.56066863  0.87292941  0.04353670  1
  Al  Al26  1  0.11376338  0.74926900  0.80874692  1
  Al  Al27  1  0.22282084  0.87161214  0.62928456  1
  Al  Al28  1  0.89283759  0.85796585  0.04962403  1
  Al  Al29  1  0.45561128  0.75278320  0.82517149  1
  Al  Al30  1  0.55118669  0.87699517  0.57415749  1
  Gd  Gd31  1  0.77550181  0.10011553  0.81663053  1
  Gd  Gd32  1  0.77644444  0.09633656  0.31429294  1
  Gd  Gd33  1  0.11636101  0.42851741  0.31176917  1
  Gd  Gd34  1  0.21975253  0.87351721  0.07795152  1
  Gd  Gd35  1  0.76196916  0.76148975  0.30686893  1
  N  N36  1  0.22943120  0.18334361  0.38446883  1
  N  N37  1  0.09813394  0.13296573  0.12852455  1
  N  N38  1  0.90750909  0.22279361  0.87752567  1
  N  N39  1  0.77530820  0.09668903  0.58833619  1
  N  N40  1  0.51628914  0.22329766  0.37226258  1
  N  N41  1  0.44514217  0.09048057  0.12156037  1
  N  N42  1  0.22541907  0.20379593  0.86598638  1
  N  N43  1  0.10860971  0.09858275  0.62451444  1
  N  N44  1  0.90231244  0.21950599  0.37487565  1
  N  N45  1  0.78193271  0.09258110  0.08436037  1
  N  N46  1  0.52128058  0.22189208  0.87763207  1
  N  N47  1  0.44344893  0.09774134  0.62490426  1
  N  N48  1  0.24144144  0.55485140  0.38541509  1
  N  N49  1  0.11074490  0.42797681  0.08923326  1
  N  N50  1  0.88938768  0.53746817  0.85734476  1
  N  N51  1  0.77870154  0.42307162  0.62435052  1
  N  N52  1  0.55774545  0.53620235  0.37685209  1
  N  N53  1  0.44443188  0.43042165  0.12186820  1
  N  N54  1  0.22627002  0.53791078  0.86627007  1
  N  N55  1  0.11500412  0.42747429  0.61859675  1
  N  N56  1  0.87531687  0.52716034  0.39014244  1
  N  N57  1  0.77743328  0.43240817  0.12313922  1
  N  N58  1  0.56365999  0.52624104  0.86637722  1
  N  N59  1  0.44804424  0.42472921  0.62504363  1
  N  N60  1  0.21738303  0.87615981  0.32745643  1
  N  N61  1  0.09571753  0.73658057  0.12831775  1
  N  N62  1  0.90660266  0.84266116  0.86675610  1
  N  N63  1  0.77744770  0.76188276  0.61909490  1
  N  N64  1  0.52257797  0.88813919  0.39104895  1
  N  N65  1  0.47569023  0.74712105  0.08278871  1
  N  N66  1  0.22254067  0.87253822  0.83462759  1
  N  N67  1  0.11181813  0.75798340  0.62542640  1
  N  N68  1  0.91623532  0.84883526  0.38281484  1
  N  N69  1  0.77729498  0.75816294  0.08789752  1
  N  N70  1  0.55801770  0.87715563  0.85603864  1
  N  N71  1  0.44913813  0.75402840  0.61949226  1
