# generated using pymatgen
data_Gd5Al31N36
_symmetry_space_group_name_H-M   'P 1'
_cell_length_a   9.67950465
_cell_length_b   9.69221557
_cell_length_c   10.48912974
_cell_angle_alpha   90.54952008
_cell_angle_beta   90.63639393
_cell_angle_gamma   59.96532171
_symmetry_Int_Tables_number   1
_chemical_formula_structural   Gd5Al31N36
_chemical_formula_sum   'Gd5 Al31 N36'
_cell_volume   851.84959352
_cell_formula_units_Z   1
loop_
 _symmetry_equiv_pos_site_id
 _symmetry_equiv_pos_as_xyz
  1  'x, y, z'
loop_
 _atom_site_type_symbol
 _atom_site_label
 _atom_site_symmetry_multiplicity
 _atom_site_fract_x
 _atom_site_fract_y
 _atom_site_fract_z
 _atom_site_occupancy
  Al  Al0  1  0.11639098  0.09110421  0.40972887  1
  Al  Al1  1  0.22363579  0.20652135  0.14414881  1
  Al  Al2  1  0.88765418  0.20709363  0.65717594  1
  Al  Al3  1  0.43328137  0.09234512  0.40343391  1
  Al  Al4  1  0.54165532  0.21370967  0.15240398  1
  Al  Al5  1  0.11005782  0.10321287  0.89688544  1
  Al  Al6  1  0.22225235  0.19815951  0.65477896  1
  Al  Al7  1  0.89192196  0.22081171  0.15467487  1
  Al  Al8  1  0.43045347  0.10906204  0.89212285  1
  Al  Al9  1  0.54300840  0.21295730  0.65229055  1
  Al  Al10  1  0.22694900  0.54522920  0.14798562  1
  Al  Al11  1  0.77616832  0.42804688  0.89901873  1
  Al  Al12  1  0.88246759  0.53753924  0.59404671  1
  Al  Al13  1  0.44707204  0.43787380  0.39664358  1
  Al  Al14  1  0.56699989  0.53607290  0.14589420  1
  Al  Al15  1  0.10772938  0.43192540  0.82718870  1
  Al  Al16  1  0.22672914  0.54425433  0.65278349  1
  Al  Al17  1  0.77691134  0.41807909  0.41178961  1
  Al  Al18  1  0.90624349  0.53901286  0.06651034  1
  Al  Al19  1  0.43744183  0.43375180  0.90155761  1
  Al  Al20  1  0.55363273  0.53304585  0.65660725  1
  Al  Al21  1  0.11936922  0.76000328  0.40782942  1
  Al  Al22  1  0.77651618  0.75264961  0.82865052  1
  Al  Al23  1  0.89230726  0.86599193  0.65489765  1
  Al  Al24  1  0.43659538  0.75280466  0.42204786  1
  Al  Al25  1  0.56995453  0.87090963  0.05566297  1
  Al  Al26  1  0.11409685  0.75446108  0.89676778  1
  Al  Al27  1  0.21774757  0.87283619  0.65270711  1
  Al  Al28  1  0.90072945  0.86733165  0.14651392  1
  Al  Al29  1  0.44433781  0.75572609  0.88917039  1
  Al  Al30  1  0.55167618  0.87232793  0.59614506  1
  Gd  Gd31  1  0.77382871  0.09435028  0.90163485  1
  Gd  Gd32  1  0.77402889  0.09354790  0.39260223  1
  Gd  Gd33  1  0.13916154  0.41518268  0.37837866  1
  Gd  Gd34  1  0.23165111  0.87705364  0.15838938  1
  Gd  Gd35  1  0.76127326  0.74032932  0.31953481  1
  N  N36  1  0.23893381  0.15967733  0.32369702  1
  N  N37  1  0.09692777  0.12383189  0.07631571  1
  N  N38  1  0.89940864  0.22034996  0.83485138  1
  N  N39  1  0.77335546  0.09205736  0.61871121  1
  N  N40  1  0.50908926  0.22599183  0.33467067  1
  N  N41  1  0.44252484  0.10056573  0.07834428  1
  N  N42  1  0.21968084  0.20461854  0.83620256  1
  N  N43  1  0.10710953  0.09661328  0.59499228  1
  N  N44  1  0.90707793  0.21639068  0.33748955  1
  N  N45  1  0.77531514  0.10047643  0.12636028  1
  N  N46  1  0.52087623  0.22696415  0.83176780  1
  N  N47  1  0.43338523  0.10622267  0.59200456  1
  N  N48  1  0.24754869  0.56679741  0.32806013  1
  N  N49  1  0.11356446  0.43274290  0.13856782  1
  N  N50  1  0.89395311  0.53695769  0.88240588  1
  N  N51  1  0.76693868  0.41938136  0.59757780  1
  N  N52  1  0.56578304  0.53889675  0.33936440  1
  N  N53  1  0.44823939  0.43042427  0.08674972  1
  N  N54  1  0.22678082  0.54210435  0.83613205  1
  N  N55  1  0.10880694  0.42943801  0.63485977  1
  N  N56  1  0.88957866  0.52082428  0.41757990  1
  N  N57  1  0.78022344  0.42974012  0.08636956  1
  N  N58  1  0.55638445  0.53353458  0.83961979  1
  N  N59  1  0.44097347  0.42989981  0.58435410  1
  N  N60  1  0.22234337  0.87282047  0.37532101  1
  N  N61  1  0.10607968  0.75231258  0.07586103  1
  N  N62  1  0.90668238  0.84533447  0.83367107  1
  N  N63  1  0.77071590  0.75606549  0.64261996  1
  N  N64  1  0.53413642  0.87534175  0.41252806  1
  N  N65  1  0.47495187  0.74368541  0.07480454  1
  N  N66  1  0.21854013  0.87541511  0.84200295  1
  N  N67  1  0.10777573  0.75950587  0.59247640  1
  N  N68  1  0.92036635  0.84581343  0.32856683  1
  N  N69  1  0.78340256  0.76355996  0.10346492  1
  N  N70  1  0.55417842  0.87775955  0.87043556  1
  N  N71  1  0.43998850  0.75208041  0.60773713  1
