# generated using pymatgen
data_Gd5Al31N36
_symmetry_space_group_name_H-M   'P 1'
_cell_length_a   9.71084228
_cell_length_b   9.70987742
_cell_length_c   10.54186697
_cell_angle_alpha   91.07767000
_cell_angle_beta   90.60844690
_cell_angle_gamma   59.94526297
_symmetry_Int_Tables_number   1
_chemical_formula_structural   Gd5Al31N36
_chemical_formula_sum   'Gd5 Al31 N36'
_cell_volume   860.20460042
_cell_formula_units_Z   1
loop_
 _symmetry_equiv_pos_site_id
 _symmetry_equiv_pos_as_xyz
  1  'x, y, z'
loop_
 _atom_site_type_symbol
 _atom_site_label
 _atom_site_symmetry_multiplicity
 _atom_site_fract_x
 _atom_site_fract_y
 _atom_site_fract_z
 _atom_site_occupancy
  Al  Al0  1  0.11538078  0.08530047  0.40690208  1
  Al  Al1  1  0.22539714  0.21645165  0.05132482  1
  Al  Al2  1  0.89107047  0.21059742  0.64154282  1
  Al  Al3  1  0.43205214  0.08688111  0.31716623  1
  Al  Al4  1  0.54461744  0.21292189  0.12998896  1
  Al  Al5  1  0.11011300  0.09948998  0.87949685  1
  Al  Al6  1  0.22864744  0.19904894  0.58010804  1
  Al  Al7  1  0.89595411  0.22292323  0.13455820  1
  Al  Al8  1  0.43637760  0.09213147  0.81648460  1
  Al  Al9  1  0.54752514  0.21152754  0.63293909  1
  Al  Al10  1  0.22770023  0.54578134  0.13564790  1
  Al  Al11  1  0.77424234  0.43193224  0.88255495  1
  Al  Al12  1  0.88532146  0.53864688  0.58202054  1
  Al  Al13  1  0.43845630  0.43613648  0.38281242  1
  Al  Al14  1  0.56602019  0.53693928  0.13588055  1
  Al  Al15  1  0.10928209  0.42298672  0.81436898  1
  Al  Al16  1  0.22754274  0.53688174  0.64237400  1
  Al  Al17  1  0.77175049  0.42726504  0.39774190  1
  Al  Al18  1  0.89876257  0.54250451  0.04885604  1
  Al  Al19  1  0.43411012  0.43385084  0.89380746  1
  Al  Al20  1  0.55343034  0.53299442  0.64195642  1
  Al  Al21  1  0.12753772  0.75405682  0.40722785  1
  Al  Al22  1  0.77710601  0.75643250  0.81533059  1
  Al  Al23  1  0.88931691  0.86760175  0.58201624  1
  Al  Al24  1  0.43856899  0.75563850  0.40634605  1
  Al  Al25  1  0.56325938  0.87296482  0.04985833  1
  Al  Al26  1  0.12030155  0.74771468  0.88293850  1
  Al  Al27  1  0.22330903  0.86869219  0.64665968  1
  Al  Al28  1  0.88994759  0.86345273  0.05754734  1
  Al  Al29  1  0.44732609  0.75163813  0.88156771  1
  Al  Al30  1  0.55359834  0.87517205  0.57818487  1
  Gd  Gd31  1  0.77500549  0.10430986  0.86454549  1
  Gd  Gd32  1  0.77663672  0.10551732  0.35580124  1
  Gd  Gd33  1  0.11287646  0.41262035  0.32670165  1
  Gd  Gd34  1  0.22648257  0.87953288  0.14158339  1
  Gd  Gd35  1  0.76852197  0.76031731  0.31394914  1
  N  N36  1  0.24230574  0.17545253  0.40151598  1
  N  N37  1  0.09605354  0.12192184  0.06053455  1
  N  N38  1  0.90608449  0.22857647  0.81668942  1
  N  N39  1  0.77288815  0.09726791  0.61136445  1
  N  N40  1  0.51476704  0.22795496  0.31552332  1
  N  N41  1  0.43702604  0.08432602  0.12433962  1
  N  N42  1  0.22540933  0.20815985  0.86917142  1
  N  N43  1  0.10707262  0.08762948  0.58961148  1
  N  N44  1  0.91883437  0.22579591  0.31845284  1
  N  N45  1  0.78080088  0.09392174  0.10716797  1
  N  N46  1  0.52014953  0.22373653  0.84428787  1
  N  N47  1  0.44305101  0.09023949  0.63561801  1
  N  N48  1  0.23415834  0.56190594  0.31947571  1
  N  N49  1  0.11442371  0.43102377  0.10761806  1
  N  N50  1  0.89046950  0.54017255  0.86662709  1
  N  N51  1  0.76746025  0.42126318  0.58202684  1
  N  N52  1  0.55996080  0.53790629  0.32740677  1
  N  N53  1  0.44578931  0.43342767  0.07767497  1
  N  N54  1  0.22687911  0.53700502  0.82397309  1
  N  N55  1  0.10924988  0.42193636  0.62795488  1
  N  N56  1  0.87638799  0.53738400  0.40543879  1
  N  N57  1  0.77768862  0.43068672  0.07028369  1
  N  N58  1  0.55475011  0.53138989  0.82550863  1
  N  N59  1  0.44130384  0.42581260  0.57168412  1
  N  N60  1  0.22272293  0.87110228  0.35743531  1
  N  N61  1  0.11185077  0.74654241  0.06588216  1
  N  N62  1  0.89865074  0.84551252  0.87186151  1
  N  N63  1  0.77462806  0.76086196  0.63290944  1
  N  N64  1  0.53054002  0.88647993  0.39575948  1
  N  N65  1  0.47285492  0.74131988  0.06446300  1
  N  N66  1  0.22231366  0.87162824  0.83273533  1
  N  N67  1  0.12130814  0.75182109  0.59286943  1
  N  N68  1  0.90899620  0.85632539  0.40019776  1
  N  N69  1  0.77925726  0.76014432  0.09896441  1
  N  N70  1  0.55542644  0.87471214  0.86744974  1
  N  N71  1  0.44446316  0.75190370  0.59115973  1
