# generated using pymatgen
data_Gd5Al31N36
_symmetry_space_group_name_H-M   'P 1'
_cell_length_a   9.70167332
_cell_length_b   9.67271289
_cell_length_c   10.29059963
_cell_angle_alpha   90.00530604
_cell_angle_beta   90.22133402
_cell_angle_gamma   59.95412795
_symmetry_Int_Tables_number   1
_chemical_formula_structural   Gd5Al31N36
_chemical_formula_sum   'Gd5 Al31 N36'
_cell_volume   835.91304243
_cell_formula_units_Z   1
loop_
 _symmetry_equiv_pos_site_id
 _symmetry_equiv_pos_as_xyz
  1  'x, y, z'
loop_
 _atom_site_type_symbol
 _atom_site_label
 _atom_site_symmetry_multiplicity
 _atom_site_fract_x
 _atom_site_fract_y
 _atom_site_fract_z
 _atom_site_occupancy
  Al  Al0  1  0.11419077  0.09723585  0.30647356  1
  Al  Al1  1  0.22136419  0.20807008  0.04072844  1
  Al  Al2  1  0.89127841  0.21043886  0.54676415  1
  Al  Al3  1  0.43300554  0.09266675  0.30410227  1
  Al  Al4  1  0.54450614  0.21070980  0.04796438  1
  Al  Al5  1  0.11528120  0.09640487  0.79325924  1
  Al  Al6  1  0.22464543  0.20140483  0.55574431  1
  Al  Al7  1  0.89271052  0.21645587  0.04758562  1
  Al  Al8  1  0.43674255  0.09745207  0.79925349  1
  Al  Al9  1  0.54336534  0.21121334  0.54699641  1
  Al  Al10  1  0.22130460  0.53625347  0.04098272  1
  Al  Al11  1  0.77876702  0.43141325  0.79896460  1
  Al  Al12  1  0.88615262  0.53682822  0.56145237  1
  Al  Al13  1  0.44187676  0.43575924  0.30229891  1
  Al  Al14  1  0.56372374  0.53558416  0.05309488  1
  Al  Al15  1  0.11381007  0.42723343  0.79984421  1
  Al  Al16  1  0.22818102  0.54118567  0.55599441  1
  Al  Al17  1  0.77687728  0.42783976  0.30245716  1
  Al  Al18  1  0.89021621  0.53595751  0.03150118  1
  Al  Al19  1  0.43898286  0.43344369  0.80156312  1
  Al  Al20  1  0.55766063  0.53502190  0.55126487  1
  Al  Al21  1  0.11903687  0.75573135  0.30728915  1
  Al  Al22  1  0.77858954  0.75682870  0.79939003  1
  Al  Al23  1  0.89392580  0.86610177  0.55213310  1
  Al  Al24  1  0.44614698  0.75809718  0.30925739  1
  Al  Al25  1  0.55853481  0.87060326  0.03973442  1
  Al  Al26  1  0.11738273  0.75622690  0.79144843  1
  Al  Al27  1  0.22223697  0.87194624  0.54895346  1
  Al  Al28  1  0.89316924  0.85974423  0.03643904  1
  Al  Al29  1  0.44492949  0.75904577  0.79277957  1
  Al  Al30  1  0.55004546  0.87556706  0.55713521  1
  Gd  Gd31  1  0.77346013  0.10144869  0.80438002  1
  Gd  Gd32  1  0.77497821  0.09744833  0.30332462  1
  Gd  Gd33  1  0.11746924  0.42661509  0.30127027  1
  Gd  Gd34  1  0.22408733  0.86998729  0.05904177  1
  Gd  Gd35  1  0.76743814  0.75897688  0.29374116  1
  N  N36  1  0.23145859  0.18209911  0.37414673  1
  N  N37  1  0.10044991  0.12465084  0.12081087  1
  N  N38  1  0.90835710  0.22181698  0.86461596  1
  N  N39  1  0.77356851  0.09794207  0.57714424  1
  N  N40  1  0.51593338  0.22347667  0.36230279  1
  N  N41  1  0.44324236  0.09102505  0.11061924  1
  N  N42  1  0.22269615  0.20256053  0.85359220  1
  N  N43  1  0.10969653  0.09397763  0.60745113  1
  N  N44  1  0.90326497  0.21835684  0.36424405  1
  N  N45  1  0.77988811  0.09328513  0.07282757  1
  N  N46  1  0.51851516  0.22385934  0.86657577  1
  N  N47  1  0.44409178  0.09552456  0.61471696  1
  N  N48  1  0.24172453  0.55306243  0.37468795  1
  N  N49  1  0.11108214  0.42728809  0.07793020  1
  N  N50  1  0.88953664  0.53736130  0.84604365  1
  N  N51  1  0.77487928  0.42545029  0.61451420  1
  N  N52  1  0.56021094  0.53338847  0.36201460  1
  N  N53  1  0.44266870  0.43200054  0.11109995  1
  N  N54  1  0.22344153  0.54263371  0.85411384  1
  N  N55  1  0.11454933  0.42768967  0.60790471  1
  N  N56  1  0.87630561  0.52608250  0.38059166  1
  N  N57  1  0.78035855  0.43039920  0.11097419  1
  N  N58  1  0.55690044  0.53866262  0.86200817  1
  N  N59  1  0.44805482  0.42694204  0.61487794  1
  N  N60  1  0.22212564  0.87298561  0.35182351  1
  N  N61  1  0.09629411  0.74143338  0.12088211  1
  N  N62  1  0.90803871  0.84325024  0.85320527  1
  N  N63  1  0.77456051  0.76321154  0.60985856  1
  N  N64  1  0.52674453  0.88598653  0.37504970  1
  N  N65  1  0.47954477  0.74628290  0.12267140  1
  N  N66  1  0.22332301  0.87253314  0.83922051  1
  N  N67  1  0.11347362  0.76177159  0.60829307  1
  N  N68  1  0.91583836  0.85067879  0.37274793  1
  N  N69  1  0.77806332  0.75753782  0.07368906  1
  N  N70  1  0.55124136  0.87374619  0.85213177  1
  N  N71  1  0.44506415  0.75697334  0.60620397  1
