# generated using pymatgen
data_Gd5Al31N36
_symmetry_space_group_name_H-M   'P 1'
_cell_length_a   9.67964996
_cell_length_b   9.64007691
_cell_length_c   10.67203744
_cell_angle_alpha   90.84309853
_cell_angle_beta   91.25073468
_cell_angle_gamma   60.21872129
_symmetry_Int_Tables_number   1
_chemical_formula_structural   Gd5Al31N36
_chemical_formula_sum   'Gd5 Al31 N36'
_cell_volume   864.09855158
_cell_formula_units_Z   1
loop_
 _symmetry_equiv_pos_site_id
 _symmetry_equiv_pos_as_xyz
  1  'x, y, z'
loop_
 _atom_site_type_symbol
 _atom_site_label
 _atom_site_symmetry_multiplicity
 _atom_site_fract_x
 _atom_site_fract_y
 _atom_site_fract_z
 _atom_site_occupancy
  Al  Al0  1  0.11171140  0.08941170  0.40695395  1
  Al  Al1  1  0.23003305  0.20991896  0.05352352  1
  Al  Al2  1  0.89218961  0.21112131  0.63787286  1
  Al  Al3  1  0.43323267  0.09318427  0.32856881  1
  Al  Al4  1  0.55035881  0.20911182  0.07263534  1
  Al  Al5  1  0.10783681  0.09648546  0.88331552  1
  Al  Al6  1  0.22729997  0.20407287  0.57948042  1
  Al  Al7  1  0.89745352  0.21896733  0.13197128  1
  Al  Al8  1  0.43438213  0.09833058  0.81884125  1
  Al  Al9  1  0.54276310  0.21376551  0.56499009  1
  Al  Al10  1  0.23331891  0.52903002  0.06451813  1
  Al  Al11  1  0.77587224  0.42630152  0.88576652  1
  Al  Al12  1  0.88519160  0.53982232  0.58094997  1
  Al  Al13  1  0.44027897  0.43583657  0.31716033  1
  Al  Al14  1  0.57277674  0.53887910  0.13749787  1
  Al  Al15  1  0.10565235  0.42174981  0.81853607  1
  Al  Al16  1  0.22044811  0.53814132  0.62909923  1
  Al  Al17  1  0.77310908  0.42460102  0.39850411  1
  Al  Al18  1  0.89790987  0.54360061  0.04745173  1
  Al  Al19  1  0.43984976  0.42475735  0.82345879  1
  Al  Al20  1  0.55764936  0.53684182  0.64728612  1
  Al  Al21  1  0.12730689  0.75529474  0.41905525  1
  Al  Al22  1  0.77602687  0.75490265  0.81538252  1
  Al  Al23  1  0.88480252  0.86978493  0.57736900  1
  Al  Al24  1  0.43637952  0.75561907  0.41065503  1
  Al  Al25  1  0.56580383  0.87585079  0.05363936  1
  Al  Al26  1  0.11696641  0.75690685  0.87861758  1
  Al  Al27  1  0.22281003  0.87272467  0.64942957  1
  Al  Al28  1  0.88949795  0.86792826  0.05201443  1
  Al  Al29  1  0.44840085  0.75427092  0.88622439  1
  Al  Al30  1  0.55098388  0.87884296  0.58089388  1
  Gd  Gd31  1  0.76025588  0.09892364  0.82464713  1
  Gd  Gd32  1  0.77813200  0.09337914  0.33090806  1
  Gd  Gd33  1  0.11530031  0.42290529  0.31895944  1
  Gd  Gd34  1  0.23002428  0.87207666  0.14812245  1
  Gd  Gd35  1  0.76270456  0.75734892  0.31474419  1
  N  N36  1  0.23641148  0.18423587  0.40160041  1
  N  N37  1  0.09975786  0.11557324  0.06323913  1
  N  N38  1  0.90201744  0.22187213  0.81696509  1
  N  N39  1  0.77162747  0.09855072  0.60408583  1
  N  N40  1  0.52048595  0.22492311  0.38510618  1
  N  N41  1  0.44504846  0.08932399  0.13539748  1
  N  N42  1  0.22458057  0.20488696  0.87209415  1
  N  N43  1  0.10722705  0.09121751  0.58893339  1
  N  N44  1  0.91342670  0.22430628  0.31794944  1
  N  N45  1  0.78247351  0.09307845  0.10428332  1
  N  N46  1  0.51370069  0.22514289  0.89793565  1
  N  N47  1  0.44543540  0.09723663  0.63950188  1
  N  N48  1  0.24147583  0.54964560  0.37590846  1
  N  N49  1  0.11680561  0.42759639  0.09904269  1
  N  N50  1  0.88849819  0.53911411  0.86828945  1
  N  N51  1  0.76625032  0.42334815  0.58141367  1
  N  N52  1  0.56420446  0.54682083  0.32471994  1
  N  N53  1  0.44807787  0.42711422  0.13088110  1
  N  N54  1  0.22134165  0.53616843  0.84982778  1
  N  N55  1  0.10596945  0.42378101  0.63659207  1
  N  N56  1  0.88289212  0.53277820  0.40668353  1
  N  N57  1  0.78053128  0.42863878  0.07010798  1
  N  N58  1  0.55988759  0.53710507  0.82916512  1
  N  N59  1  0.44504567  0.41863870  0.64136818  1
  N  N60  1  0.21929293  0.87280380  0.36155261  1
  N  N61  1  0.11258953  0.74852842  0.06166084  1
  N  N62  1  0.89614285  0.84819791  0.87144771  1
  N  N63  1  0.77234400  0.76166939  0.63485705  1
  N  N64  1  0.52834123  0.88912453  0.40170410  1
  N  N65  1  0.47360218  0.74382301  0.06599388  1
  N  N66  1  0.22519478  0.87242737  0.83231402  1
  N  N67  1  0.11342084  0.76019912  0.60451875  1
  N  N68  1  0.90874185  0.85064571  0.40083690  1
  N  N69  1  0.78340974  0.75979166  0.10092762  1
  N  N70  1  0.55642698  0.87948839  0.87167163  1
  N  N71  1  0.44214053  0.75359852  0.59297651  1
