# generated using pymatgen
data_Gd5Al31N36
_symmetry_space_group_name_H-M   'P 1'
_cell_length_a   9.72191990
_cell_length_b   9.71102989
_cell_length_c   10.30169921
_cell_angle_alpha   90.01136744
_cell_angle_beta   90.42094448
_cell_angle_gamma   59.83406209
_symmetry_Int_Tables_number   1
_chemical_formula_structural   Gd5Al31N36
_chemical_formula_sum   'Gd5 Al31 N36'
_cell_volume   840.83918838
_cell_formula_units_Z   1
loop_
 _symmetry_equiv_pos_site_id
 _symmetry_equiv_pos_as_xyz
  1  'x, y, z'
loop_
 _atom_site_type_symbol
 _atom_site_label
 _atom_site_symmetry_multiplicity
 _atom_site_fract_x
 _atom_site_fract_y
 _atom_site_fract_z
 _atom_site_occupancy
  Al  Al0  1  0.11334525  0.09828246  0.31350482  1
  Al  Al1  1  0.22231180  0.20979089  0.05286018  1
  Al  Al2  1  0.89244370  0.20942103  0.55704040  1
  Al  Al3  1  0.43150485  0.09297286  0.31557683  1
  Al  Al4  1  0.54609016  0.20979843  0.05956752  1
  Al  Al5  1  0.11219248  0.10539882  0.80988584  1
  Al  Al6  1  0.22461404  0.20151792  0.56569655  1
  Al  Al7  1  0.89134438  0.21929686  0.05981491  1
  Al  Al8  1  0.43816306  0.09832971  0.80948295  1
  Al  Al9  1  0.54425356  0.21047308  0.55711759  1
  Al  Al10  1  0.22241499  0.53425305  0.05290231  1
  Al  Al11  1  0.78102648  0.42991949  0.80877848  1
  Al  Al12  1  0.88683303  0.53631700  0.57111094  1
  Al  Al13  1  0.44156981  0.43651184  0.31331082  1
  Al  Al14  1  0.56364516  0.53456653  0.06100286  1
  Al  Al15  1  0.11429363  0.42684188  0.81089853  1
  Al  Al16  1  0.22852461  0.54105768  0.56597415  1
  Al  Al17  1  0.77479002  0.42950554  0.31377138  1
  Al  Al18  1  0.88931044  0.53689419  0.04384750  1
  Al  Al19  1  0.44055517  0.43038528  0.81161378  1
  Al  Al20  1  0.55838226  0.53382491  0.56481103  1
  Al  Al21  1  0.11858418  0.75615357  0.31445300  1
  Al  Al22  1  0.78060298  0.75584006  0.80851372  1
  Al  Al23  1  0.89507635  0.86536319  0.56194441  1
  Al  Al24  1  0.43748659  0.76194203  0.32778190  1
  Al  Al25  1  0.55953240  0.87115802  0.04792835  1
  Al  Al26  1  0.11411813  0.74976292  0.80831185  1
  Al  Al27  1  0.22295258  0.87166690  0.62282046  1
  Al  Al28  1  0.89265325  0.85816114  0.04926811  1
  Al  Al29  1  0.45542213  0.75303093  0.81300322  1
  Al  Al30  1  0.54979077  0.87580107  0.57106224  1
  Gd  Gd31  1  0.77552158  0.10009035  0.81625255  1
  Gd  Gd32  1  0.77654680  0.09632812  0.31449768  1
  Gd  Gd33  1  0.11604857  0.42853253  0.31208375  1
  Gd  Gd34  1  0.21968678  0.87340086  0.07538788  1
  Gd  Gd35  1  0.76272340  0.76117580  0.30650155  1
  N  N36  1  0.22936392  0.18344720  0.38456866  1
  N  N37  1  0.09848292  0.13150527  0.12809161  1
  N  N38  1  0.90710063  0.22309569  0.87720228  1
  N  N39  1  0.77526986  0.09675826  0.58836025  1
  N  N40  1  0.51642748  0.22302517  0.37278480  1
  N  N41  1  0.44488898  0.09057676  0.12178878  1
  N  N42  1  0.22520580  0.20375925  0.86605978  1
  N  N43  1  0.10836751  0.09860583  0.62427847  1
  N  N44  1  0.90260063  0.21937801  0.37493936  1
  N  N45  1  0.78181575  0.09251000  0.08431498  1
  N  N46  1  0.52127820  0.22203081  0.87753549  1
  N  N47  1  0.44398204  0.09643780  0.62541624  1
  N  N48  1  0.24121792  0.55443850  0.38536139  1
  N  N49  1  0.11103332  0.42778465  0.08941472  1
  N  N50  1  0.88976190  0.53722989  0.85740058  1
  N  N51  1  0.77707534  0.42406650  0.62475539  1
  N  N52  1  0.55783664  0.53618642  0.37497268  1
  N  N53  1  0.44422242  0.43054429  0.12199458  1
  N  N54  1  0.22607204  0.53823516  0.86634227  1
  N  N55  1  0.11499106  0.42751342  0.61870039  1
  N  N56  1  0.87508789  0.52718085  0.39064385  1
  N  N57  1  0.77849145  0.43188032  0.12275218  1
  N  N58  1  0.56101096  0.53200886  0.87064600  1
  N  N59  1  0.44845162  0.42568151  0.62546989  1
  N  N60  1  0.21737145  0.87608952  0.32900214  1
  N  N61  1  0.09581352  0.73759393  0.12796230  1
  N  N62  1  0.90646413  0.84270716  0.86637347  1
  N  N63  1  0.77609992  0.76250153  0.61977474  1
  N  N64  1  0.52225034  0.88681288  0.38914243  1
  N  N65  1  0.47787152  0.74673655  0.11662497  1
  N  N66  1  0.22357172  0.87208012  0.83641691  1
  N  N67  1  0.11176867  0.75829001  0.62508562  1
  N  N68  1  0.91623196  0.84870604  0.38304549  1
  N  N69  1  0.77764284  0.75753066  0.08708844  1
  N  N70  1  0.55542747  0.87494889  0.86065714  1
  N  N71  1  0.45019946  0.75384108  0.62451380  1
