# generated using pymatgen
data_Gd5Al31N36
_symmetry_space_group_name_H-M   'P 1'
_cell_length_a   9.68172734
_cell_length_b   9.63897905
_cell_length_c   10.68914217
_cell_angle_alpha   90.86055956
_cell_angle_beta   91.26759836
_cell_angle_gamma   60.20066192
_symmetry_Int_Tables_number   1
_chemical_formula_structural   Gd5Al31N36
_chemical_formula_sum   'Gd5 Al31 N36'
_cell_volume   865.40818658
_cell_formula_units_Z   1
loop_
 _symmetry_equiv_pos_site_id
 _symmetry_equiv_pos_as_xyz
  1  'x, y, z'
loop_
 _atom_site_type_symbol
 _atom_site_label
 _atom_site_symmetry_multiplicity
 _atom_site_fract_x
 _atom_site_fract_y
 _atom_site_fract_z
 _atom_site_occupancy
  Al  Al0  1  0.11191991  0.08878940  0.40760669  1
  Al  Al1  1  0.23038203  0.21004203  0.05318231  1
  Al  Al2  1  0.89227525  0.21106112  0.63801161  1
  Al  Al3  1  0.43344213  0.09322845  0.32885526  1
  Al  Al4  1  0.55091932  0.20874976  0.07192241  1
  Al  Al5  1  0.10791574  0.09606886  0.88323929  1
  Al  Al6  1  0.22732129  0.20384171  0.57972976  1
  Al  Al7  1  0.89761884  0.21890358  0.13198269  1
  Al  Al8  1  0.43435954  0.09838435  0.81872311  1
  Al  Al9  1  0.54250243  0.21426481  0.56523867  1
  Al  Al10  1  0.23200073  0.53253931  0.08612954  1
  Al  Al11  1  0.77578632  0.42621262  0.88582455  1
  Al  Al12  1  0.88504375  0.53976482  0.58105470  1
  Al  Al13  1  0.44204455  0.43493142  0.31665938  1
  Al  Al14  1  0.57359552  0.53899265  0.13770234  1
  Al  Al15  1  0.10493313  0.42135653  0.81813827  1
  Al  Al16  1  0.21816279  0.54027574  0.64270913  1
  Al  Al17  1  0.77279376  0.42472473  0.39903113  1
  Al  Al18  1  0.89785929  0.54379152  0.04725414  1
  Al  Al19  1  0.43990008  0.42488506  0.82375011  1
  Al  Al20  1  0.55745065  0.53666938  0.64713396  1
  Al  Al21  1  0.12773720  0.75363701  0.41716851  1
  Al  Al22  1  0.77628608  0.75492043  0.81543957  1
  Al  Al23  1  0.88550045  0.86939059  0.57649874  1
  Al  Al24  1  0.43659656  0.75604857  0.41080272  1
  Al  Al25  1  0.56592014  0.87586334  0.05350110  1
  Al  Al26  1  0.11816486  0.75450358  0.87999641  1
  Al  Al27  1  0.22282695  0.87197712  0.64887572  1
  Al  Al28  1  0.88934885  0.86813494  0.05185565  1
  Al  Al29  1  0.44818628  0.75431779  0.88620884  1
  Al  Al30  1  0.55131974  0.87883373  0.58092788  1
  Gd  Gd31  1  0.76044318  0.09846952  0.82402658  1
  Gd  Gd32  1  0.77792215  0.09390151  0.33104720  1
  Gd  Gd33  1  0.11306193  0.42054616  0.31979295  1
  Gd  Gd34  1  0.23031001  0.87278043  0.14879777  1
  Gd  Gd35  1  0.76287985  0.75754814  0.31444761  1
  N  N36  1  0.23731269  0.18276498  0.40235930  1
  N  N37  1  0.09996933  0.11562308  0.06312152  1
  N  N38  1  0.90197645  0.22173326  0.81704989  1
  N  N39  1  0.77194877  0.09825721  0.60405489  1
  N  N40  1  0.51992548  0.22567779  0.38562654  1
  N  N41  1  0.44515750  0.08955215  0.13534334  1
  N  N42  1  0.22454053  0.20491672  0.87228252  1
  N  N43  1  0.10720542  0.09083006  0.58918224  1
  N  N44  1  0.91387186  0.22449827  0.31796178  1
  N  N45  1  0.78289916  0.09282387  0.10443723  1
  N  N46  1  0.51364963  0.22533475  0.89767221  1
  N  N47  1  0.44554735  0.09720105  0.63971690  1
  N  N48  1  0.23678862  0.55445693  0.35639055  1
  N  N49  1  0.11647907  0.42734814  0.09983475  1
  N  N50  1  0.88843213  0.53904528  0.86856989  1
  N  N51  1  0.76619628  0.42319961  0.58157600  1
  N  N52  1  0.56441510  0.54690338  0.32505310  1
  N  N53  1  0.45185018  0.42523872  0.13080223  1
  N  N54  1  0.21895393  0.53847192  0.83689951  1
  N  N55  1  0.10515474  0.42295376  0.63568884  1
  N  N56  1  0.88131492  0.53387689  0.40721810  1
  N  N57  1  0.78090276  0.42863978  0.07011072  1
  N  N58  1  0.55981539  0.53710414  0.82919320  1
  N  N59  1  0.44479829  0.41919796  0.64013306  1
  N  N60  1  0.21963295  0.87289226  0.36174450  1
  N  N61  1  0.11348470  0.74796589  0.06121329  1
  N  N62  1  0.89666588  0.84794436  0.87201946  1
  N  N63  1  0.77275357  0.76176360  0.63515582  1
  N  N64  1  0.52895568  0.88912224  0.40181133  1
  N  N65  1  0.47352495  0.74397084  0.06607184  1
  N  N66  1  0.22489255  0.87179078  0.83210560  1
  N  N67  1  0.11499896  0.75834379  0.60109548  1
  N  N68  1  0.90828026  0.85132514  0.40034615  1
  N  N69  1  0.78358285  0.75981268  0.10077053  1
  N  N70  1  0.55645323  0.87949319  0.87183209  1
  N  N71  1  0.44247145  0.75366067  0.59288699  1
