# generated using pymatgen
data_Gd5Al31N36
_symmetry_space_group_name_H-M   'P 1'
_cell_length_a   9.70974059
_cell_length_b   9.68640729
_cell_length_c   10.48229637
_cell_angle_alpha   90.53732704
_cell_angle_beta   90.59681425
_cell_angle_gamma   59.98407630
_symmetry_Int_Tables_number   1
_chemical_formula_structural   Gd5Al31N36
_chemical_formula_sum   'Gd5 Al31 N36'
_cell_volume   853.60926422
_cell_formula_units_Z   1
loop_
 _symmetry_equiv_pos_site_id
 _symmetry_equiv_pos_as_xyz
  1  'x, y, z'
loop_
 _atom_site_type_symbol
 _atom_site_label
 _atom_site_symmetry_multiplicity
 _atom_site_fract_x
 _atom_site_fract_y
 _atom_site_fract_z
 _atom_site_occupancy
  Al  Al0  1  0.11824542  0.08731118  0.35187709  1
  Al  Al1  1  0.21987162  0.21182539  0.04395937  1
  Al  Al2  1  0.88733136  0.21070400  0.56130481  1
  Al  Al3  1  0.43435154  0.08936674  0.31283714  1
  Al  Al4  1  0.54245927  0.21330359  0.05649718  1
  Al  Al5  1  0.11187274  0.10354610  0.80984198  1
  Al  Al6  1  0.22606052  0.20431722  0.57074107  1
  Al  Al7  1  0.89009074  0.21988308  0.05090371  1
  Al  Al8  1  0.43743567  0.09894674  0.80565827  1
  Al  Al9  1  0.54485468  0.21011362  0.55369465  1
  Al  Al10  1  0.21946801  0.53873937  0.05149271  1
  Al  Al11  1  0.78492967  0.42991344  0.80450974  1
  Al  Al12  1  0.88871335  0.53586477  0.56769001  1
  Al  Al13  1  0.43886998  0.43348168  0.31123622  1
  Al  Al14  1  0.56085820  0.54137341  0.12810010  1
  Al  Al15  1  0.11186418  0.43081717  0.80936357  1
  Al  Al16  1  0.22550155  0.54129395  0.56415192  1
  Al  Al17  1  0.78577696  0.42276918  0.31312705  1
  Al  Al18  1  0.88846682  0.53812266  0.04128793  1
  Al  Al19  1  0.43387266  0.42989106  0.80934941  1
  Al  Al20  1  0.55357343  0.53872507  0.63105426  1
  Al  Al21  1  0.11659376  0.75269680  0.31675601  1
  Al  Al22  1  0.77976416  0.75682916  0.80504886  1
  Al  Al23  1  0.89499842  0.86731941  0.56127595  1
  Al  Al24  1  0.43566075  0.75463720  0.39186502  1
  Al  Al25  1  0.56418355  0.87696514  0.04157522  1
  Al  Al26  1  0.11400110  0.75201018  0.80817123  1
  Al  Al27  1  0.22785821  0.86789973  0.63341402  1
  Al  Al28  1  0.89246211  0.86042802  0.04719118  1
  Al  Al29  1  0.45449145  0.75085324  0.87169891  1
  Al  Al30  1  0.55354000  0.87777996  0.56682313  1
  Gd  Gd31  1  0.77007391  0.09899333  0.81488460  1
  Gd  Gd32  1  0.77774639  0.09611155  0.30711365  1
  Gd  Gd33  1  0.12105228  0.41797441  0.30471537  1
  Gd  Gd34  1  0.22529735  0.87561644  0.10523667  1
  Gd  Gd35  1  0.76831612  0.75626791  0.30443710  1
  N  N36  1  0.23571916  0.18015066  0.39134700  1
  N  N37  1  0.09716386  0.13224117  0.11067087  1
  N  N38  1  0.90211514  0.22366652  0.86948480  1
  N  N39  1  0.77280564  0.09777144  0.59111399  1
  N  N40  1  0.52010972  0.22073631  0.37097752  1
  N  N41  1  0.44192267  0.09180675  0.11994204  1
  N  N42  1  0.22325289  0.20729958  0.85912525  1
  N  N43  1  0.10911753  0.09654892  0.62024117  1
  N  N44  1  0.90255738  0.21642645  0.38138484  1
  N  N45  1  0.77781875  0.09603827  0.08040641  1
  N  N46  1  0.51671984  0.22527359  0.87785656  1
  N  N47  1  0.44613014  0.09582243  0.62438771  1
  N  N48  1  0.23953946  0.55100656  0.38512068  1
  N  N49  1  0.11020112  0.42986094  0.08552894  1
  N  N50  1  0.88826424  0.53984565  0.85782416  1
  N  N51  1  0.78108400  0.42520471  0.62167585  1
  N  N52  1  0.55716299  0.54358775  0.31898592  1
  N  N53  1  0.43740889  0.43018547  0.12215553  1
  N  N54  1  0.22316512  0.54217747  0.86762814  1
  N  N55  1  0.11321960  0.42966533  0.62063517  1
  N  N56  1  0.88320868  0.52262058  0.38991388  1
  N  N57  1  0.78605367  0.42916187  0.12291026  1
  N  N58  1  0.55676355  0.53694547  0.81711472  1
  N  N59  1  0.44184570  0.42209327  0.62332012  1
  N  N60  1  0.22417156  0.86871091  0.33216340  1
  N  N61  1  0.09215906  0.74185863  0.13095523  1
  N  N62  1  0.90703347  0.84226151  0.86734965  1
  N  N63  1  0.77685092  0.76210276  0.61861267  1
  N  N64  1  0.52965594  0.88585064  0.38473109  1
  N  N65  1  0.48051896  0.73944017  0.05247990  1
  N  N66  1  0.22824054  0.87105011  0.82869735  1
  N  N67  1  0.11065087  0.75818726  0.62609329  1
  N  N68  1  0.91469643  0.85301287  0.38454052  1
  N  N69  1  0.77710320  0.75980668  0.08871674  1
  N  N70  1  0.55802779  0.88009932  0.85637526  1
  N  N71  1  0.44212994  0.75431374  0.57722432  1
