# generated using pymatgen
data_Gd5Al31N36
_symmetry_space_group_name_H-M   'P 1'
_cell_length_a   9.73851178
_cell_length_b   9.70248733
_cell_length_c   10.27085566
_cell_angle_alpha   90.39203869
_cell_angle_beta   90.14319681
_cell_angle_gamma   59.82049577
_symmetry_Int_Tables_number   1
_chemical_formula_structural   Gd5Al31N36
_chemical_formula_sum   'Gd5 Al31 N36'
_cell_volume   838.90757118
_cell_formula_units_Z   1
loop_
 _symmetry_equiv_pos_site_id
 _symmetry_equiv_pos_as_xyz
  1  'x, y, z'
loop_
 _atom_site_type_symbol
 _atom_site_label
 _atom_site_symmetry_multiplicity
 _atom_site_fract_x
 _atom_site_fract_y
 _atom_site_fract_z
 _atom_site_occupancy
  Al  Al0  1  0.11425728  0.09449760  0.40929080  1
  Al  Al1  1  0.22209345  0.20286030  0.13997744  1
  Al  Al2  1  0.89140614  0.20848579  0.65272171  1
  Al  Al3  1  0.43028642  0.08823881  0.39163920  1
  Al  Al4  1  0.54010119  0.21225014  0.14971262  1
  Al  Al5  1  0.11233333  0.10042113  0.89252905  1
  Al  Al6  1  0.22293528  0.20323820  0.65587565  1
  Al  Al7  1  0.89066217  0.21676092  0.15225165  1
  Al  Al8  1  0.43748801  0.09623462  0.89695284  1
  Al  Al9  1  0.54392136  0.20792551  0.64790728  1
  Al  Al10  1  0.22759350  0.54325882  0.13919194  1
  Al  Al11  1  0.77691915  0.43059393  0.89817805  1
  Al  Al12  1  0.88904537  0.53369392  0.62222324  1
  Al  Al13  1  0.44239725  0.43779963  0.39414828  1
  Al  Al14  1  0.56267779  0.53437214  0.14614133  1
  Al  Al15  1  0.11875009  0.42506280  0.89628979  1
  Al  Al16  1  0.22393551  0.53656796  0.65607479  1
  Al  Al17  1  0.77607048  0.42639926  0.39988128  1
  Al  Al18  1  0.89125952  0.53827757  0.09536204  1
  Al  Al19  1  0.43991676  0.43146099  0.89632426  1
  Al  Al20  1  0.55589652  0.53429780  0.64909383  1
  Al  Al21  1  0.12419453  0.75976839  0.40868358  1
  Al  Al22  1  0.77669183  0.76107352  0.89749244  1
  Al  Al23  1  0.89261005  0.86276046  0.65828367  1
  Al  Al24  1  0.44422847  0.75752935  0.40791727  1
  Al  Al25  1  0.55236967  0.87203395  0.13860392  1
  Al  Al26  1  0.11484633  0.75448742  0.89190004  1
  Al  Al27  1  0.22337386  0.87127232  0.64419797  1
  Al  Al28  1  0.89630196  0.86626082  0.14493642  1
  Al  Al29  1  0.44846829  0.75624595  0.89216461  1
  Al  Al30  1  0.55461588  0.87072604  0.65582049  1
  Gd  Gd31  1  0.77317643  0.10082522  0.89583826  1
  Gd  Gd32  1  0.77144569  0.10267497  0.38974282  1
  Gd  Gd33  1  0.13415730  0.42124181  0.38543439  1
  Gd  Gd34  1  0.22399683  0.87301224  0.15831397  1
  Gd  Gd35  1  0.76848929  0.77188459  0.38903083  1
  N  N36  1  0.22782998  0.17248859  0.32301657  1
  N  N37  1  0.09550078  0.11999683  0.07551978  1
  N  N38  1  0.90217585  0.22341816  0.83251613  1
  N  N39  1  0.77655368  0.09203294  0.62032155  1
  N  N40  1  0.50642168  0.22576144  0.33373386  1
  N  N41  1  0.44306961  0.09347068  0.08269766  1
  N  N42  1  0.22421981  0.20408008  0.84095834  1
  N  N43  1  0.11007000  0.09823008  0.59636005  1
  N  N44  1  0.90702632  0.21675875  0.33727201  1
  N  N45  1  0.77212593  0.10068731  0.12381470  1
  N  N46  1  0.51999808  0.22147449  0.83087806  1
  N  N47  1  0.44199561  0.08911627  0.58455968  1
  N  N48  1  0.24409818  0.56715551  0.32107931  1
  N  N49  1  0.12156771  0.42535424  0.09543574  1
  N  N50  1  0.89183469  0.53798998  0.88166289  1
  N  N51  1  0.77372462  0.42408078  0.59009061  1
  N  N52  1  0.56085816  0.53538398  0.33894999  1
  N  N53  1  0.44881264  0.42774376  0.08339500  1
  N  N54  1  0.22598525  0.53713196  0.84052187  1
  N  N55  1  0.11302830  0.42500504  0.61183216  1
  N  N56  1  0.88388203  0.52622753  0.36073907  1
  N  N57  1  0.77552238  0.42630239  0.08759068  1
  N  N58  1  0.55793333  0.53297436  0.83571016  1
  N  N59  1  0.44148271  0.42850422  0.58488686  1
  N  N60  1  0.22497966  0.87406173  0.38093571  1
  N  N61  1  0.10133270  0.75079731  0.07245957  1
  N  N62  1  0.90192112  0.84541619  0.83916876  1
  N  N63  1  0.77616353  0.75800055  0.61219394  1
  N  N64  1  0.51951451  0.87963012  0.32251495  1
  N  N65  1  0.47106196  0.74326306  0.07527571  1
  N  N66  1  0.22277884  0.87223766  0.83845197  1
  N  N67  1  0.11106515  0.75527709  0.59644600  1
  N  N68  1  0.93041586  0.85631582  0.32491727  1
  N  N69  1  0.77408807  0.76905412  0.09471008  1
  N  N70  1  0.55444143  0.87408924  0.84184664  1
  N  N71  1  0.45122380  0.75545748  0.59670378  1
