# generated using pymatgen
data_Gd5Al31N36
_symmetry_space_group_name_H-M   'P 1'
_cell_length_a   9.71666792
_cell_length_b   9.70970473
_cell_length_c   10.41484985
_cell_angle_alpha   90.06682456
_cell_angle_beta   90.53805842
_cell_angle_gamma   59.84014023
_symmetry_Int_Tables_number   1
_chemical_formula_structural   Gd5Al31N36
_chemical_formula_sum   'Gd5 Al31 N36'
_cell_volume   849.53714516
_cell_formula_units_Z   1
loop_
 _symmetry_equiv_pos_site_id
 _symmetry_equiv_pos_as_xyz
  1  'x, y, z'
loop_
 _atom_site_type_symbol
 _atom_site_label
 _atom_site_symmetry_multiplicity
 _atom_site_fract_x
 _atom_site_fract_y
 _atom_site_fract_z
 _atom_site_occupancy
  Al  Al0  1  0.11481704  0.09749240  0.31266431  1
  Al  Al1  1  0.22071894  0.21096876  0.05117109  1
  Al  Al2  1  0.89379265  0.20751019  0.55615236  1
  Al  Al3  1  0.43232178  0.09168088  0.31380677  1
  Al  Al4  1  0.54493768  0.21097735  0.05758269  1
  Al  Al5  1  0.11312519  0.10486119  0.80998464  1
  Al  Al6  1  0.22384401  0.20108434  0.56506740  1
  Al  Al7  1  0.89002372  0.22084251  0.05833170  1
  Al  Al8  1  0.43784018  0.09852460  0.80661915  1
  Al  Al9  1  0.54324961  0.21022717  0.55491872  1
  Al  Al10  1  0.22027133  0.53505322  0.05181690  1
  Al  Al11  1  0.78767359  0.42736976  0.80678938  1
  Al  Al12  1  0.88887060  0.53498114  0.56920581  1
  Al  Al13  1  0.43932693  0.43584385  0.31342859  1
  Al  Al14  1  0.55956303  0.54067168  0.12412985  1
  Al  Al15  1  0.11375324  0.42720592  0.80981590  1
  Al  Al16  1  0.22664401  0.54182026  0.56538145  1
  Al  Al17  1  0.78255098  0.42569907  0.31482156  1
  Al  Al18  1  0.88813175  0.53810608  0.04267320  1
  Al  Al19  1  0.43618579  0.42811705  0.81005426  1
  Al  Al20  1  0.55593661  0.53621617  0.62765049  1
  Al  Al21  1  0.11877190  0.75659777  0.31411211  1
  Al  Al22  1  0.78009062  0.75687950  0.80518464  1
  Al  Al23  1  0.89570243  0.86617277  0.56118882  1
  Al  Al24  1  0.42987244  0.76030418  0.38895396  1
  Al  Al25  1  0.56229342  0.87653107  0.04226286  1
  Al  Al26  1  0.11325888  0.74992862  0.80899103  1
  Al  Al27  1  0.22610321  0.86945390  0.63401229  1
  Al  Al28  1  0.89071223  0.85945110  0.04864401  1
  Al  Al29  1  0.45739381  0.74873251  0.86873632  1
  Al  Al30  1  0.55180174  0.87804459  0.56811741  1
  Gd  Gd31  1  0.77453853  0.10092813  0.81441341  1
  Gd  Gd32  1  0.77541416  0.09710805  0.31296287  1
  Gd  Gd33  1  0.11970153  0.42628842  0.30973905  1
  Gd  Gd34  1  0.21763165  0.87458407  0.08655193  1
  Gd  Gd35  1  0.76603429  0.75884401  0.30660315  1
  N  N36  1  0.23042679  0.18197938  0.38494600  1
  N  N37  1  0.09684371  0.13417483  0.12832047  1
  N  N38  1  0.90776910  0.22221005  0.87757620  1
  N  N39  1  0.77427333  0.09720149  0.58835516  1
  N  N40  1  0.51565075  0.22358401  0.37223009  1
  N  N41  1  0.44371168  0.09056539  0.12057840  1
  N  N42  1  0.22519996  0.20426085  0.86580396  1
  N  N43  1  0.10906655  0.09734234  0.62567003  1
  N  N44  1  0.90474334  0.21617322  0.37569440  1
  N  N45  1  0.78062258  0.09389353  0.08431529  1
  N  N46  1  0.52104866  0.22175297  0.87732595  1
  N  N47  1  0.44319274  0.09643641  0.62415174  1
  N  N48  1  0.24104351  0.55625190  0.38668778  1
  N  N49  1  0.10976722  0.42846844  0.08894911  1
  N  N50  1  0.88978955  0.53899056  0.85786538  1
  N  N51  1  0.78418017  0.42055672  0.62251969  1
  N  N52  1  0.55636921  0.54431615  0.32401744  1
  N  N53  1  0.43907534  0.42861168  0.12171475  1
  N  N54  1  0.22428986  0.53887110  0.86722815  1
  N  N55  1  0.11498095  0.42705413  0.61939798  1
  N  N56  1  0.88053751  0.52442546  0.39098759  1
  N  N57  1  0.78386798  0.43114790  0.12293609  1
  N  N58  1  0.55972666  0.53359500  0.81912813  1
  N  N59  1  0.44343558  0.42127880  0.62408794  1
  N  N60  1  0.22378545  0.87311692  0.31933115  1
  N  N61  1  0.09299521  0.73762185  0.12863046  1
  N  N62  1  0.90552046  0.84376551  0.86735767  1
  N  N63  1  0.77681907  0.76154424  0.61842326  1
  N  N64  1  0.52743945  0.88820669  0.38603805  1
  N  N65  1  0.47656244  0.74113448  0.05217010  1
  N  N66  1  0.22694832  0.87024109  0.83303793  1
  N  N67  1  0.11105389  0.75832498  0.62719580  1
  N  N68  1  0.91722580  0.85062619  0.38375754  1
  N  N69  1  0.77573363  0.75877918  0.08912694  1
  N  N70  1  0.55832852  0.87861111  0.85553846  1
  N  N71  1  0.44014882  0.75533609  0.57885068  1
