# generated using pymatgen
data_Gd5Al31N36
_symmetry_space_group_name_H-M   'P 1'
_cell_length_a   9.69823104
_cell_length_b   9.70394921
_cell_length_c   10.43792195
_cell_angle_alpha   90.58370500
_cell_angle_beta   90.60435142
_cell_angle_gamma   59.96556246
_symmetry_Int_Tables_number   1
_chemical_formula_structural   Gd5Al31N36
_chemical_formula_sum   'Gd5 Al31 N36'
_cell_volume   850.36184622
_cell_formula_units_Z   1
loop_
 _symmetry_equiv_pos_site_id
 _symmetry_equiv_pos_as_xyz
  1  'x, y, z'
loop_
 _atom_site_type_symbol
 _atom_site_label
 _atom_site_symmetry_multiplicity
 _atom_site_fract_x
 _atom_site_fract_y
 _atom_site_fract_z
 _atom_site_occupancy
  Al  Al0  1  0.11513877  0.09201002  0.40978188  1
  Al  Al1  1  0.22245112  0.20708778  0.14408612  1
  Al  Al2  1  0.88729512  0.20709611  0.65707023  1
  Al  Al3  1  0.43312456  0.09086971  0.40267340  1
  Al  Al4  1  0.54029829  0.21412137  0.15183603  1
  Al  Al5  1  0.10981401  0.10260683  0.89684494  1
  Al  Al6  1  0.22183220  0.19786754  0.65484399  1
  Al  Al7  1  0.89136799  0.22045991  0.15421251  1
  Al  Al8  1  0.42995450  0.10875974  0.89159174  1
  Al  Al9  1  0.54209977  0.21275991  0.65163968  1
  Al  Al10  1  0.22641689  0.54584950  0.14727146  1
  Al  Al11  1  0.77597220  0.42804111  0.89878266  1
  Al  Al12  1  0.88329649  0.53595582  0.59457503  1
  Al  Al13  1  0.44641832  0.43887359  0.39567267  1
  Al  Al14  1  0.56698591  0.53627534  0.14566899  1
  Al  Al15  1  0.10851566  0.43125207  0.82855878  1
  Al  Al16  1  0.22682500  0.54410357  0.65316768  1
  Al  Al17  1  0.77695924  0.41810814  0.41100274  1
  Al  Al18  1  0.90580567  0.53870089  0.06742098  1
  Al  Al19  1  0.43722494  0.43374420  0.90137153  1
  Al  Al20  1  0.55354789  0.53251399  0.65591565  1
  Al  Al21  1  0.12023150  0.76099949  0.40783289  1
  Al  Al22  1  0.77850498  0.75169972  0.82981630  1
  Al  Al23  1  0.89278076  0.86555199  0.65460972  1
  Al  Al24  1  0.43862699  0.75381695  0.42180308  1
  Al  Al25  1  0.56934550  0.87070765  0.05649690  1
  Al  Al26  1  0.11446839  0.75506035  0.89656884  1
  Al  Al27  1  0.21757811  0.87298901  0.65134981  1
  Al  Al28  1  0.90058169  0.86853356  0.14563953  1
  Al  Al29  1  0.44413853  0.75530077  0.88765241  1
  Al  Al30  1  0.55123594  0.87239307  0.60349698  1
  Gd  Gd31  1  0.77252927  0.09519646  0.90018432  1
  Gd  Gd32  1  0.77171947  0.09550572  0.39221586  1
  Gd  Gd33  1  0.14165466  0.41471458  0.38053497  1
  Gd  Gd34  1  0.23275173  0.87667966  0.15913194  1
  Gd  Gd35  1  0.76600570  0.74056964  0.32263050  1
  N  N36  1  0.23738806  0.16102406  0.32436514  1
  N  N37  1  0.09665781  0.12315450  0.07697674  1
  N  N38  1  0.89935371  0.22022663  0.83533716  1
  N  N39  1  0.77289246  0.09190457  0.61936603  1
  N  N40  1  0.50658933  0.22710249  0.33460321  1
  N  N41  1  0.44189035  0.09986988  0.07805975  1
  N  N42  1  0.21925066  0.20429532  0.83681303  1
  N  N43  1  0.10623492  0.09713450  0.59542372  1
  N  N44  1  0.90622460  0.21589001  0.33756295  1
  N  N45  1  0.77368305  0.10132943  0.12556400  1
  N  N46  1  0.51943976  0.22726883  0.83154618  1
  N  N47  1  0.43337193  0.10452013  0.59251070  1
  N  N48  1  0.24711667  0.56808977  0.32754067  1
  N  N49  1  0.11388750  0.43286432  0.13731559  1
  N  N50  1  0.89424721  0.53626966  0.88229161  1
  N  N51  1  0.76673610  0.41916772  0.59766992  1
  N  N52  1  0.56575802  0.53883990  0.33943428  1
  N  N53  1  0.44800036  0.43069320  0.08678076  1
  N  N54  1  0.22656004  0.54220202  0.83687174  1
  N  N55  1  0.10973032  0.42867114  0.63493791  1
  N  N56  1  0.89198962  0.51791492  0.41717430  1
  N  N57  1  0.78013051  0.42969450  0.08668139  1
  N  N58  1  0.55641731  0.53274913  0.83930013  1
  N  N59  1  0.44054196  0.42974860  0.58402228  1
  N  N60  1  0.22373614  0.87321969  0.37721807  1
  N  N61  1  0.10622420  0.75333101  0.07612593  1
  N  N62  1  0.90704101  0.84537837  0.83435882  1
  N  N63  1  0.77246114  0.75488574  0.64204741  1
  N  N64  1  0.53522251  0.87499321  0.40877458  1
  N  N65  1  0.47503823  0.74334969  0.07324988  1
  N  N66  1  0.21858657  0.87536548  0.84128596  1
  N  N67  1  0.10817610  0.75902248  0.59285485  1
  N  N68  1  0.92188473  0.84902817  0.32849361  1
  N  N69  1  0.78300151  0.76386406  0.10393510  1
  N  N70  1  0.55388025  0.87750891  0.86633539  1
  N  N71  1  0.44070906  0.75216270  0.60835874  1
