# generated using pymatgen
data_Gd5Al31N36
_symmetry_space_group_name_H-M   'P 1'
_cell_length_a   9.73331011
_cell_length_b   9.69835307
_cell_length_c   10.26478929
_cell_angle_alpha   90.38178502
_cell_angle_beta   90.13511824
_cell_angle_gamma   59.83059717
_symmetry_Int_Tables_number   1
_chemical_formula_structural   Gd5Al31N36
_chemical_formula_sum   'Gd5 Al31 N36'
_cell_volume   837.69401785
_cell_formula_units_Z   1
loop_
 _symmetry_equiv_pos_site_id
 _symmetry_equiv_pos_as_xyz
  1  'x, y, z'
loop_
 _atom_site_type_symbol
 _atom_site_label
 _atom_site_symmetry_multiplicity
 _atom_site_fract_x
 _atom_site_fract_y
 _atom_site_fract_z
 _atom_site_occupancy
  Al  Al0  1  0.11439919  0.09432661  0.40925512  1
  Al  Al1  1  0.22202862  0.20303065  0.13992104  1
  Al  Al2  1  0.89149918  0.20871602  0.65234989  1
  Al  Al3  1  0.43040819  0.08842990  0.39167944  1
  Al  Al4  1  0.54011068  0.21226270  0.14972474  1
  Al  Al5  1  0.11230428  0.10045476  0.89243277  1
  Al  Al6  1  0.22297964  0.20326455  0.65585894  1
  Al  Al7  1  0.89067833  0.21670502  0.15230422  1
  Al  Al8  1  0.43746538  0.09620881  0.89691573  1
  Al  Al9  1  0.54389736  0.20798182  0.64794804  1
  Al  Al10  1  0.22747105  0.54314357  0.13910797  1
  Al  Al11  1  0.77720744  0.43077452  0.89844189  1
  Al  Al12  1  0.88905171  0.53404228  0.63771926  1
  Al  Al13  1  0.44225850  0.43771864  0.39417363  1
  Al  Al14  1  0.56272322  0.53434402  0.14613842  1
  Al  Al15  1  0.11804194  0.42536313  0.89692504  1
  Al  Al16  1  0.22397993  0.53654101  0.65604791  1
  Al  Al17  1  0.77745519  0.42751597  0.39916939  1
  Al  Al18  1  0.89068899  0.53788954  0.10755695  1
  Al  Al19  1  0.43989105  0.43150814  0.89622629  1
  Al  Al20  1  0.55618137  0.53435143  0.64877991  1
  Al  Al21  1  0.12403629  0.75972931  0.40862838  1
  Al  Al22  1  0.77703416  0.76041290  0.89808751  1
  Al  Al23  1  0.89260436  0.86285583  0.65829621  1
  Al  Al24  1  0.44429095  0.75751647  0.40783424  1
  Al  Al25  1  0.55261874  0.87193418  0.13858021  1
  Al  Al26  1  0.11484615  0.75447284  0.89188277  1
  Al  Al27  1  0.22341386  0.87125587  0.64425446  1
  Al  Al28  1  0.89618381  0.86616027  0.14485572  1
  Al  Al29  1  0.44857298  0.75619150  0.89208781  1
  Al  Al30  1  0.55464177  0.87078749  0.65586072  1
  Gd  Gd31  1  0.77320548  0.10086569  0.89578544  1
  Gd  Gd32  1  0.77122324  0.10271881  0.38980653  1
  Gd  Gd33  1  0.13199493  0.42206981  0.38608168  1
  Gd  Gd34  1  0.22403033  0.87302617  0.15805667  1
  Gd  Gd35  1  0.76947896  0.76967720  0.38997227  1
  N  N36  1  0.22780731  0.17292049  0.32314943  1
  N  N37  1  0.09545752  0.12004529  0.07555375  1
  N  N38  1  0.90216338  0.22344398  0.83227685  1
  N  N39  1  0.77651827  0.09222353  0.62029525  1
  N  N40  1  0.50651620  0.22581778  0.33369496  1
  N  N41  1  0.44309052  0.09345355  0.08276818  1
  N  N42  1  0.22415954  0.20418020  0.84097640  1
  N  N43  1  0.11025636  0.09808198  0.59629909  1
  N  N44  1  0.90712467  0.21672530  0.33766711  1
  N  N45  1  0.77219845  0.10063201  0.12391400  1
  N  N46  1  0.51999828  0.22148974  0.83091088  1
  N  N47  1  0.44202760  0.08916918  0.58458668  1
  N  N48  1  0.24359185  0.56665607  0.32126549  1
  N  N49  1  0.12096440  0.42563884  0.09423137  1
  N  N50  1  0.89135865  0.53786433  0.87247196  1
  N  N51  1  0.77502215  0.42543519  0.58947309  1
  N  N52  1  0.56098571  0.53534483  0.33917170  1
  N  N53  1  0.44877547  0.42778148  0.08345035  1
  N  N54  1  0.22588394  0.53712153  0.84054861  1
  N  N55  1  0.11217851  0.42546418  0.61164525  1
  N  N56  1  0.88324556  0.52617708  0.34415963  1
  N  N57  1  0.77565512  0.42625579  0.08665011  1
  N  N58  1  0.55802852  0.53290705  0.83553764  1
  N  N59  1  0.44162495  0.42849922  0.58489931  1
  N  N60  1  0.22502662  0.87392986  0.38069643  1
  N  N61  1  0.10135196  0.75080123  0.07257589  1
  N  N62  1  0.90191586  0.84544453  0.83924887  1
  N  N63  1  0.77664556  0.75722285  0.61231532  1
  N  N64  1  0.52023925  0.87964048  0.32271485  1
  N  N65  1  0.47115829  0.74321550  0.07534384  1
  N  N66  1  0.22280739  0.87222193  0.83851485  1
  N  N67  1  0.11107799  0.75532282  0.59638863  1
  N  N68  1  0.92976129  0.85602806  0.32506744  1
  N  N69  1  0.77446584  0.76838293  0.09355503  1
  N  N70  1  0.55445099  0.87410812  0.84190127  1
  N  N71  1  0.45118570  0.75557030  0.59662804  1
