# generated using pymatgen
data_Gd5Al31N36
_symmetry_space_group_name_H-M   'P 1'
_cell_length_a   9.71063031
_cell_length_b   9.68789893
_cell_length_c   10.29263152
_cell_angle_alpha   89.99790025
_cell_angle_beta   90.29177487
_cell_angle_gamma   59.88199584
_symmetry_Int_Tables_number   1
_chemical_formula_structural   Gd5Al31N36
_chemical_formula_sum   'Gd5 Al31 N36'
_cell_volume   837.54635336
_cell_formula_units_Z   1
loop_
 _symmetry_equiv_pos_site_id
 _symmetry_equiv_pos_as_xyz
  1  'x, y, z'
loop_
 _atom_site_type_symbol
 _atom_site_label
 _atom_site_symmetry_multiplicity
 _atom_site_fract_x
 _atom_site_fract_y
 _atom_site_fract_z
 _atom_site_occupancy
  Al  Al0  1  0.11438215  0.09700076  0.31578598  1
  Al  Al1  1  0.22191937  0.20891694  0.05248391  1
  Al  Al2  1  0.89134231  0.21055193  0.55764469  1
  Al  Al3  1  0.43239895  0.09284052  0.31576705  1
  Al  Al4  1  0.54546158  0.21016234  0.05944218  1
  Al  Al5  1  0.11426728  0.09965342  0.80753216  1
  Al  Al6  1  0.22466453  0.20167009  0.56655360  1
  Al  Al7  1  0.89195777  0.21773564  0.05919722  1
  Al  Al8  1  0.43756490  0.09734001  0.81051088  1
  Al  Al9  1  0.54386253  0.21082485  0.55810888  1
  Al  Al10  1  0.22194148  0.53526288  0.05266222  1
  Al  Al11  1  0.77901050  0.43139339  0.80998567  1
  Al  Al12  1  0.88609941  0.53670186  0.57245609  1
  Al  Al13  1  0.44182468  0.43580275  0.31372854  1
  Al  Al14  1  0.56383471  0.53522818  0.06438031  1
  Al  Al15  1  0.11409874  0.42707047  0.81106298  1
  Al  Al16  1  0.22844345  0.54081642  0.56679785  1
  Al  Al17  1  0.77621813  0.42826049  0.31389033  1
  Al  Al18  1  0.89016204  0.53612814  0.04340876  1
  Al  Al19  1  0.43989796  0.43241909  0.81268874  1
  Al  Al20  1  0.55759357  0.53512988  0.56219178  1
  Al  Al21  1  0.11947453  0.75597061  0.31679471  1
  Al  Al22  1  0.77873879  0.75650381  0.81015797  1
  Al  Al23  1  0.89407387  0.86563924  0.56297916  1
  Al  Al24  1  0.44360337  0.75946867  0.31827984  1
  Al  Al25  1  0.55896687  0.87068324  0.05126460  1
  Al  Al26  1  0.11632777  0.75376406  0.80584736  1
  Al  Al27  1  0.22234292  0.87197422  0.58200580  1
  Al  Al28  1  0.89274149  0.85901407  0.04845188  1
  Al  Al29  1  0.44837193  0.75709075  0.80766444  1
  Al  Al30  1  0.54953194  0.87554967  0.56834938  1
  Gd  Gd31  1  0.77475188  0.10060457  0.81584765  1
  Gd  Gd32  1  0.77601237  0.09668355  0.31488166  1
  Gd  Gd33  1  0.11654402  0.42758488  0.31277407  1
  Gd  Gd34  1  0.22249038  0.87134143  0.07170439  1
  Gd  Gd35  1  0.76599642  0.75967173  0.30623563  1
  N  N36  1  0.23042858  0.18276139  0.38515390  1
  N  N37  1  0.09976965  0.12716743  0.12990921  1
  N  N38  1  0.90740869  0.22281654  0.87646550  1
  N  N39  1  0.77445423  0.09735629  0.58837970  1
  N  N40  1  0.51639818  0.22300428  0.37359354  1
  N  N41  1  0.44391094  0.09096754  0.12215736  1
  N  N42  1  0.22382396  0.20323442  0.86556941  1
  N  N43  1  0.10879469  0.09649441  0.62170867  1
  N  N44  1  0.90344717  0.21848865  0.37528797  1
  N  N45  1  0.78079857  0.09285451  0.08440151  1
  N  N46  1  0.52011270  0.22285476  0.87764922  1
  N  N47  1  0.44418040  0.09542926  0.62589556  1
  N  N48  1  0.24147040  0.55346945  0.38579839  1
  N  N49  1  0.11117148  0.42753333  0.08974267  1
  N  N50  1  0.88964192  0.53728076  0.85747664  1
  N  N51  1  0.77501080  0.42537222  0.62551513  1
  N  N52  1  0.55926348  0.53454481  0.37304011  1
  N  N53  1  0.44338409  0.43128662  0.12246435  1
  N  N54  1  0.22469758  0.54047743  0.86598430  1
  N  N55  1  0.11466510  0.42768320  0.61905246  1
  N  N56  1  0.87558057  0.52635129  0.39189572  1
  N  N57  1  0.77997614  0.43095379  0.12268934  1
  N  N58  1  0.55798383  0.53705014  0.87364385  1
  N  N59  1  0.44840129  0.42674768  0.62594726  1
  N  N60  1  0.22099446  0.87390689  0.35057425  1
  N  N61  1  0.09629060  0.74019767  0.12998163  1
  N  N62  1  0.90702517  0.84274227  0.86540595  1
  N  N63  1  0.77448944  0.76316290  0.62068377  1
  N  N64  1  0.52476265  0.88595706  0.38657196  1
  N  N65  1  0.47960481  0.74623151  0.13097683  1
  N  N66  1  0.22327018  0.87239389  0.84681763  1
  N  N67  1  0.11249749  0.76007373  0.62257608  1
  N  N68  1  0.91666667  0.84941996  0.38390432  1
  N  N69  1  0.77806797  0.75717346  0.08647766  1
  N  N70  1  0.55238753  0.87387752  0.86389544  1
  N  N71  1  0.44735860  0.75571413  0.62105648  1
