# generated using pymatgen
data_Gd5Al31N36
_symmetry_space_group_name_H-M   'P 1'
_cell_length_a   9.68078363
_cell_length_b   9.62820240
_cell_length_c   10.69118865
_cell_angle_alpha   91.07740634
_cell_angle_beta   91.38043426
_cell_angle_gamma   60.15666643
_symmetry_Int_Tables_number   1
_chemical_formula_structural   Gd5Al31N36
_chemical_formula_sum   'Gd5 Al31 N36'
_cell_volume   864.08471441
_cell_formula_units_Z   1
loop_
 _symmetry_equiv_pos_site_id
 _symmetry_equiv_pos_as_xyz
  1  'x, y, z'
loop_
 _atom_site_type_symbol
 _atom_site_label
 _atom_site_symmetry_multiplicity
 _atom_site_fract_x
 _atom_site_fract_y
 _atom_site_fract_z
 _atom_site_occupancy
  Al  Al0  1  0.11481469  0.08458691  0.41019330  1
  Al  Al1  1  0.22715673  0.21550472  0.05290005  1
  Al  Al2  1  0.89367229  0.20999982  0.63758562  1
  Al  Al3  1  0.43449104  0.09097156  0.32665780  1
  Al  Al4  1  0.55045335  0.20964257  0.07427503  1
  Al  Al5  1  0.10585822  0.09579748  0.88277316  1
  Al  Al6  1  0.22992007  0.20083652  0.58196843  1
  Al  Al7  1  0.89621328  0.22007328  0.13289059  1
  Al  Al8  1  0.43294009  0.09896930  0.81918239  1
  Al  Al9  1  0.54162702  0.21550727  0.56197142  1
  Al  Al10  1  0.22128928  0.54837090  0.13169670  1
  Al  Al11  1  0.77575854  0.42493671  0.88661516  1
  Al  Al12  1  0.88542515  0.53950040  0.58316715  1
  Al  Al13  1  0.44625361  0.43292619  0.31196487  1
  Al  Al14  1  0.57293919  0.53992194  0.13557266  1
  Al  Al15  1  0.10486436  0.42252149  0.81714257  1
  Al  Al16  1  0.22182919  0.53872832  0.64889058  1
  Al  Al17  1  0.77212935  0.42469420  0.40167850  1
  Al  Al18  1  0.89867167  0.54484941  0.04714665  1
  Al  Al19  1  0.43595190  0.42878375  0.84000103  1
  Al  Al20  1  0.55665486  0.53432933  0.64882318  1
  Al  Al21  1  0.13061908  0.74798583  0.40776663  1
  Al  Al22  1  0.77727188  0.75542038  0.81672304  1
  Al  Al23  1  0.89069448  0.86421786  0.57156110  1
  Al  Al24  1  0.43976542  0.75542252  0.41221391  1
  Al  Al25  1  0.56465433  0.87768316  0.05184663  1
  Al  Al26  1  0.11835101  0.75218251  0.88625814  1
  Al  Al27  1  0.22463668  0.86766869  0.64775795  1
  Al  Al28  1  0.88691780  0.87355348  0.05292168  1
  Al  Al29  1  0.44684657  0.75514992  0.88560770  1
  Al  Al30  1  0.55461968  0.87787878  0.58197057  1
  Gd  Gd31  1  0.75475889  0.09820622  0.81563059  1
  Gd  Gd32  1  0.78039199  0.09428275  0.33605931  1
  Gd  Gd33  1  0.10910535  0.41251367  0.32419815  1
  Gd  Gd34  1  0.23047125  0.87744466  0.14845265  1
  Gd  Gd35  1  0.76321032  0.75515976  0.31057757  1
  N  N36  1  0.24151347  0.17659813  0.40498451  1
  N  N37  1  0.09778858  0.11886932  0.06208304  1
  N  N38  1  0.89882663  0.21947116  0.81682537  1
  N  N39  1  0.77494016  0.09605856  0.59589458  1
  N  N40  1  0.51697264  0.22782407  0.38219513  1
  N  N41  1  0.44260638  0.09039913  0.13527103  1
  N  N42  1  0.22224364  0.20629438  0.87141676  1
  N  N43  1  0.10923806  0.08809047  0.59101844  1
  N  N44  1  0.91789322  0.22463769  0.31969533  1
  N  N45  1  0.78111235  0.09539473  0.10985583  1
  N  N46  1  0.51348766  0.22306256  0.90020946  1
  N  N47  1  0.44869766  0.09700555  0.64028006  1
  N  N48  1  0.22931243  0.56266346  0.31482704  1
  N  N49  1  0.11309106  0.43036657  0.10618606  1
  N  N50  1  0.88851179  0.53826173  0.86774782  1
  N  N51  1  0.76687416  0.42292957  0.58396727  1
  N  N52  1  0.56467550  0.54597664  0.32643053  1
  N  N53  1  0.45334862  0.42729054  0.12644500  1
  N  N54  1  0.21589896  0.54173556  0.82992647  1
  N  N55  1  0.10711720  0.42146091  0.63328980  1
  N  N56  1  0.87860579  0.53546232  0.40948191  1
  N  N57  1  0.78107842  0.43000618  0.07058270  1
  N  N58  1  0.55827402  0.53593449  0.83169771  1
  N  N59  1  0.44499263  0.42003893  0.63405139  1
  N  N60  1  0.22336368  0.86964011  0.36201477  1
  N  N61  1  0.11130321  0.75159896  0.06469843  1
  N  N62  1  0.89581925  0.85123684  0.87299384  1
  N  N63  1  0.77601106  0.76198521  0.63604955  1
  N  N64  1  0.53250242  0.88793311  0.40227472  1
  N  N65  1  0.47301218  0.74570716  0.06554915  1
  N  N66  1  0.22348909  0.87005935  0.83167968  1
  N  N67  1  0.12185819  0.75030780  0.59089168  1
  N  N68  1  0.91087465  0.84664903  0.39519537  1
  N  N69  1  0.78194498  0.76257513  0.09765982  1
  N  N70  1  0.55539781  0.87952830  0.87018471  1
  N  N71  1  0.44562618  0.75281368  0.59436827  1
