# generated using pymatgen
data_Gd5Al31N36
_symmetry_space_group_name_H-M   'P 1'
_cell_length_a   9.71351804
_cell_length_b   9.68519504
_cell_length_c   10.49160823
_cell_angle_alpha   90.59585520
_cell_angle_beta   90.59566775
_cell_angle_gamma   59.98530246
_symmetry_Int_Tables_number   1
_chemical_formula_structural   Gd5Al31N36
_chemical_formula_sum   'Gd5 Al31 N36'
_cell_volume   854.59821211
_cell_formula_units_Z   1
loop_
 _symmetry_equiv_pos_site_id
 _symmetry_equiv_pos_as_xyz
  1  'x, y, z'
loop_
 _atom_site_type_symbol
 _atom_site_label
 _atom_site_symmetry_multiplicity
 _atom_site_fract_x
 _atom_site_fract_y
 _atom_site_fract_z
 _atom_site_occupancy
  Al  Al0  1  0.12010426  0.08200925  0.37772616  1
  Al  Al1  1  0.22086108  0.21243090  0.04128263  1
  Al  Al2  1  0.88369401  0.21277162  0.56245371  1
  Al  Al3  1  0.43410022  0.08922185  0.31259231  1
  Al  Al4  1  0.54245533  0.21332916  0.05651277  1
  Al  Al5  1  0.11203477  0.10256461  0.81504618  1
  Al  Al6  1  0.22757799  0.20607030  0.57207375  1
  Al  Al7  1  0.88883631  0.21989526  0.04790608  1
  Al  Al8  1  0.43786255  0.09893574  0.80522233  1
  Al  Al9  1  0.54498341  0.21015895  0.55314275  1
  Al  Al10  1  0.21953121  0.53942261  0.05175934  1
  Al  Al11  1  0.78400307  0.43083023  0.80378291  1
  Al  Al12  1  0.88843655  0.53634852  0.56725888  1
  Al  Al13  1  0.43891461  0.43319786  0.31090343  1
  Al  Al14  1  0.56102451  0.54129064  0.12793023  1
  Al  Al15  1  0.11157598  0.43169196  0.80873094  1
  Al  Al16  1  0.22544998  0.54156958  0.56388518  1
  Al  Al17  1  0.78623201  0.42219764  0.31292266  1
  Al  Al18  1  0.88900734  0.53756455  0.04124637  1
  Al  Al19  1  0.43368088  0.43007235  0.80942654  1
  Al  Al20  1  0.55300811  0.53922553  0.63124251  1
  Al  Al21  1  0.11642072  0.75233879  0.31720270  1
  Al  Al22  1  0.77984752  0.75664631  0.80521658  1
  Al  Al23  1  0.89500355  0.86724162  0.56122291  1
  Al  Al24  1  0.43657586  0.75364891  0.39249670  1
  Al  Al25  1  0.56445272  0.87678244  0.04140907  1
  Al  Al26  1  0.11397855  0.75211526  0.80818915  1
  Al  Al27  1  0.22843578  0.86705106  0.63413280  1
  Al  Al28  1  0.89300949  0.86047613  0.04711920  1
  Al  Al29  1  0.45385949  0.75127526  0.87210393  1
  Al  Al30  1  0.55384169  0.87764773  0.56670724  1
  Gd  Gd31  1  0.76886769  0.09816802  0.81434652  1
  Gd  Gd32  1  0.77863562  0.09605104  0.30639615  1
  Gd  Gd33  1  0.12106442  0.41677702  0.30468962  1
  Gd  Gd34  1  0.22643267  0.87777883  0.11067470  1
  Gd  Gd35  1  0.76830899  0.75636509  0.30415108  1
  N  N36  1  0.23647281  0.18028459  0.39234217  1
  N  N37  1  0.09794820  0.12995943  0.09316315  1
  N  N38  1  0.89919567  0.22429276  0.86563330  1
  N  N39  1  0.77224846  0.09781538  0.59114518  1
  N  N40  1  0.52066082  0.22033098  0.37056967  1
  N  N41  1  0.44177529  0.09180601  0.11968286  1
  N  N42  1  0.22345910  0.20858884  0.85600580  1
  N  N43  1  0.10977657  0.09509886  0.61318884  1
  N  N44  1  0.90216870  0.21661689  0.38238122  1
  N  N45  1  0.77737029  0.09626757  0.07987691  1
  N  N46  1  0.51612611  0.22571006  0.87807513  1
  N  N47  1  0.44711698  0.09563297  0.62429826  1
  N  N48  1  0.23951716  0.55048791  0.38490532  1
  N  N49  1  0.11073143  0.42982049  0.08572575  1
  N  N50  1  0.88827697  0.53964042  0.85782467  1
  N  N51  1  0.78016917  0.42671963  0.62135032  1
  N  N52  1  0.55731136  0.54338019  0.31876517  1
  N  N53  1  0.43752215  0.43021471  0.12213374  1
  N  N54  1  0.22307257  0.54251079  0.86776434  1
  N  N55  1  0.11274628  0.43066213  0.62043302  1
  N  N56  1  0.88301289  0.52280620  0.38964477  1
  N  N57  1  0.78658837  0.42830072  0.12277421  1
  N  N58  1  0.55613572  0.53751741  0.81693415  1
  N  N59  1  0.44168802  0.42213902  0.62323896  1
  N  N60  1  0.22365329  0.86899105  0.33556223  1
  N  N61  1  0.09249782  0.74292814  0.13123838  1
  N  N62  1  0.90735508  0.84177859  0.86745450  1
  N  N63  1  0.77685491  0.76226616  0.61871072  1
  N  N64  1  0.52960454  0.88563930  0.38463833  1
  N  N65  1  0.48059391  0.73937771  0.05230307  1
  N  N66  1  0.22847403  0.87115167  0.82668172  1
  N  N67  1  0.11046641  0.75814691  0.62606551  1
  N  N68  1  0.91449538  0.85322771  0.38466364  1
  N  N69  1  0.77744477  0.75967348  0.08861646  1
  N  N70  1  0.55800743  0.88028120  0.85635565  1
  N  N71  1  0.44244878  0.75429515  0.57732289  1
