# generated using pymatgen
data_Gd5Al31N36
_symmetry_space_group_name_H-M   'P 1'
_cell_length_a   9.68081860
_cell_length_b   9.63177415
_cell_length_c   10.67469981
_cell_angle_alpha   91.05656275
_cell_angle_beta   91.38639203
_cell_angle_gamma   60.15357724
_symmetry_Int_Tables_number   1
_chemical_formula_structural   Gd5Al31N36
_chemical_formula_sum   'Gd5 Al31 N36'
_cell_volume   863.04951406
_cell_formula_units_Z   1
loop_
 _symmetry_equiv_pos_site_id
 _symmetry_equiv_pos_as_xyz
  1  'x, y, z'
loop_
 _atom_site_type_symbol
 _atom_site_label
 _atom_site_symmetry_multiplicity
 _atom_site_fract_x
 _atom_site_fract_y
 _atom_site_fract_z
 _atom_site_occupancy
  Al  Al0  1  0.11522986  0.08448181  0.41032954  1
  Al  Al1  1  0.22693390  0.21543331  0.05280825  1
  Al  Al2  1  0.89363558  0.21028304  0.63731015  1
  Al  Al3  1  0.43447968  0.08986161  0.32582125  1
  Al  Al4  1  0.55154318  0.20655447  0.07618430  1
  Al  Al5  1  0.10565897  0.09590125  0.88260236  1
  Al  Al6  1  0.23001437  0.20131848  0.58219213  1
  Al  Al7  1  0.89625132  0.22027050  0.13312591  1
  Al  Al8  1  0.43271494  0.09904399  0.81871985  1
  Al  Al9  1  0.54128551  0.21619735  0.55977039  1
  Al  Al10  1  0.21977818  0.54955495  0.13160435  1
  Al  Al11  1  0.77591310  0.42480418  0.88624350  1
  Al  Al12  1  0.88563490  0.53951680  0.58352642  1
  Al  Al13  1  0.44602901  0.43325798  0.31518767  1
  Al  Al14  1  0.57309729  0.54062855  0.13537034  1
  Al  Al15  1  0.10530472  0.42250486  0.81683806  1
  Al  Al16  1  0.22680826  0.53663362  0.64938088  1
  Al  Al17  1  0.77220535  0.42443391  0.40199942  1
  Al  Al18  1  0.89854247  0.54490350  0.04706816  1
  Al  Al19  1  0.43365203  0.43370349  0.86752928  1
  Al  Al20  1  0.55449151  0.53257814  0.64837411  1
  Al  Al21  1  0.13146894  0.74705448  0.40850663  1
  Al  Al22  1  0.77719272  0.75564076  0.81641854  1
  Al  Al23  1  0.89129613  0.86366391  0.57200436  1
  Al  Al24  1  0.43979822  0.75500669  0.41277021  1
  Al  Al25  1  0.56454554  0.87750627  0.05145050  1
  Al  Al26  1  0.11745707  0.75325123  0.88536236  1
  Al  Al27  1  0.22469837  0.86764164  0.64767162  1
  Al  Al28  1  0.88654692  0.87400881  0.05257320  1
  Al  Al29  1  0.44669532  0.75550337  0.88486856  1
  Al  Al30  1  0.55460658  0.87782583  0.58216881  1
  Gd  Gd31  1  0.75293180  0.09971564  0.81445502  1
  Gd  Gd32  1  0.78227936  0.09311575  0.33701768  1
  Gd  Gd33  1  0.10920036  0.41257784  0.32459186  1
  Gd  Gd34  1  0.23034444  0.87742427  0.14832724  1
  Gd  Gd35  1  0.76333018  0.75520618  0.31066406  1
  N  N36  1  0.24180228  0.17652285  0.40486723  1
  N  N37  1  0.09765179  0.11894751  0.06214584  1
  N  N38  1  0.89851770  0.21932826  0.81688298  1
  N  N39  1  0.77502796  0.09613094  0.59483427  1
  N  N40  1  0.51839732  0.22519281  0.37825002  1
  N  N41  1  0.44210714  0.08969302  0.13510740  1
  N  N42  1  0.22213481  0.20634525  0.87120634  1
  N  N43  1  0.10939006  0.08832148  0.59120532  1
  N  N44  1  0.91837800  0.22478633  0.31973660  1
  N  N45  1  0.78121041  0.09539829  0.11056033  1
  N  N46  1  0.51397909  0.22042516  0.90196290  1
  N  N47  1  0.44914371  0.09737189  0.63987274  1
  N  N48  1  0.22982274  0.56275548  0.31333738  1
  N  N49  1  0.11296813  0.43034957  0.10613606  1
  N  N50  1  0.88853316  0.53835834  0.86746282  1
  N  N51  1  0.76681914  0.42342364  0.58461039  1
  N  N52  1  0.56476838  0.54490916  0.32516396  1
  N  N53  1  0.45126965  0.43017645  0.11778523  1
  N  N54  1  0.21829346  0.54075895  0.83122293  1
  N  N55  1  0.10774125  0.42199373  0.63365534  1
  N  N56  1  0.87840023  0.53535395  0.40936736  1
  N  N57  1  0.78110668  0.43008789  0.07049513  1
  N  N58  1  0.55676239  0.53429123  0.83283358  1
  N  N59  1  0.44307982  0.42411085  0.61780555  1
  N  N60  1  0.22342905  0.86934877  0.36224894  1
  N  N61  1  0.11058909  0.75232609  0.06421849  1
  N  N62  1  0.89515943  0.85222904  0.87225212  1
  N  N63  1  0.77601409  0.76206943  0.63583809  1
  N  N64  1  0.53238110  0.88726949  0.40206082  1
  N  N65  1  0.47287030  0.74597769  0.06525802  1
  N  N66  1  0.22336525  0.87035279  0.83181882  1
  N  N67  1  0.12180717  0.75019009  0.59204450  1
  N  N68  1  0.91192890  0.84523276  0.39527921  1
  N  N69  1  0.78184620  0.76273438  0.09732777  1
  N  N70  1  0.55528229  0.87931573  0.86961839  1
  N  N71  1  0.44595808  0.75300183  0.59525585  1
