# generated using pymatgen
data_Gd5Al31N36
_symmetry_space_group_name_H-M   'P 1'
_cell_length_a   9.68010091
_cell_length_b   9.64732500
_cell_length_c   10.59841532
_cell_angle_alpha   90.82512194
_cell_angle_beta   90.79530294
_cell_angle_gamma   60.17600132
_symmetry_Int_Tables_number   1
_chemical_formula_structural   Gd5Al31N36
_chemical_formula_sum   'Gd5 Al31 N36'
_cell_volume   858.55435133
_cell_formula_units_Z   1
loop_
 _symmetry_equiv_pos_site_id
 _symmetry_equiv_pos_as_xyz
  1  'x, y, z'
loop_
 _atom_site_type_symbol
 _atom_site_label
 _atom_site_symmetry_multiplicity
 _atom_site_fract_x
 _atom_site_fract_y
 _atom_site_fract_z
 _atom_site_occupancy
  Al  Al0  1  0.12062735  0.07863083  0.40079727  1
  Al  Al1  1  0.22841417  0.21509235  0.03946108  1
  Al  Al2  1  0.88265466  0.21275185  0.56133754  1
  Al  Al3  1  0.43285507  0.09165202  0.31322523  1
  Al  Al4  1  0.54516589  0.21249498  0.05506572  1
  Al  Al5  1  0.11342606  0.09773510  0.86809725  1
  Al  Al6  1  0.22748472  0.20686706  0.57008548  1
  Al  Al7  1  0.88137828  0.22181294  0.04465586  1
  Al  Al8  1  0.43727704  0.09869613  0.80348669  1
  Al  Al9  1  0.54509420  0.21065925  0.55170676  1
  Al  Al10  1  0.22150097  0.53927092  0.05147674  1
  Al  Al11  1  0.78356862  0.43002336  0.80107861  1
  Al  Al12  1  0.88716094  0.53795380  0.56838162  1
  Al  Al13  1  0.43807412  0.43327470  0.31028390  1
  Al  Al14  1  0.56314692  0.54023482  0.12936370  1
  Al  Al15  1  0.11246842  0.43027346  0.80627340  1
  Al  Al16  1  0.22527860  0.54266158  0.56345489  1
  Al  Al17  1  0.78331016  0.42316265  0.31772719  1
  Al  Al18  1  0.89052493  0.53640720  0.03992643  1
  Al  Al19  1  0.43422916  0.42953233  0.80861007  1
  Al  Al20  1  0.55121937  0.54139166  0.63187277  1
  Al  Al21  1  0.11586136  0.75231862  0.31767034  1
  Al  Al22  1  0.78098833  0.75544253  0.80592055  1
  Al  Al23  1  0.89588897  0.86607235  0.55965017  1
  Al  Al24  1  0.43404299  0.75539046  0.39554388  1
  Al  Al25  1  0.56676338  0.87572697  0.03975951  1
  Al  Al26  1  0.11504819  0.75137315  0.80777354  1
  Al  Al27  1  0.22556257  0.87425255  0.63825780  1
  Al  Al28  1  0.89604341  0.85993235  0.04645910  1
  Al  Al29  1  0.45290859  0.75121220  0.87281381  1
  Al  Al30  1  0.55410574  0.87809071  0.56675040  1
  Gd  Gd31  1  0.76786329  0.09426655  0.80877705  1
  Gd  Gd32  1  0.77882770  0.09443488  0.30567768  1
  Gd  Gd33  1  0.11520595  0.42069851  0.30573082  1
  Gd  Gd34  1  0.23241873  0.87861100  0.12158241  1
  Gd  Gd35  1  0.76408044  0.75671839  0.30200273  1
  N  N36  1  0.23439899  0.18389854  0.38792859  1
  N  N37  1  0.10258147  0.12066299  0.05319995  1
  N  N38  1  0.89053815  0.22538187  0.86268418  1
  N  N39  1  0.77214260  0.09675809  0.58901765  1
  N  N40  1  0.52168548  0.22117454  0.37081590  1
  N  N41  1  0.44327002  0.09041977  0.11973662  1
  N  N42  1  0.22503837  0.21002756  0.85485832  1
  N  N43  1  0.11208505  0.08985468  0.58651522  1
  N  N44  1  0.89982510  0.21718151  0.38048534  1
  N  N45  1  0.77846635  0.09518956  0.08100109  1
  N  N46  1  0.51729780  0.22521211  0.87829450  1
  N  N47  1  0.44696946  0.09627431  0.62393079  1
  N  N48  1  0.23919739  0.55042208  0.38520767  1
  N  N49  1  0.11192641  0.42887784  0.08801123  1
  N  N50  1  0.88960373  0.53764176  0.85778613  1
  N  N51  1  0.77907771  0.42711407  0.62067278  1
  N  N52  1  0.55481984  0.54668007  0.31795169  1
  N  N53  1  0.43950631  0.42860312  0.12264531  1
  N  N54  1  0.22399023  0.54175130  0.86845874  1
  N  N55  1  0.11229026  0.43113151  0.62010741  1
  N  N56  1  0.87818022  0.52702697  0.39286049  1
  N  N57  1  0.79022030  0.42607731  0.12487942  1
  N  N58  1  0.55539566  0.53908591  0.81523874  1
  N  N59  1  0.44123119  0.42202388  0.62341536  1
  N  N60  1  0.22160156  0.87153662  0.33683580  1
  N  N61  1  0.09669408  0.74386962  0.13096179  1
  N  N62  1  0.90953937  0.84028982  0.86904334  1
  N  N63  1  0.77658434  0.76341583  0.62115005  1
  N  N64  1  0.52791184  0.88800622  0.38611478  1
  N  N65  1  0.48105830  0.73778304  0.05176447  1
  N  N66  1  0.22828179  0.87288619  0.82557422  1
  N  N67  1  0.11044683  0.75886567  0.62712632  1
  N  N68  1  0.91363469  0.85044962  0.38413171  1
  N  N69  1  0.77978190  0.75849208  0.08777683  1
  N  N70  1  0.55849081  0.88024796  0.85717787  1
  N  N71  1  0.44089130  0.75606433  0.57795327  1
