# generated using pymatgen
data_Gd5Al31N36
_symmetry_space_group_name_H-M   'P 1'
_cell_length_a   9.70167810
_cell_length_b   9.67271459
_cell_length_c   10.29059318
_cell_angle_alpha   90.00530229
_cell_angle_beta   90.22135456
_cell_angle_gamma   59.95412420
_symmetry_Int_Tables_number   1
_chemical_formula_structural   Gd5Al31N36
_chemical_formula_sum   'Gd5 Al31 N36'
_cell_volume   835.91304417
_cell_formula_units_Z   1
loop_
 _symmetry_equiv_pos_site_id
 _symmetry_equiv_pos_as_xyz
  1  'x, y, z'
loop_
 _atom_site_type_symbol
 _atom_site_label
 _atom_site_symmetry_multiplicity
 _atom_site_fract_x
 _atom_site_fract_y
 _atom_site_fract_z
 _atom_site_occupancy
  Al  Al0  1  0.11420186  0.09722565  0.30904462  1
  Al  Al1  1  0.22137659  0.20805952  0.04330064  1
  Al  Al2  1  0.89129087  0.21042739  0.54933949  1
  Al  Al3  1  0.43301708  0.09265685  0.30668060  1
  Al  Al4  1  0.54451737  0.21069898  0.05053873  1
  Al  Al5  1  0.11529299  0.09639433  0.79583585  1
  Al  Al6  1  0.22465599  0.20139446  0.55831630  1
  Al  Al7  1  0.89272181  0.21644596  0.05015934  1
  Al  Al8  1  0.43675386  0.09744162  0.80182609  1
  Al  Al9  1  0.54337718  0.21120355  0.54957381  1
  Al  Al10  1  0.22131587  0.53624230  0.04355560  1
  Al  Al11  1  0.77877788  0.43140331  0.80153817  1
  Al  Al12  1  0.88616445  0.53681781  0.56402836  1
  Al  Al13  1  0.44188836  0.43574850  0.30487692  1
  Al  Al14  1  0.56373631  0.53557303  0.05567528  1
  Al  Al15  1  0.11382171  0.42722304  0.80241583  1
  Al  Al16  1  0.22819273  0.54117562  0.55856810  1
  Al  Al17  1  0.77688930  0.42782908  0.30503588  1
  Al  Al18  1  0.89022763  0.53594697  0.03407520  1
  Al  Al19  1  0.43899482  0.43343386  0.80414124  1
  Al  Al20  1  0.55767148  0.53501181  0.55384230  1
  Al  Al21  1  0.11904753  0.75572146  0.30986308  1
  Al  Al22  1  0.77860128  0.75681855  0.80196350  1
  Al  Al23  1  0.89393774  0.86609198  0.55471124  1
  Al  Al24  1  0.44615825  0.75808682  0.31183432  1
  Al  Al25  1  0.55854683  0.87059302  0.04231019  1
  Al  Al26  1  0.11739426  0.75621669  0.79402380  1
  Al  Al27  1  0.22224806  0.87193658  0.55152808  1
  Al  Al28  1  0.89318072  0.85973308  0.03901782  1
  Al  Al29  1  0.44494108  0.75903535  0.79535667  1
  Al  Al30  1  0.55005664  0.87555656  0.55971055  1
  Gd  Gd31  1  0.77347227  0.10143726  0.80695768  1
  Gd  Gd32  1  0.77498887  0.09743840  0.30590069  1
  Gd  Gd33  1  0.11748015  0.42660585  0.30384368  1
  Gd  Gd34  1  0.22410027  0.86997484  0.06161819  1
  Gd  Gd35  1  0.76744913  0.75896696  0.29631868  1
  N  N36  1  0.23146840  0.18208952  0.37671951  1
  N  N37  1  0.10046201  0.12463969  0.12338283  1
  N  N38  1  0.90836814  0.22180749  0.86719020  1
  N  N39  1  0.77358024  0.09793194  0.57972199  1
  N  N40  1  0.51594484  0.22346653  0.36488087  1
  N  N41  1  0.44325411  0.09101475  0.11319574  1
  N  N42  1  0.22270800  0.20255064  0.85616529  1
  N  N43  1  0.10970848  0.09396715  0.61002701  1
  N  N44  1  0.90327743  0.21834517  0.36681938  1
  N  N45  1  0.77989967  0.09327470  0.07540342  1
  N  N46  1  0.51852625  0.22384857  0.86915045  1
  N  N47  1  0.44410256  0.09551442  0.61729031  1
  N  N48  1  0.24173545  0.55305279  0.37726266  1
  N  N49  1  0.11109364  0.42727714  0.08050388  1
  N  N50  1  0.88954805  0.53735106  0.84861727  1
  N  N51  1  0.77489081  0.42543981  0.61708843  1
  N  N52  1  0.56022237  0.53337806  0.36459186  1
  N  N53  1  0.44268002  0.43198959  0.11367657  1
  N  N54  1  0.22345284  0.54262321  0.85668793  1
  N  N55  1  0.11456115  0.42767928  0.61047814  1
  N  N56  1  0.87631798  0.52607207  0.38316803  1
  N  N57  1  0.78037141  0.43038790  0.11355162  1
  N  N58  1  0.55691247  0.53865229  0.86458633  1
  N  N59  1  0.44806586  0.42693235  0.61745509  1
  N  N60  1  0.22213658  0.87297569  0.35439787  1
  N  N61  1  0.09630600  0.74142143  0.12345757  1
  N  N62  1  0.90805074  0.84323865  0.85578285  1
  N  N63  1  0.77457190  0.76320159  0.61243352  1
  N  N64  1  0.52675511  0.88597635  0.37762617  1
  N  N65  1  0.47955730  0.74627240  0.12524878  1
  N  N66  1  0.22333450  0.87252278  0.84179745  1
  N  N67  1  0.11348562  0.76176134  0.61086864  1
  N  N68  1  0.91584991  0.85066920  0.37532513  1
  N  N69  1  0.77807504  0.75752648  0.07626667  1
  N  N70  1  0.55125327  0.87373617  0.85470726  1
  N  N71  1  0.44507527  0.75696328  0.60878046  1
