# generated using pymatgen
data_Gd5Al31N36
_symmetry_space_group_name_H-M   'P 1'
_cell_length_a   9.67118109
_cell_length_b   9.65328760
_cell_length_c   10.55416171
_cell_angle_alpha   90.98464233
_cell_angle_beta   90.95319241
_cell_angle_gamma   60.23233135
_symmetry_Int_Tables_number   1
_chemical_formula_structural   Gd5Al31N36
_chemical_formula_sum   'Gd5 Al31 N36'
_cell_volume   855.14164164
_cell_formula_units_Z   1
loop_
 _symmetry_equiv_pos_site_id
 _symmetry_equiv_pos_as_xyz
  1  'x, y, z'
loop_
 _atom_site_type_symbol
 _atom_site_label
 _atom_site_symmetry_multiplicity
 _atom_site_fract_x
 _atom_site_fract_y
 _atom_site_fract_z
 _atom_site_occupancy
  Al  Al0  1  0.11623392  0.08955533  0.41917019  1
  Al  Al1  1  0.22321622  0.21828366  0.09126148  1
  Al  Al2  1  0.88564407  0.20580495  0.65896359  1
  Al  Al3  1  0.43041079  0.09631029  0.41372252  1
  Al  Al4  1  0.54467943  0.21323882  0.15564470  1
  Al  Al5  1  0.10780360  0.09898105  0.89180366  1
  Al  Al6  1  0.22033983  0.19995125  0.65622124  1
  Al  Al7  1  0.89319815  0.22424111  0.15711181  1
  Al  Al8  1  0.43887069  0.10426390  0.88170872  1
  Al  Al9  1  0.54749750  0.21103249  0.65353877  1
  Al  Al10  1  0.23226440  0.55047744  0.14537811  1
  Al  Al11  1  0.77476765  0.42767969  0.89941430  1
  Al  Al12  1  0.88464449  0.53651709  0.59291143  1
  Al  Al13  1  0.44369347  0.43357920  0.39864359  1
  Al  Al14  1  0.56696290  0.53827363  0.14822149  1
  Al  Al15  1  0.10552010  0.43518624  0.82925047  1
  Al  Al16  1  0.22620237  0.53972386  0.65233091  1
  Al  Al17  1  0.77277804  0.42006429  0.41425870  1
  Al  Al18  1  0.90028804  0.54761662  0.06038929  1
  Al  Al19  1  0.43926877  0.43295986  0.90212563  1
  Al  Al20  1  0.55389762  0.53128730  0.65776626  1
  Al  Al21  1  0.11847731  0.75313053  0.40825286  1
  Al  Al22  1  0.77762027  0.75151622  0.82589297  1
  Al  Al23  1  0.89390953  0.86388555  0.65543393  1
  Al  Al24  1  0.43356860  0.75250474  0.42625639  1
  Al  Al25  1  0.57219369  0.87296036  0.05177890  1
  Al  Al26  1  0.11624955  0.75440487  0.89922766  1
  Al  Al27  1  0.21814815  0.86807029  0.65421676  1
  Al  Al28  1  0.90474777  0.86772269  0.15034091  1
  Al  Al29  1  0.44443210  0.75472900  0.89057138  1
  Al  Al30  1  0.55283328  0.86949706  0.59932031  1
  Gd  Gd31  1  0.77607744  0.09118609  0.90755170  1
  Gd  Gd32  1  0.77860367  0.09099281  0.39294573  1
  Gd  Gd33  1  0.11881903  0.41524792  0.34251816  1
  Gd  Gd34  1  0.23539525  0.89002373  0.16532676  1
  Gd  Gd35  1  0.74984451  0.74485603  0.31693226  1
  N  N36  1  0.23762091  0.15933080  0.34199489  1
  N  N37  1  0.09386396  0.12772124  0.07053649  1
  N  N38  1  0.89652220  0.21962433  0.83558004  1
  N  N39  1  0.77499792  0.08880524  0.61716418  1
  N  N40  1  0.51513733  0.21959108  0.33661524  1
  N  N41  1  0.44783163  0.10255786  0.07005345  1
  N  N42  1  0.22016335  0.20610587  0.84568776  1
  N  N43  1  0.10627958  0.09297053  0.60323527  1
  N  N44  1  0.90952290  0.21882905  0.33894891  1
  N  N45  1  0.77831039  0.10154014  0.13041230  1
  N  N46  1  0.52736141  0.22634967  0.83149862  1
  N  N47  1  0.43578903  0.10244456  0.60344395  1
  N  N48  1  0.24566945  0.55883639  0.32762842  1
  N  N49  1  0.11567583  0.43786837  0.11755105  1
  N  N50  1  0.89065681  0.53795088  0.88080448  1
  N  N51  1  0.76706490  0.41766210  0.59851125  1
  N  N52  1  0.56193275  0.53911860  0.34084692  1
  N  N53  1  0.45131567  0.43008505  0.08738890  1
  N  N54  1  0.22860832  0.54171663  0.83768144  1
  N  N55  1  0.10596559  0.42790402  0.64179454  1
  N  N56  1  0.88063763  0.52873925  0.41813837  1
  N  N57  1  0.78038921  0.43340583  0.08793364  1
  N  N58  1  0.55655575  0.53349453  0.84070425  1
  N  N59  1  0.44128452  0.42728232  0.58562053  1
  N  N60  1  0.21885375  0.87024116  0.37923773  1
  N  N61  1  0.11084751  0.75960657  0.07928888  1
  N  N62  1  0.90946688  0.84375933  0.83410427  1
  N  N63  1  0.77155890  0.75460736  0.64397334  1
  N  N64  1  0.53116725  0.87678966  0.41852078  1
  N  N65  1  0.47576848  0.74692127  0.07664095  1
  N  N66  1  0.22034647  0.87309775  0.84187758  1
  N  N67  1  0.10817551  0.75474313  0.59261038  1
  N  N68  1  0.91889556  0.84106110  0.32934211  1
  N  N69  1  0.78412619  0.76856214  0.10132834  1
  N  N70  1  0.55637832  0.87472948  0.86877009  1
  N  N71  1  0.43969444  0.74971087  0.61005416  1
