# generated using pymatgen
data_Gd5Al31N36
_symmetry_space_group_name_H-M   'P 1'
_cell_length_a   9.69535670
_cell_length_b   9.67134747
_cell_length_c   10.28880594
_cell_angle_alpha   90.15949919
_cell_angle_beta   89.97265651
_cell_angle_gamma   59.95772878
_symmetry_Int_Tables_number   1
_chemical_formula_structural   Gd5Al31N36
_chemical_formula_sum   'Gd5 Al31 N36'
_cell_volume   835.13857164
_cell_formula_units_Z   1
loop_
 _symmetry_equiv_pos_site_id
 _symmetry_equiv_pos_as_xyz
  1  'x, y, z'
loop_
 _atom_site_type_symbol
 _atom_site_label
 _atom_site_symmetry_multiplicity
 _atom_site_fract_x
 _atom_site_fract_y
 _atom_site_fract_z
 _atom_site_occupancy
  Al  Al0  1  0.11591639  0.09272708  0.40853233  1
  Al  Al1  1  0.22139395  0.20440566  0.13951791  1
  Al  Al2  1  0.89220543  0.21141591  0.65038737  1
  Al  Al3  1  0.43162970  0.08990512  0.39237276  1
  Al  Al4  1  0.54086244  0.21200534  0.15023280  1
  Al  Al5  1  0.11223115  0.10110375  0.89215449  1
  Al  Al6  1  0.22338740  0.20474570  0.65608910  1
  Al  Al7  1  0.89044181  0.21585576  0.15180747  1
  Al  Al8  1  0.43751165  0.09670209  0.89729344  1
  Al  Al9  1  0.54474583  0.20935716  0.64857699  1
  Al  Al10  1  0.22565778  0.54149872  0.13958389  1
  Al  Al11  1  0.77834334  0.43156697  0.89815861  1
  Al  Al12  1  0.89008251  0.53635219  0.66299876  1
  Al  Al13  1  0.44160050  0.43764400  0.39476635  1
  Al  Al14  1  0.56271403  0.53388516  0.14499809  1
  Al  Al15  1  0.11448695  0.42696983  0.89832709  1
  Al  Al16  1  0.22432403  0.53710300  0.65627205  1
  Al  Al17  1  0.77901016  0.42802935  0.39680780  1
  Al  Al18  1  0.88763770  0.53565948  0.13573486  1
  Al  Al19  1  0.43956304  0.43213460  0.89594778  1
  Al  Al20  1  0.55847172  0.53553206  0.64722104  1
  Al  Al21  1  0.12267463  0.75855707  0.40841624  1
  Al  Al22  1  0.77844563  0.75744917  0.89908194  1
  Al  Al23  1  0.89277085  0.86422877  0.65944517  1
  Al  Al24  1  0.44331301  0.75883967  0.40699156  1
  Al  Al25  1  0.55481690  0.87116145  0.13861593  1
  Al  Al26  1  0.11473238  0.75425218  0.89313888  1
  Al  Al27  1  0.22375625  0.87165456  0.64575806  1
  Al  Al28  1  0.89471614  0.86329236  0.14554725  1
  Al  Al29  1  0.44940046  0.75621534  0.89229123  1
  Al  Al30  1  0.55515980  0.87227420  0.65690502  1
  Gd  Gd31  1  0.77397257  0.10123174  0.89629354  1
  Gd  Gd32  1  0.77181473  0.10038610  0.39070081  1
  Gd  Gd33  1  0.12473856  0.42308699  0.38928764  1
  Gd  Gd34  1  0.22402994  0.87280232  0.15532913  1
  Gd  Gd35  1  0.77086211  0.76040441  0.39629387  1
  N  N36  1  0.22861728  0.17459726  0.32334271  1
  N  N37  1  0.09520888  0.12037744  0.07508320  1
  N  N38  1  0.90266161  0.22440540  0.83037807  1
  N  N39  1  0.77717962  0.09394772  0.62019633  1
  N  N40  1  0.50867692  0.22610621  0.33378776  1
  N  N41  1  0.44342909  0.09354514  0.08304608  1
  N  N42  1  0.22396915  0.20531557  0.84098685  1
  N  N43  1  0.11209979  0.09761727  0.59508824  1
  N  N44  1  0.90779422  0.21615390  0.33782233  1
  N  N45  1  0.77335149  0.09846739  0.12473112  1
  N  N46  1  0.52070219  0.22204683  0.83102621  1
  N  N47  1  0.44282027  0.09060622  0.58476017  1
  N  N48  1  0.24060144  0.56290568  0.32300307  1
  N  N49  1  0.11607053  0.42716000  0.09158662  1
  N  N50  1  0.88974706  0.53795286  0.85026581  1
  N  N51  1  0.77899393  0.43040759  0.58664342  1
  N  N52  1  0.56061355  0.53646294  0.33865157  1
  N  N53  1  0.44776536  0.42789957  0.08351555  1
  N  N54  1  0.22503178  0.53761331  0.84084597  1
  N  N55  1  0.11093652  0.42751679  0.61195608  1
  N  N56  1  0.88024394  0.52388832  0.31712578  1
  N  N57  1  0.77605271  0.42547735  0.08351747  1
  N  N58  1  0.55860905  0.53359160  0.83437013  1
  N  N59  1  0.44280620  0.42958545  0.58493694  1
  N  N60  1  0.22417264  0.87297483  0.37679545  1
  N  N61  1  0.10093049  0.74997034  0.07389397  1
  N  N62  1  0.90209478  0.84587980  0.84028419  1
  N  N63  1  0.77782073  0.75754124  0.61534513  1
  N  N64  1  0.52385804  0.88056431  0.32367022  1
  N  N65  1  0.47195818  0.74305548  0.07541908  1
  N  N66  1  0.22300529  0.87243916  0.83944204  1
  N  N67  1  0.11146156  0.75654997  0.59620583  1
  N  N68  1  0.92528646  0.85114613  0.32692799  1
  N  N69  1  0.77633762  0.76291495  0.09037736  1
  N  N70  1  0.55439374  0.87477491  0.84244103  1
  N  N71  1  0.45092241  0.75757630  0.59541120  1
