# generated using pymatgen
data_Gd5Al31N36
_symmetry_space_group_name_H-M   'P 1'
_cell_length_a   9.66954816
_cell_length_b   9.65026840
_cell_length_c   10.59912930
_cell_angle_alpha   90.83432178
_cell_angle_beta   90.85173665
_cell_angle_gamma   60.22591715
_symmetry_Int_Tables_number   1
_chemical_formula_structural   Gd5Al31N36
_chemical_formula_sum   'Gd5 Al31 N36'
_cell_volume   858.35653852
_cell_formula_units_Z   1
loop_
 _symmetry_equiv_pos_site_id
 _symmetry_equiv_pos_as_xyz
  1  'x, y, z'
loop_
 _atom_site_type_symbol
 _atom_site_label
 _atom_site_symmetry_multiplicity
 _atom_site_fract_x
 _atom_site_fract_y
 _atom_site_fract_z
 _atom_site_occupancy
  Al  Al0  1  0.11029341  0.09202029  0.39275131  1
  Al  Al1  1  0.22505401  0.21304851  0.04091815  1
  Al  Al2  1  0.89066267  0.20976536  0.62686777  1
  Al  Al3  1  0.43354803  0.09227439  0.31536108  1
  Al  Al4  1  0.54220097  0.21381411  0.06250275  1
  Al  Al5  1  0.10746991  0.09950196  0.86863036  1
  Al  Al6  1  0.22770051  0.20524707  0.56746456  1
  Al  Al7  1  0.89260861  0.22060505  0.11756009  1
  Al  Al8  1  0.43492815  0.09905822  0.80682700  1
  Al  Al9  1  0.54744993  0.20910684  0.55811816  1
  Al  Al10  1  0.22138636  0.53952822  0.04883056  1
  Al  Al11  1  0.77467750  0.42828749  0.87219201  1
  Al  Al12  1  0.88999912  0.53721872  0.56966514  1
  Al  Al13  1  0.44350034  0.43498610  0.31207082  1
  Al  Al14  1  0.56709487  0.53961476  0.12573469  1
  Al  Al15  1  0.11065893  0.42691199  0.80669759  1
  Al  Al16  1  0.23073759  0.53493562  0.57260059  1
  Al  Al17  1  0.77544180  0.42237301  0.38601408  1
  Al  Al18  1  0.89460147  0.54282614  0.03685704  1
  Al  Al19  1  0.43421819  0.42832605  0.81186982  1
  Al  Al20  1  0.55873414  0.53557807  0.63510547  1
  Al  Al21  1  0.12363084  0.75774376  0.36232990  1
  Al  Al22  1  0.77752927  0.75427535  0.80638815  1
  Al  Al23  1  0.89067408  0.86684420  0.57076537  1
  Al  Al24  1  0.43929383  0.75576776  0.39723329  1
  Al  Al25  1  0.56209175  0.87655744  0.04258779  1
  Al  Al26  1  0.11417046  0.75268359  0.80810575  1
  Al  Al27  1  0.22571161  0.87508972  0.63423080  1
  Al  Al28  1  0.89547608  0.85976816  0.04651533  1
  Al  Al29  1  0.44756129  0.75462258  0.87309919  1
  Al  Al30  1  0.55373119  0.87736580  0.56971460  1
  Gd  Gd31  1  0.76509970  0.09718628  0.82637763  1
  Gd  Gd32  1  0.77774491  0.08916784  0.31569413  1
  Gd  Gd33  1  0.12313021  0.42539413  0.30591929  1
  Gd  Gd34  1  0.22572100  0.87686441  0.12926718  1
  Gd  Gd35  1  0.76812565  0.75386568  0.30371927  1
  N  N36  1  0.23440244  0.18751031  0.38675054  1
  N  N37  1  0.09408070  0.12001880  0.04828794  1
  N  N38  1  0.90133533  0.22364131  0.80489854  1
  N  N39  1  0.77307804  0.09499947  0.59936487  1
  N  N40  1  0.52174344  0.22384958  0.37567232  1
  N  N41  1  0.44015033  0.09094119  0.12365945  1
  N  N42  1  0.22392986  0.20820757  0.85812253  1
  N  N43  1  0.10687171  0.09204263  0.57514658  1
  N  N44  1  0.91051874  0.22094812  0.30527981  1
  N  N45  1  0.77700977  0.09475411  0.08916156  1
  N  N46  1  0.51218964  0.22729391  0.88566929  1
  N  N47  1  0.44539867  0.09540370  0.62659890  1
  N  N48  1  0.25100039  0.54804473  0.39625551  1
  N  N49  1  0.11159091  0.42758694  0.08892425  1
  N  N50  1  0.89007474  0.53839714  0.85562304  1
  N  N51  1  0.76865917  0.42203547  0.56908774  1
  N  N52  1  0.56519086  0.54648907  0.31458144  1
  N  N53  1  0.43779743  0.43063694  0.12644974  1
  N  N54  1  0.22237063  0.54091830  0.86544740  1
  N  N55  1  0.11293427  0.42687134  0.62223817  1
  N  N56  1  0.89020725  0.52636391  0.39223843  1
  N  N57  1  0.77502149  0.42965830  0.05754126  1
  N  N58  1  0.55886732  0.53800150  0.81641646  1
  N  N59  1  0.44501513  0.41793241  0.63040614  1
  N  N60  1  0.22395458  0.87496749  0.34622319  1
  N  N61  1  0.09751790  0.74368737  0.11751643  1
  N  N62  1  0.90612873  0.84058023  0.86644816  1
  N  N63  1  0.77448573  0.75972843  0.62372153  1
  N  N64  1  0.53162896  0.88873509  0.38869241  1
  N  N65  1  0.47141010  0.74269539  0.05301200  1
  N  N66  1  0.22600643  0.87551300  0.82033299  1
  N  N67  1  0.11198244  0.75673525  0.62467999  1
  N  N68  1  0.91376113  0.84802207  0.39529268  1
  N  N69  1  0.77687760  0.76009445  0.08937500  1
  N  N70  1  0.55634415  0.88064367  0.85964245  1
  N  N71  1  0.44379793  0.75253340  0.57943886  1
