# generated using pymatgen
data_Gd5Al31N36
_symmetry_space_group_name_H-M   'P 1'
_cell_length_a   9.66766740
_cell_length_b   9.64971851
_cell_length_c   10.59488632
_cell_angle_alpha   90.86236560
_cell_angle_beta   90.88816090
_cell_angle_gamma   60.22748140
_symmetry_Int_Tables_number   1
_chemical_formula_structural   Gd5Al31N36
_chemical_formula_sum   'Gd5 Al31 N36'
_cell_volume   857.80083492
_cell_formula_units_Z   1
loop_
 _symmetry_equiv_pos_site_id
 _symmetry_equiv_pos_as_xyz
  1  'x, y, z'
loop_
 _atom_site_type_symbol
 _atom_site_label
 _atom_site_symmetry_multiplicity
 _atom_site_fract_x
 _atom_site_fract_y
 _atom_site_fract_z
 _atom_site_occupancy
  Al  Al0  1  0.11049870  0.09131334  0.39261729  1
  Al  Al1  1  0.22502478  0.21336299  0.04076755  1
  Al  Al2  1  0.89058184  0.20968056  0.62674071  1
  Al  Al3  1  0.43353986  0.09214403  0.31556040  1
  Al  Al4  1  0.54234003  0.21374866  0.06250516  1
  Al  Al5  1  0.10744316  0.09976964  0.86834349  1
  Al  Al6  1  0.22762690  0.20527485  0.56760393  1
  Al  Al7  1  0.89246893  0.22068438  0.11783154  1
  Al  Al8  1  0.43503747  0.09911898  0.80678221  1
  Al  Al9  1  0.54713365  0.20930825  0.55830237  1
  Al  Al10  1  0.22134594  0.53958197  0.05016356  1
  Al  Al11  1  0.77462703  0.42820190  0.87207232  1
  Al  Al12  1  0.89005710  0.53732263  0.56993481  1
  Al  Al13  1  0.44339869  0.43496348  0.31226918  1
  Al  Al14  1  0.56720009  0.53951283  0.12589517  1
  Al  Al15  1  0.11079935  0.42723550  0.80679382  1
  Al  Al16  1  0.22990974  0.53666259  0.57155962  1
  Al  Al17  1  0.77543714  0.42244834  0.38613842  1
  Al  Al18  1  0.89443319  0.54267005  0.03693894  1
  Al  Al19  1  0.43403665  0.42860228  0.81198434  1
  Al  Al20  1  0.55851722  0.53564894  0.63498808  1
  Al  Al21  1  0.12234825  0.75636873  0.35035406  1
  Al  Al22  1  0.77805222  0.75424828  0.80667733  1
  Al  Al23  1  0.89214350  0.86622722  0.56988688  1
  Al  Al24  1  0.43861466  0.75592109  0.39711443  1
  Al  Al25  1  0.56238675  0.87652754  0.04252729  1
  Al  Al26  1  0.11426764  0.75255793  0.80826326  1
  Al  Al27  1  0.22523263  0.87466803  0.63404005  1
  Al  Al28  1  0.89565987  0.85963022  0.04817554  1
  Al  Al29  1  0.44789687  0.75461606  0.87279908  1
  Al  Al30  1  0.55381066  0.87734987  0.56981789  1
  Gd  Gd31  1  0.76552550  0.09638926  0.82624957  1
  Gd  Gd32  1  0.77747126  0.08965277  0.31648131  1
  Gd  Gd33  1  0.12296697  0.42465890  0.30619576  1
  Gd  Gd34  1  0.22651004  0.87779087  0.12797261  1
  Gd  Gd35  1  0.76793213  0.75381124  0.30398987  1
  N  N36  1  0.23448399  0.18706305  0.38695816  1
  N  N37  1  0.09375268  0.12067152  0.04809706  1
  N  N38  1  0.90114861  0.22349117  0.80488170  1
  N  N39  1  0.77316755  0.09477898  0.59906121  1
  N  N40  1  0.52134596  0.22401414  0.37584977  1
  N  N41  1  0.44005418  0.09088960  0.12361123  1
  N  N42  1  0.22399182  0.20842261  0.85803530  1
  N  N43  1  0.10688398  0.09176466  0.57516100  1
  N  N44  1  0.91059308  0.22113669  0.30531397  1
  N  N45  1  0.77712091  0.09458928  0.08964891  1
  N  N46  1  0.51254425  0.22727527  0.88556691  1
  N  N47  1  0.44540428  0.09541219  0.62667607  1
  N  N48  1  0.25013239  0.54909949  0.39517750  1
  N  N49  1  0.11140692  0.42773074  0.08905170  1
  N  N50  1  0.89014200  0.53830464  0.85564315  1
  N  N51  1  0.76858568  0.42206952  0.56921899  1
  N  N52  1  0.56523238  0.54641354  0.31463488  1
  N  N53  1  0.43790588  0.43054482  0.12654045  1
  N  N54  1  0.22244581  0.54143081  0.86694603  1
  N  N55  1  0.11309891  0.42712033  0.62225427  1
  N  N56  1  0.89014914  0.52641321  0.39252375  1
  N  N57  1  0.77494597  0.42955710  0.05749830  1
  N  N58  1  0.55886342  0.53806748  0.81633909  1
  N  N59  1  0.44430999  0.41845729  0.63028610  1
  N  N60  1  0.22393407  0.87488094  0.34454566  1
  N  N61  1  0.09720319  0.74310482  0.12421918  1
  N  N62  1  0.90711707  0.84001348  0.86847077  1
  N  N63  1  0.77484003  0.76001613  0.62387779  1
  N  N64  1  0.53151710  0.88866724  0.38883408  1
  N  N65  1  0.47193075  0.74245462  0.05284092  1
  N  N66  1  0.22611681  0.87562057  0.82096671  1
  N  N67  1  0.11159279  0.75664117  0.62653903  1
  N  N68  1  0.91461001  0.84772053  0.39447641  1
  N  N69  1  0.77696911  0.75981886  0.08962622  1
  N  N70  1  0.55666324  0.88070865  0.85962525  1
  N  N71  1  0.44351197  0.75266790  0.57944892  1
