# generated using pymatgen
data_Gd5Al31N36
_symmetry_space_group_name_H-M   'P 1'
_cell_length_a   9.65119120
_cell_length_b   9.65026826
_cell_length_c   10.67655979
_cell_angle_alpha   90.90854713
_cell_angle_beta   90.25443943
_cell_angle_gamma   60.08020082
_symmetry_Int_Tables_number   1
_chemical_formula_structural   Gd5Al31N36
_chemical_formula_sum   'Gd5 Al31 N36'
_cell_volume   861.73672759
_cell_formula_units_Z   1
loop_
 _symmetry_equiv_pos_site_id
 _symmetry_equiv_pos_as_xyz
  1  'x, y, z'
loop_
 _atom_site_type_symbol
 _atom_site_label
 _atom_site_symmetry_multiplicity
 _atom_site_fract_x
 _atom_site_fract_y
 _atom_site_fract_z
 _atom_site_occupancy
  Al  Al0  1  0.11441035  0.08410588  0.41390248  1
  Al  Al1  1  0.22682635  0.21340883  0.06048358  1
  Al  Al2  1  0.89302912  0.20915575  0.65338593  1
  Al  Al3  1  0.43259397  0.08497525  0.32587075  1
  Al  Al4  1  0.54943614  0.20912288  0.14883839  1
  Al  Al5  1  0.11154157  0.09806914  0.88951021  1
  Al  Al6  1  0.22910039  0.19706151  0.58503856  1
  Al  Al7  1  0.89368842  0.21755414  0.14543927  1
  Al  Al8  1  0.43528320  0.09113025  0.81978670  1
  Al  Al9  1  0.54488077  0.21333743  0.65161655  1
  Al  Al10  1  0.22842743  0.54250280  0.13982597  1
  Al  Al11  1  0.77497111  0.43293096  0.89048764  1
  Al  Al12  1  0.88713952  0.53789533  0.58829280  1
  Al  Al13  1  0.43400468  0.43880907  0.39133641  1
  Al  Al14  1  0.56611278  0.53327735  0.14059432  1
  Al  Al15  1  0.10918981  0.42226545  0.82200866  1
  Al  Al16  1  0.22821057  0.53532369  0.64993325  1
  Al  Al17  1  0.77247271  0.43133262  0.40281205  1
  Al  Al18  1  0.89851029  0.54062043  0.05680637  1
  Al  Al19  1  0.43261084  0.43464050  0.89666221  1
  Al  Al20  1  0.55478124  0.53181152  0.64765384  1
  Al  Al21  1  0.12607285  0.75625963  0.41509695  1
  Al  Al22  1  0.77745610  0.75866095  0.82352614  1
  Al  Al23  1  0.89091731  0.86769918  0.59442754  1
  Al  Al24  1  0.44129474  0.75385429  0.41226545  1
  Al  Al25  1  0.56318382  0.87180293  0.05854945  1
  Al  Al26  1  0.11889816  0.75082051  0.88979058  1
  Al  Al27  1  0.22517444  0.86736519  0.65282877  1
  Al  Al28  1  0.88919226  0.86381863  0.06439165  1
  Al  Al29  1  0.44747774  0.75241160  0.88906757  1
  Al  Al30  1  0.55636833  0.87242183  0.58288133  1
  Gd  Gd31  1  0.76793788  0.11433785  0.88357179  1
  Gd  Gd32  1  0.76526833  0.12475741  0.39939347  1
  Gd  Gd33  1  0.11171129  0.41035663  0.33034082  1
  Gd  Gd34  1  0.22629240  0.87641163  0.15148723  1
  Gd  Gd35  1  0.77419507  0.76754166  0.31995732  1
  N  N36  1  0.24193603  0.17519817  0.40919866  1
  N  N37  1  0.09556654  0.11807957  0.06850634  1
  N  N38  1  0.90804056  0.22818026  0.82494886  1
  N  N39  1  0.77293474  0.09740923  0.62465029  1
  N  N40  1  0.51422570  0.22847983  0.32557957  1
  N  N41  1  0.43796560  0.08237221  0.13536712  1
  N  N42  1  0.22765836  0.20835653  0.88081764  1
  N  N43  1  0.10619879  0.08573982  0.59484480  1
  N  N44  1  0.91745707  0.22600161  0.32591910  1
  N  N45  1  0.77884145  0.09290525  0.11239546  1
  N  N46  1  0.51728600  0.23096956  0.82804612  1
  N  N47  1  0.44201575  0.08550268  0.64146260  1
  N  N48  1  0.23075320  0.56414887  0.32361153  1
  N  N49  1  0.11367771  0.42871388  0.11544904  1
  N  N50  1  0.89104959  0.54203897  0.87658915  1
  N  N51  1  0.76959670  0.41777928  0.58611756  1
  N  N52  1  0.56009699  0.53632817  0.33251000  1
  N  N53  1  0.44834394  0.42490290  0.08022264  1
  N  N54  1  0.22440914  0.53991324  0.82990832  1
  N  N55  1  0.10979172  0.41910864  0.63764100  1
  N  N56  1  0.87641305  0.54371681  0.41359621  1
  N  N57  1  0.77835267  0.42595085  0.07625632  1
  N  N58  1  0.55614000  0.53223251  0.83046747  1
  N  N59  1  0.44228537  0.42409319  0.57739116  1
  N  N60  1  0.22567296  0.86976498  0.36466091  1
  N  N61  1  0.11253576  0.74416797  0.07037679  1
  N  N62  1  0.89543889  0.85320383  0.87998708  1
  N  N63  1  0.77613915  0.75930086  0.64295435  1
  N  N64  1  0.53569598  0.88396253  0.40229167  1
  N  N65  1  0.47165064  0.73867631  0.06944331  1
  N  N66  1  0.22393536  0.87190920  0.83718633  1
  N  N67  1  0.12299453  0.74954817  0.59894889  1
  N  N68  1  0.90581652  0.86955706  0.41317479  1
  N  N69  1  0.77954159  0.75824043  0.10721081  1
  N  N70  1  0.55605572  0.87720240  0.87800744  1
  N  N71  1  0.44649437  0.74948845  0.59508213  1
