# generated using pymatgen
data_Gd5Al31N36
_symmetry_space_group_name_H-M   'P 1'
_cell_length_a   9.67008440
_cell_length_b   9.64197596
_cell_length_c   10.65072957
_cell_angle_alpha   91.10982830
_cell_angle_beta   91.33770627
_cell_angle_gamma   60.14456069
_symmetry_Int_Tables_number   1
_chemical_formula_structural   Gd5Al31N36
_chemical_formula_sum   'Gd5 Al31 N36'
_cell_volume   860.99647506
_cell_formula_units_Z   1
loop_
 _symmetry_equiv_pos_site_id
 _symmetry_equiv_pos_as_xyz
  1  'x, y, z'
loop_
 _atom_site_type_symbol
 _atom_site_label
 _atom_site_symmetry_multiplicity
 _atom_site_fract_x
 _atom_site_fract_y
 _atom_site_fract_z
 _atom_site_occupancy
  Al  Al0  1  0.11433105  0.08483991  0.40957293  1
  Al  Al1  1  0.22681347  0.21634527  0.05235637  1
  Al  Al2  1  0.89327470  0.21097796  0.63812713  1
  Al  Al3  1  0.43420016  0.08885969  0.32495957  1
  Al  Al4  1  0.55046256  0.20633081  0.07488276  1
  Al  Al5  1  0.10615099  0.09639979  0.88232554  1
  Al  Al6  1  0.22918361  0.20162928  0.58153048  1
  Al  Al7  1  0.89587278  0.22186891  0.13232705  1
  Al  Al8  1  0.43362795  0.09781777  0.81870750  1
  Al  Al9  1  0.54523048  0.20781656  0.56004055  1
  Al  Al10  1  0.22734725  0.54694243  0.13521107  1
  Al  Al11  1  0.77453525  0.42581051  0.88537652  1
  Al  Al12  1  0.88601853  0.53957461  0.58308422  1
  Al  Al13  1  0.43815146  0.44177598  0.38457947  1
  Al  Al14  1  0.56790631  0.53846308  0.13748329  1
  Al  Al15  1  0.10796251  0.42260638  0.81587890  1
  Al  Al16  1  0.22894921  0.53717509  0.64613174  1
  Al  Al17  1  0.77239824  0.42423877  0.40117698  1
  Al  Al18  1  0.89886183  0.54471530  0.04717677  1
  Al  Al19  1  0.43204918  0.43785478  0.89982856  1
  Al  Al20  1  0.55341275  0.53385032  0.64601956  1
  Al  Al21  1  0.12949421  0.74920091  0.40714964  1
  Al  Al22  1  0.77769016  0.75489199  0.81630173  1
  Al  Al23  1  0.89078330  0.86447773  0.57256197  1
  Al  Al24  1  0.43895191  0.75638212  0.41187325  1
  Al  Al25  1  0.56444467  0.87672089  0.05075298  1
  Al  Al26  1  0.11992456  0.74994505  0.88463136  1
  Al  Al27  1  0.22388744  0.86862379  0.64790835  1
  Al  Al28  1  0.88797655  0.87212570  0.05243061  1
  Al  Al29  1  0.44745268  0.75297023  0.88372322  1
  Al  Al30  1  0.55453238  0.87751323  0.58205708  1
  Gd  Gd31  1  0.75623510  0.09868112  0.81880184  1
  Gd  Gd32  1  0.78058118  0.09444575  0.33347906  1
  Gd  Gd33  1  0.10956400  0.41203160  0.32358752  1
  Gd  Gd34  1  0.22998709  0.87806241  0.14653792  1
  Gd  Gd35  1  0.76354757  0.75549251  0.31037129  1
  N  N36  1  0.24112769  0.17646932  0.40408035  1
  N  N37  1  0.09755520  0.12005424  0.06196402  1
  N  N38  1  0.89938174  0.22044727  0.81719778  1
  N  N39  1  0.77390962  0.09712989  0.59801577  1
  N  N40  1  0.52094871  0.21797240  0.37962522  1
  N  N41  1  0.44188600  0.08997758  0.13463259  1
  N  N42  1  0.22239680  0.20654338  0.87041874  1
  N  N43  1  0.10887347  0.08864373  0.59093783  1
  N  N44  1  0.91796903  0.22509018  0.31920980  1
  N  N45  1  0.78082358  0.09612855  0.10862065  1
  N  N46  1  0.51571796  0.21649561  0.89885853  1
  N  N47  1  0.44830162  0.09810606  0.63962342  1
  N  N48  1  0.23557432  0.55895756  0.31654014  1
  N  N49  1  0.11445263  0.43124960  0.10637810  1
  N  N50  1  0.88963869  0.53774266  0.86700604  1
  N  N51  1  0.76701956  0.42340838  0.58435561  1
  N  N52  1  0.56114331  0.54047731  0.32834304  1
  N  N53  1  0.44573281  0.43923774  0.08410807  1
  N  N54  1  0.22673345  0.53689753  0.82647856  1
  N  N55  1  0.10907996  0.42242485  0.63208469  1
  N  N56  1  0.87804801  0.53557661  0.40848921  1
  N  N57  1  0.77883974  0.43173563  0.07107312  1
  N  N58  1  0.55455204  0.53022945  0.82848792  1
  N  N59  1  0.43758284  0.43637469  0.57556234  1
  N  N60  1  0.22271277  0.86995761  0.36094176  1
  N  N61  1  0.11170821  0.74993189  0.06517071  1
  N  N62  1  0.89753789  0.84927263  0.87188035  1
  N  N63  1  0.77593873  0.76209812  0.63525866  1
  N  N64  1  0.53201631  0.88673715  0.40142956  1
  N  N65  1  0.47376260  0.74475876  0.06542188  1
  N  N66  1  0.22318786  0.87044627  0.83214460  1
  N  N67  1  0.12093371  0.75174116  0.59152500  1
  N  N68  1  0.91047857  0.84745524  0.39506357  1
  N  N69  1  0.78168468  0.76292294  0.09705547  1
  N  N70  1  0.55533025  0.87745549  0.86853198  1
  N  N71  1  0.44515894  0.75448389  0.59510581  1
