# generated using pymatgen
data_Gd5Al31N36
_symmetry_space_group_name_H-M   'P 1'
_cell_length_a   9.73600567
_cell_length_b   9.70049786
_cell_length_c   10.26777926
_cell_angle_alpha   90.38712498
_cell_angle_beta   90.13942997
_cell_angle_gamma   59.82539843
_symmetry_Int_Tables_number   1
_chemical_formula_structural   Gd5Al31N36
_chemical_formula_sum   'Gd5 Al31 N36'
_cell_volume   838.31073020
_cell_formula_units_Z   1
loop_
 _symmetry_equiv_pos_site_id
 _symmetry_equiv_pos_as_xyz
  1  'x, y, z'
loop_
 _atom_site_type_symbol
 _atom_site_label
 _atom_site_symmetry_multiplicity
 _atom_site_fract_x
 _atom_site_fract_y
 _atom_site_fract_z
 _atom_site_occupancy
  Al  Al0  1  0.11432223  0.09441328  0.40926134  1
  Al  Al1  1  0.22206247  0.20294213  0.13996644  1
  Al  Al2  1  0.89146545  0.20857236  0.65253336  1
  Al  Al3  1  0.43034889  0.08833284  0.39164221  1
  Al  Al4  1  0.54010455  0.21225704  0.14972217  1
  Al  Al5  1  0.11231863  0.10043879  0.89248437  1
  Al  Al6  1  0.22297449  0.20321785  0.65587198  1
  Al  Al7  1  0.89067268  0.21673309  0.15230461  1
  Al  Al8  1  0.43747742  0.09622240  0.89694124  1
  Al  Al9  1  0.54390979  0.20795245  0.64792894  1
  Al  Al10  1  0.22753678  0.54320289  0.13916232  1
  Al  Al11  1  0.77703461  0.43065922  0.89832834  1
  Al  Al12  1  0.88903914  0.53386702  0.63029890  1
  Al  Al13  1  0.44231548  0.43775395  0.39414732  1
  Al  Al14  1  0.56269972  0.53435899  0.14616516  1
  Al  Al15  1  0.11845480  0.42518471  0.89663682  1
  Al  Al16  1  0.22397128  0.53656782  0.65606531  1
  Al  Al17  1  0.77678809  0.42698733  0.39951894  1
  Al  Al18  1  0.89099858  0.53810539  0.10098272  1
  Al  Al19  1  0.43990542  0.43148283  0.89628142  1
  Al  Al20  1  0.55601431  0.53433636  0.64893640  1
  Al  Al21  1  0.12411526  0.75974803  0.40864097  1
  Al  Al22  1  0.77683217  0.76080563  0.89781522  1
  Al  Al23  1  0.89262342  0.86282265  0.65829372  1
  Al  Al24  1  0.44426898  0.75751341  0.40786132  1
  Al  Al25  1  0.55248925  0.87198514  0.13861067  1
  Al  Al26  1  0.11484652  0.75448010  0.89189311  1
  Al  Al27  1  0.22339516  0.87126367  0.64421718  1
  Al  Al28  1  0.89624731  0.86621417  0.14490823  1
  Al  Al29  1  0.44851897  0.75621947  0.89213053  1
  Al  Al30  1  0.55459641  0.87077229  0.65584476  1
  Gd  Gd31  1  0.77319281  0.10084736  0.89582275  1
  Gd  Gd32  1  0.77132618  0.10267704  0.38976437  1
  Gd  Gd33  1  0.13301793  0.42168661  0.38576714  1
  Gd  Gd34  1  0.22401303  0.87301919  0.15819565  1
  Gd  Gd35  1  0.76900381  0.77076416  0.38951301  1
  N  N36  1  0.22781699  0.17269616  0.32308413  1
  N  N37  1  0.09547412  0.12002619  0.07553501  1
  N  N38  1  0.90216877  0.22343516  0.83238620  1
  N  N39  1  0.77653463  0.09212991  0.62031080  1
  N  N40  1  0.50646771  0.22578842  0.33371017  1
  N  N41  1  0.44307873  0.09346075  0.08273186  1
  N  N42  1  0.22419367  0.20412667  0.84096088  1
  N  N43  1  0.11016317  0.09815907  0.59633129  1
  N  N44  1  0.90706850  0.21670918  0.33749160  1
  N  N45  1  0.77216055  0.10066215  0.12386027  1
  N  N46  1  0.52000047  0.22148042  0.83089539  1
  N  N47  1  0.44201093  0.08914399  0.58457756  1
  N  N48  1  0.24384209  0.56691435  0.32116427  1
  N  N49  1  0.12132939  0.42546484  0.09479753  1
  N  N50  1  0.89160664  0.53792800  0.87738321  1
  N  N51  1  0.77439213  0.42477599  0.58979182  1
  N  N52  1  0.56090555  0.53534934  0.33908115  1
  N  N53  1  0.44879578  0.42776433  0.08342040  1
  N  N54  1  0.22593913  0.53712537  0.84052710  1
  N  N55  1  0.11257697  0.42524102  0.61176932  1
  N  N56  1  0.88355931  0.52621127  0.35212523  1
  N  N57  1  0.77556686  0.42625425  0.08712267  1
  N  N58  1  0.55798129  0.53293923  0.83561596  1
  N  N59  1  0.44155257  0.42849891  0.58489719  1
  N  N60  1  0.22500718  0.87399194  0.38083033  1
  N  N61  1  0.10134094  0.75079643  0.07251101  1
  N  N62  1  0.90191718  0.84543444  0.83919941  1
  N  N63  1  0.77641669  0.75757976  0.61229095  1
  N  N64  1  0.51986024  0.87963365  0.32261233  1
  N  N65  1  0.47111481  0.74323439  0.07530715  1
  N  N66  1  0.22279305  0.87222981  0.83847839  1
  N  N67  1  0.11106918  0.75529537  0.59641670  1
  N  N68  1  0.93010880  0.85617861  0.32498058  1
  N  N69  1  0.77424621  0.76878474  0.09410365  1
  N  N70  1  0.55444380  0.87410197  0.84186670  1
  N  N71  1  0.45121087  0.75551092  0.59666763  1
