# generated using pymatgen
data_Gd5Al31N36
_symmetry_space_group_name_H-M   'P 1'
_cell_length_a   9.69234344
_cell_length_b   9.66987985
_cell_length_c   10.29210337
_cell_angle_alpha   90.09789645
_cell_angle_beta   89.93212061
_cell_angle_gamma   59.98160823
_symmetry_Int_Tables_number   1
_chemical_formula_structural   Gd5Al31N36
_chemical_formula_sum   'Gd5 Al31 N36'
_cell_volume   835.22269834
_cell_formula_units_Z   1
loop_
 _symmetry_equiv_pos_site_id
 _symmetry_equiv_pos_as_xyz
  1  'x, y, z'
loop_
 _atom_site_type_symbol
 _atom_site_label
 _atom_site_symmetry_multiplicity
 _atom_site_fract_x
 _atom_site_fract_y
 _atom_site_fract_z
 _atom_site_occupancy
  Al  Al0  1  0.11600592  0.09245085  0.42015196  1
  Al  Al1  1  0.22142953  0.20433658  0.15134572  1
  Al  Al2  1  0.89238935  0.21161417  0.66198595  1
  Al  Al3  1  0.43174050  0.08999494  0.40420444  1
  Al  Al4  1  0.54105876  0.21184773  0.16212693  1
  Al  Al5  1  0.11229499  0.10128003  0.90395754  1
  Al  Al6  1  0.22358074  0.20490627  0.66789351  1
  Al  Al7  1  0.89041505  0.21556301  0.16370428  1
  Al  Al8  1  0.43764672  0.09685377  0.90917460  1
  Al  Al9  1  0.54501164  0.20962865  0.66049548  1
  Al  Al10  1  0.22564954  0.54115971  0.15153128  1
  Al  Al11  1  0.77838294  0.43156437  0.90987982  1
  Al  Al12  1  0.89022295  0.53655198  0.67503904  1
  Al  Al13  1  0.44161819  0.43749201  0.40664271  1
  Al  Al14  1  0.56267015  0.53378939  0.15678210  1
  Al  Al15  1  0.11457696  0.42700798  0.91013405  1
  Al  Al16  1  0.22447005  0.53730155  0.66808341  1
  Al  Al17  1  0.77881737  0.42766121  0.40845649  1
  Al  Al18  1  0.88754871  0.53537837  0.14733767  1
  Al  Al19  1  0.43966669  0.43223769  0.90777273  1
  Al  Al20  1  0.55857417  0.53586434  0.65891964  1
  Al  Al21  1  0.12261515  0.75819225  0.42017524  1
  Al  Al22  1  0.77847470  0.75753230  0.91079780  1
  Al  Al23  1  0.89293865  0.86447149  0.67138563  1
  Al  Al24  1  0.44301949  0.75901044  0.41859190  1
  Al  Al25  1  0.55491864  0.87109991  0.15046804  1
  Al  Al26  1  0.11479744  0.75419597  0.90509170  1
  Al  Al27  1  0.22384699  0.87182402  0.65774499  1
  Al  Al28  1  0.89466134  0.86270472  0.15753137  1
  Al  Al29  1  0.44953986  0.75631839  0.90415987  1
  Al  Al30  1  0.55515302  0.87266630  0.66880995  1
  Gd  Gd31  1  0.77425668  0.10126303  0.90828394  1
  Gd  Gd32  1  0.77202300  0.09945335  0.40260953  1
  Gd  Gd33  1  0.12427565  0.42292622  0.40122850  1
  Gd  Gd34  1  0.22398020  0.87262018  0.16673666  1
  Gd  Gd35  1  0.77066494  0.75942275  0.40859136  1
  N  N36  1  0.22873448  0.17455520  0.33512418  1
  N  N37  1  0.09515136  0.12039177  0.08685339  1
  N  N38  1  0.90284787  0.22458412  0.84193341  1
  N  N39  1  0.77738852  0.09416904  0.63200515  1
  N  N40  1  0.50903757  0.22602284  0.34562548  1
  N  N41  1  0.44351142  0.09352590  0.09487277  1
  N  N42  1  0.22415062  0.20543880  0.85274282  1
  N  N43  1  0.11239303  0.09766860  0.60669186  1
  N  N44  1  0.90767293  0.21573761  0.34970472  1
  N  N45  1  0.77359429  0.09792397  0.13669674  1
  N  N46  1  0.52101260  0.22218134  0.84290483  1
  N  N47  1  0.44301180  0.09092909  0.59658363  1
  N  N48  1  0.24050819  0.56244012  0.33496636  1
  N  N49  1  0.11602719  0.42699189  0.10325711  1
  N  N50  1  0.88982717  0.53804286  0.86212231  1
  N  N51  1  0.77914001  0.43074780  0.59826862  1
  N  N52  1  0.56039699  0.53660119  0.35038177  1
  N  N53  1  0.44775704  0.42779907  0.09533064  1
  N  N54  1  0.22515382  0.53771893  0.85263035  1
  N  N55  1  0.11101353  0.42776483  0.62387338  1
  N  N56  1  0.88010047  0.52337642  0.32853324  1
  N  N57  1  0.77596833  0.42510575  0.09516808  1
  N  N58  1  0.55867747  0.53385919  0.84606018  1
  N  N59  1  0.44297399  0.42981401  0.59677658  1
  N  N60  1  0.22392928  0.87283864  0.38805781  1
  N  N61  1  0.10089404  0.74962880  0.08581142  1
  N  N62  1  0.90222630  0.84607452  0.85216849  1
  N  N63  1  0.77791534  0.75782922  0.62758561  1
  N  N64  1  0.52390545  0.88072789  0.33547386  1
  N  N65  1  0.47207584  0.74297361  0.08722486  1
  N  N66  1  0.22308384  0.87256657  0.85139817  1
  N  N67  1  0.11161046  0.75677604  0.60802378  1
  N  N68  1  0.92505150  0.85006138  0.33893294  1
  N  N69  1  0.77630527  0.76260573  0.10194956  1
  N  N70  1  0.55437867  0.87503611  0.85425858  1
  N  N71  1  0.45092291  0.75796271  0.60701280  1
