# generated using pymatgen
data_Gd5Al31N36
_symmetry_space_group_name_H-M   'P 1'
_cell_length_a   9.69234061
_cell_length_b   9.66987657
_cell_length_c   10.29210636
_cell_angle_alpha   90.09793968
_cell_angle_beta   89.93212704
_cell_angle_gamma   59.98162060
_symmetry_Int_Tables_number   1
_chemical_formula_structural   Gd5Al31N36
_chemical_formula_sum   'Gd5 Al31 N36'
_cell_volume   835.22251661
_cell_formula_units_Z   1
loop_
 _symmetry_equiv_pos_site_id
 _symmetry_equiv_pos_as_xyz
  1  'x, y, z'
loop_
 _atom_site_type_symbol
 _atom_site_label
 _atom_site_symmetry_multiplicity
 _atom_site_fract_x
 _atom_site_fract_y
 _atom_site_fract_z
 _atom_site_occupancy
  Al  Al0  1  0.11598121  0.09247027  0.41428519  1
  Al  Al1  1  0.22140448  0.20435583  0.14547475  1
  Al  Al2  1  0.89236351  0.21163400  0.65611609  1
  Al  Al3  1  0.43171451  0.09001423  0.39833770  1
  Al  Al4  1  0.54103251  0.21186758  0.15626037  1
  Al  Al5  1  0.11226943  0.10129986  0.89808744  1
  Al  Al6  1  0.22355536  0.20492642  0.66202309  1
  Al  Al7  1  0.89039019  0.21558318  0.15783925  1
  Al  Al8  1  0.43762177  0.09687370  0.90330358  1
  Al  Al9  1  0.54498712  0.20964846  0.65462571  1
  Al  Al10  1  0.22562448  0.54117978  0.14566167  1
  Al  Al11  1  0.77835794  0.43158418  0.90400897  1
  Al  Al12  1  0.89019784  0.53657195  0.66916811  1
  Al  Al13  1  0.44159231  0.43751225  0.40077562  1
  Al  Al14  1  0.56264510  0.53380886  0.15091345  1
  Al  Al15  1  0.11455145  0.42702805  0.90426379  1
  Al  Al16  1  0.22444485  0.53732156  0.66221357  1
  Al  Al17  1  0.77879192  0.42768106  0.40258714  1
  Al  Al18  1  0.88752340  0.53539797  0.14146957  1
  Al  Al19  1  0.43964139  0.43225745  0.90190388  1
  Al  Al20  1  0.55854906  0.53588445  0.65304995  1
  Al  Al21  1  0.12258989  0.75821154  0.41430971  1
  Al  Al22  1  0.77844947  0.75755221  0.90492919  1
  Al  Al23  1  0.89291280  0.86449263  0.66551978  1
  Al  Al24  1  0.44299458  0.75902982  0.41272230  1
  Al  Al25  1  0.55489337  0.87111997  0.14459870  1
  Al  Al26  1  0.11477226  0.75421637  0.89922389  1
  Al  Al27  1  0.22382231  0.87184362  0.65187595  1
  Al  Al28  1  0.89463651  0.86272387  0.15166603  1
  Al  Al29  1  0.44951436  0.75633833  0.89829091  1
  Al  Al30  1  0.55512799  0.87268566  0.66294035  1
  Gd  Gd31  1  0.77423083  0.10128461  0.90241944  1
  Gd  Gd32  1  0.77199700  0.09947288  0.39674138  1
  Gd  Gd33  1  0.12425141  0.42294492  0.39535823  1
  Gd  Gd34  1  0.22395494  0.87264080  0.16086991  1
  Gd  Gd35  1  0.77063946  0.75944178  0.40272394  1
  N  N36  1  0.22870944  0.17457335  0.32925450  1
  N  N37  1  0.09512512  0.12041149  0.08098414  1
  N  N38  1  0.90282216  0.22460365  0.83606350  1
  N  N39  1  0.77736324  0.09418881  0.62613621  1
  N  N40  1  0.50901048  0.22604311  0.33975899  1
  N  N41  1  0.44348650  0.09354574  0.08900262  1
  N  N42  1  0.22412520  0.20545894  0.84687260  1
  N  N43  1  0.11236798  0.09768840  0.60082426  1
  N  N44  1  0.90764820  0.21575684  0.34383905  1
  N  N45  1  0.77356879  0.09794377  0.13083262  1
  N  N46  1  0.52098836  0.22220105  0.83703510  1
  N  N47  1  0.44298660  0.09094865  0.59071559  1
  N  N48  1  0.24048286  0.56246051  0.32909808  1
  N  N49  1  0.11600186  0.42701178  0.09738801  1
  N  N50  1  0.88980203  0.53806296  0.85625180  1
  N  N51  1  0.77911461  0.43076802  0.59239907  1
  N  N52  1  0.56037176  0.53662048  0.34451332  1
  N  N53  1  0.44773213  0.42781823  0.08946215  1
  N  N54  1  0.22512831  0.53773914  0.84676107  1
  N  N55  1  0.11098859  0.42778478  0.61800310  1
  N  N56  1  0.88007545  0.52339574  0.32266495  1
  N  N57  1  0.77594338  0.42512481  0.08929885  1
  N  N58  1  0.55865205  0.53387916  0.84019070  1
  N  N59  1  0.44294873  0.42983420  0.59090827  1
  N  N60  1  0.22390382  0.87285801  0.38219151  1
  N  N61  1  0.10086881  0.74964949  0.07994395  1
  N  N62  1  0.90220016  0.84609635  0.84630218  1
  N  N63  1  0.77789052  0.75784976  0.62171787  1
  N  N64  1  0.52388032  0.88074769  0.32960517  1
  N  N65  1  0.47205017  0.74299342  0.08135637  1
  N  N66  1  0.22305884  0.87258637  0.84552925  1
  N  N67  1  0.11158483  0.75679635  0.60215761  1
  N  N68  1  0.92502646  0.85008008  0.33306735  1
  N  N69  1  0.77628042  0.76262528  0.09608176  1
  N  N70  1  0.55435350  0.87505560  0.84838914  1
  N  N71  1  0.45089815  0.75798235  0.60114350  1
