# generated using pymatgen
data_Gd5Al31N36
_symmetry_space_group_name_H-M   'P 1'
_cell_length_a   9.68033274
_cell_length_b   9.63994581
_cell_length_c   10.67598128
_cell_angle_alpha   90.84564213
_cell_angle_beta   91.25564986
_cell_angle_gamma   60.21427457
_symmetry_Int_Tables_number   1
_chemical_formula_structural   Gd5Al31N36
_chemical_formula_sum   'Gd5 Al31 N36'
_cell_volume   864.42707433
_cell_formula_units_Z   1
loop_
 _symmetry_equiv_pos_site_id
 _symmetry_equiv_pos_as_xyz
  1  'x, y, z'
loop_
 _atom_site_type_symbol
 _atom_site_label
 _atom_site_symmetry_multiplicity
 _atom_site_fract_x
 _atom_site_fract_y
 _atom_site_fract_z
 _atom_site_occupancy
  Al  Al0  1  0.11176606  0.08929969  0.40708989  1
  Al  Al1  1  0.23015183  0.20985457  0.05345689  1
  Al  Al2  1  0.89220573  0.21111616  0.63788821  1
  Al  Al3  1  0.43328239  0.09319816  0.32866472  1
  Al  Al4  1  0.55054974  0.20895028  0.07248633  1
  Al  Al5  1  0.10785284  0.09637479  0.88331059  1
  Al  Al6  1  0.22729427  0.20407161  0.57949878  1
  Al  Al7  1  0.89750909  0.21894375  0.13200734  1
  Al  Al8  1  0.43437129  0.09833198  0.81879594  1
  Al  Al9  1  0.54264092  0.21395274  0.56500589  1
  Al  Al10  1  0.23320941  0.52959893  0.06870984  1
  Al  Al11  1  0.77585259  0.42627250  0.88578962  1
  Al  Al12  1  0.88515891  0.53981545  0.58094038  1
  Al  Al13  1  0.44061694  0.43566731  0.31698069  1
  Al  Al14  1  0.57299777  0.53892284  0.13755605  1
  Al  Al15  1  0.10533032  0.42151661  0.81846722  1
  Al  Al16  1  0.21972602  0.53881989  0.63379387  1
  Al  Al17  1  0.77305675  0.42463229  0.39859589  1
  Al  Al18  1  0.89785730  0.54365806  0.04740988  1
  Al  Al19  1  0.44010944  0.42467931  0.82354700  1
  Al  Al20  1  0.55759591  0.53680506  0.64722394  1
  Al  Al21  1  0.12748263  0.75478383  0.41877445  1
  Al  Al22  1  0.77605869  0.75491714  0.81537937  1
  Al  Al23  1  0.88493875  0.86971791  0.57717792  1
  Al  Al24  1  0.43639921  0.75568758  0.41067881  1
  Al  Al25  1  0.56583073  0.87584966  0.05362136  1
  Al  Al26  1  0.11715028  0.75653914  0.87884067  1
  Al  Al27  1  0.22280672  0.87260596  0.64928453  1
  Al  Al28  1  0.88944861  0.86796561  0.05195977  1
  Al  Al29  1  0.44834985  0.75430388  0.88622621  1
  Al  Al30  1  0.55104756  0.87884691  0.58088404  1
  Gd  Gd31  1  0.76027551  0.09883466  0.82447085  1
  Gd  Gd32  1  0.77812395  0.09346840  0.33097773  1
  Gd  Gd33  1  0.11488038  0.42248857  0.31912128  1
  Gd  Gd34  1  0.23008679  0.87215955  0.14833814  1
  Gd  Gd35  1  0.76276473  0.75740848  0.31471586  1
  N  N36  1  0.23661859  0.18392947  0.40176942  1
  N  N37  1  0.09982329  0.11553844  0.06323282  1
  N  N38  1  0.90200837  0.22183771  0.81699165  1
  N  N39  1  0.77167491  0.09851470  0.60408655  1
  N  N40  1  0.52041785  0.22504769  0.38517735  1
  N  N41  1  0.44508211  0.08936898  0.13537523  1
  N  N42  1  0.22458945  0.20484986  0.87216366  1
  N  N43  1  0.10721514  0.09116300  0.58899362  1
  N  N44  1  0.91352117  0.22435042  0.31794524  1
  N  N45  1  0.78260157  0.09298672  0.10431527  1
  N  N46  1  0.51365756  0.22519726  0.89790248  1
  N  N47  1  0.44545365  0.09724388  0.63955151  1
  N  N48  1  0.24044668  0.55073265  0.37141533  1
  N  N49  1  0.11678886  0.42752540  0.09906438  1
  N  N50  1  0.88843638  0.53912164  0.86837946  1
  N  N51  1  0.76622542  0.42332446  0.58144529  1
  N  N52  1  0.56429457  0.54681292  0.32472747  1
  N  N53  1  0.44894295  0.42669966  0.13071314  1
  N  N54  1  0.22071292  0.53679287  0.84619978  1
  N  N55  1  0.10569842  0.42356186  0.63648059  1
  N  N56  1  0.88253824  0.53303408  0.40679869  1
  N  N57  1  0.78063577  0.42862382  0.07010649  1
  N  N58  1  0.55988631  0.53712502  0.82918888  1
  N  N59  1  0.44500455  0.41876457  0.64113306  1
  N  N60  1  0.21932915  0.87286288  0.36163231  1
  N  N61  1  0.11283406  0.74834586  0.06139671  1
  N  N62  1  0.89621928  0.84816815  0.87156834  1
  N  N63  1  0.77242695  0.76169387  0.63493470  1
  N  N64  1  0.52847333  0.88910086  0.40172511  1
  N  N65  1  0.47356271  0.74387358  0.06601640  1
  N  N66  1  0.22513737  0.87230651  0.83226143  1
  N  N67  1  0.11373609  0.75982719  0.60387350  1
  N  N68  1  0.90865136  0.85080406  0.40078072  1
  N  N69  1  0.78346522  0.75978363  0.10089563  1
  N  N70  1  0.55643256  0.87949555  0.87171961  1
  N  N71  1  0.44221121  0.75361733  0.59296595  1
