# generated using pymatgen
data_Gd5Al31N36
_symmetry_space_group_name_H-M   'P 1'
_cell_length_a   9.70167924
_cell_length_b   9.67271305
_cell_length_c   10.29059367
_cell_angle_alpha   90.00530608
_cell_angle_beta   90.22142440
_cell_angle_gamma   59.95412885
_symmetry_Int_Tables_number   1
_chemical_formula_structural   Gd5Al31N36
_chemical_formula_sum   'Gd5 Al31 N36'
_cell_volume   835.91308266
_cell_formula_units_Z   1
loop_
 _symmetry_equiv_pos_site_id
 _symmetry_equiv_pos_as_xyz
  1  'x, y, z'
loop_
 _atom_site_type_symbol
 _atom_site_label
 _atom_site_symmetry_multiplicity
 _atom_site_fract_x
 _atom_site_fract_y
 _atom_site_fract_z
 _atom_site_occupancy
  Al  Al0  1  0.11421381  0.09721550  0.31164633  1
  Al  Al1  1  0.22138825  0.20804881  0.04590295  1
  Al  Al2  1  0.89130290  0.21041677  0.55193892  1
  Al  Al3  1  0.43302840  0.09264506  0.30928046  1
  Al  Al4  1  0.54452989  0.21068841  0.05314215  1
  Al  Al5  1  0.11530462  0.09638314  0.79843898  1
  Al  Al6  1  0.22466825  0.20138350  0.56091976  1
  Al  Al7  1  0.89273349  0.21643466  0.05276049  1
  Al  Al8  1  0.43676545  0.09743196  0.80443089  1
  Al  Al9  1  0.54338843  0.21119256  0.55217225  1
  Al  Al10  1  0.22132829  0.53623160  0.04615869  1
  Al  Al11  1  0.77879052  0.43139225  0.80414122  1
  Al  Al12  1  0.88617614  0.53680740  0.56662653  1
  Al  Al13  1  0.44190016  0.43573881  0.30748010  1
  Al  Al14  1  0.56374867  0.53556242  0.05827680  1
  Al  Al15  1  0.11383351  0.42721243  0.80501852  1
  Al  Al16  1  0.22820437  0.54116533  0.56117232  1
  Al  Al17  1  0.77690053  0.42781860  0.30763698  1
  Al  Al18  1  0.89024022  0.53593592  0.03667530  1
  Al  Al19  1  0.43900655  0.43342275  0.80674441  1
  Al  Al20  1  0.55768362  0.53500076  0.55644767  1
  Al  Al21  1  0.11905953  0.75571011  0.31246489  1
  Al  Al22  1  0.77861412  0.75680751  0.80456547  1
  Al  Al23  1  0.89394965  0.86608059  0.55730934  1
  Al  Al24  1  0.44617115  0.75807572  0.31443960  1
  Al  Al25  1  0.55855947  0.87058148  0.04490947  1
  Al  Al26  1  0.11740579  0.75620698  0.79662798  1
  Al  Al27  1  0.22225961  0.87192586  0.55412873  1
  Al  Al28  1  0.89319279  0.85972311  0.04161748  1
  Al  Al29  1  0.44495204  0.75902474  0.79796093  1
  Al  Al30  1  0.55006838  0.87554631  0.56231640  1
  Gd  Gd31  1  0.77348258  0.10142781  0.80955608  1
  Gd  Gd32  1  0.77500077  0.09742746  0.30850130  1
  Gd  Gd33  1  0.11749312  0.42659519  0.30644561  1
  Gd  Gd34  1  0.22411396  0.86996347  0.06422272  1
  Gd  Gd35  1  0.76745825  0.75895692  0.29891737  1
  N  N36  1  0.23148050  0.18207871  0.37932195  1
  N  N37  1  0.10047380  0.12462913  0.12598431  1
  N  N38  1  0.90837952  0.22179616  0.86979163  1
  N  N39  1  0.77359195  0.09792101  0.58231976  1
  N  N40  1  0.51595581  0.22345573  0.36747969  1
  N  N41  1  0.44326650  0.09100282  0.11579645  1
  N  N42  1  0.22271930  0.20254017  0.85876761  1
  N  N43  1  0.10972016  0.09395611  0.61262935  1
  N  N44  1  0.90328939  0.21833468  0.36941932  1
  N  N45  1  0.77991175  0.09326384  0.07800467  1
  N  N46  1  0.51853834  0.22383816  0.87175416  1
  N  N47  1  0.44411465  0.09550471  0.61989439  1
  N  N48  1  0.24174754  0.55304258  0.37986622  1
  N  N49  1  0.11110595  0.42726633  0.08310565  1
  N  N50  1  0.88956055  0.53734010  0.85121826  1
  N  N51  1  0.77490373  0.42542870  0.61969064  1
  N  N52  1  0.56023477  0.53336703  0.36719606  1
  N  N53  1  0.44269212  0.43197962  0.11627942  1
  N  N54  1  0.22346456  0.54261271  0.85929042  1
  N  N55  1  0.11457252  0.42766885  0.61307976  1
  N  N56  1  0.87632986  0.52606187  0.38576674  1
  N  N57  1  0.78038361  0.43037691  0.11615249  1
  N  N58  1  0.55692456  0.53864145  0.86718839  1
  N  N59  1  0.44807830  0.42692030  0.62005804  1
  N  N60  1  0.22214822  0.87296506  0.35699897  1
  N  N61  1  0.09631798  0.74141090  0.12605872  1
  N  N62  1  0.90806163  0.84322992  0.85838322  1
  N  N63  1  0.77458451  0.76319041  0.61503486  1
  N  N64  1  0.52676692  0.88596616  0.38023094  1
  N  N65  1  0.47957173  0.74626121  0.12785253  1
  N  N66  1  0.22334635  0.87251222  0.84440188  1
  N  N67  1  0.11349667  0.76175161  0.61347156  1
  N  N68  1  0.91586114  0.85065702  0.37792365  1
  N  N69  1  0.77808760  0.75751574  0.07886521  1
  N  N70  1  0.55126526  0.87372523  0.85730762  1
  N  N71  1  0.44508626  0.75695268  0.61138446  1
