# generated using pymatgen
data_Gd5Al31N36
_symmetry_space_group_name_H-M   'P 1'
_cell_length_a   9.67850629
_cell_length_b   9.62534722
_cell_length_c   10.70435936
_cell_angle_alpha   91.09526563
_cell_angle_beta   91.37724875
_cell_angle_gamma   60.16490072
_symmetry_Int_Tables_number   1
_chemical_formula_structural   Gd5Al31N36
_chemical_formula_sum   'Gd5 Al31 N36'
_cell_volume   864.75888287
_cell_formula_units_Z   1
loop_
 _symmetry_equiv_pos_site_id
 _symmetry_equiv_pos_as_xyz
  1  'x, y, z'
loop_
 _atom_site_type_symbol
 _atom_site_label
 _atom_site_symmetry_multiplicity
 _atom_site_fract_x
 _atom_site_fract_y
 _atom_site_fract_z
 _atom_site_occupancy
  Al  Al0  1  0.11441919  0.08461526  0.41011924  1
  Al  Al1  1  0.22732542  0.21554163  0.05291237  1
  Al  Al2  1  0.89361877  0.20984909  0.63780713  1
  Al  Al3  1  0.43443571  0.09165140  0.32721912  1
  Al  Al4  1  0.55006367  0.21080793  0.07299661  1
  Al  Al5  1  0.10610602  0.09570028  0.88286552  1
  Al  Al6  1  0.22976372  0.20056755  0.58182906  1
  Al  Al7  1  0.89621775  0.21997896  0.13264782  1
  Al  Al8  1  0.43315811  0.09894489  0.81938515  1
  Al  Al9  1  0.54189657  0.21505536  0.56328179  1
  Al  Al10  1  0.22201619  0.54779011  0.13200597  1
  Al  Al11  1  0.77559812  0.42507227  0.88671257  1
  Al  Al12  1  0.88530116  0.53944616  0.58295134  1
  Al  Al13  1  0.44610350  0.43311398  0.31228702  1
  Al  Al14  1  0.57288725  0.53964988  0.13581609  1
  Al  Al15  1  0.10484738  0.42246000  0.81723815  1
  Al  Al16  1  0.21970535  0.53960259  0.64849813  1
  Al  Al17  1  0.77209659  0.42475705  0.40154644  1
  Al  Al18  1  0.89877367  0.54478842  0.04716761  1
  Al  Al19  1  0.43677706  0.42718609  0.83166832  1
  Al  Al20  1  0.55751103  0.53510690  0.64886435  1
  Al  Al21  1  0.13002924  0.74861942  0.40737284  1
  Al  Al22  1  0.77739799  0.75520437  0.81687438  1
  Al  Al23  1  0.89023256  0.86468331  0.57132793  1
  Al  Al24  1  0.43960764  0.75584721  0.41197786  1
  Al  Al25  1  0.56477428  0.87776207  0.05204022  1
  Al  Al26  1  0.11911181  0.75121515  0.88667190  1
  Al  Al27  1  0.22455637  0.86761472  0.64780691  1
  Al  Al28  1  0.88732586  0.87304455  0.05307126  1
  Al  Al29  1  0.44704801  0.75480092  0.88590227  1
  Al  Al30  1  0.55459567  0.87791842  0.58190496  1
  Gd  Gd31  1  0.75609593  0.09731005  0.81663955  1
  Gd  Gd32  1  0.77903330  0.09505461  0.33512544  1
  Gd  Gd33  1  0.10893712  0.41235625  0.32391349  1
  Gd  Gd34  1  0.23057443  0.87751898  0.14847227  1
  Gd  Gd35  1  0.76312955  0.75518516  0.31055111  1
  N  N36  1  0.24120972  0.17665607  0.40503881  1
  N  N37  1  0.09790392  0.11882502  0.06201851  1
  N  N38  1  0.89918717  0.21963304  0.81679937  1
  N  N39  1  0.77478018  0.09598697  0.59690101  1
  N  N40  1  0.51622425  0.22902350  0.38424793  1
  N  N41  1  0.44293121  0.09085975  0.13535122  1
  N  N42  1  0.22243348  0.20624952  0.87162855  1
  N  N43  1  0.10906105  0.08788004  0.59082593  1
  N  N44  1  0.91748466  0.22455115  0.31955831  1
  N  N45  1  0.78110128  0.09539508  0.10918779  1
  N  N46  1  0.51348586  0.22421612  0.89901292  1
  N  N47  1  0.44831363  0.09680438  0.64053287  1
  N  N48  1  0.22894708  0.56266808  0.31538677  1
  N  N49  1  0.11321522  0.43034474  0.10624586  1
  N  N50  1  0.88860858  0.53816701  0.86800746  1
  N  N51  1  0.76694188  0.42259475  0.58352980  1
  N  N52  1  0.56456236  0.54646910  0.32687248  1
  N  N53  1  0.45410037  0.42629624  0.12883873  1
  N  N54  1  0.21560011  0.54170085  0.82899608  1
  N  N55  1  0.10669784  0.42113129  0.63315240  1
  N  N56  1  0.87865540  0.53557908  0.40951808  1
  N  N57  1  0.78099317  0.42996902  0.07060000  1
  N  N58  1  0.55882684  0.53640526  0.83091257  1
  N  N59  1  0.44542416  0.41900251  0.63820361  1
  N  N60  1  0.22329441  0.86980512  0.36172016  1
  N  N61  1  0.11192239  0.75100793  0.06494652  1
  N  N62  1  0.89645516  0.85031688  0.87354062  1
  N  N63  1  0.77599505  0.76190246  0.63618958  1
  N  N64  1  0.53256873  0.88837773  0.40241602  1
  N  N65  1  0.47314880  0.74550356  0.06566793  1
  N  N66  1  0.22360474  0.86983130  0.83160387  1
  N  N67  1  0.12168726  0.75046500  0.59016596  1
  N  N68  1  0.91009082  0.84778174  0.39510627  1
  N  N69  1  0.78205005  0.76243953  0.09797183  1
  N  N70  1  0.55554982  0.87959524  0.87058074  1
  N  N71  1  0.44540375  0.75283352  0.59381696  1
