# generated using pymatgen
data_Gd5Al31N36
_symmetry_space_group_name_H-M   'P 1'
_cell_length_a   9.60177048
_cell_length_b   9.58069759
_cell_length_c   10.70404185
_cell_angle_alpha   90.66738839
_cell_angle_beta   90.80514401
_cell_angle_gamma   60.50105347
_symmetry_Int_Tables_number   1
_chemical_formula_structural   Gd5Al31N36
_chemical_formula_sum   'Gd5 Al31 N36'
_cell_volume   856.93573213
_cell_formula_units_Z   1
loop_
 _symmetry_equiv_pos_site_id
 _symmetry_equiv_pos_as_xyz
  1  'x, y, z'
loop_
 _atom_site_type_symbol
 _atom_site_label
 _atom_site_symmetry_multiplicity
 _atom_site_fract_x
 _atom_site_fract_y
 _atom_site_fract_z
 _atom_site_occupancy
  Al  Al0  1  0.11184329  0.08840754  0.42403015  1
  Al  Al1  1  0.22885152  0.21792627  0.06262587  1
  Al  Al2  1  0.88584340  0.20483371  0.66169448  1
  Al  Al3  1  0.43182090  0.09172333  0.34499345  1
  Al  Al4  1  0.54874342  0.21441465  0.16055785  1
  Al  Al5  1  0.10865759  0.09799808  0.89518850  1
  Al  Al6  1  0.22400774  0.20336441  0.59517014  1
  Al  Al7  1  0.89540231  0.22339651  0.15689614  1
  Al  Al8  1  0.43551811  0.09485806  0.82339275  1
  Al  Al9  1  0.55096267  0.21138205  0.65528022  1
  Al  Al10  1  0.23198651  0.54687558  0.14348562  1
  Al  Al11  1  0.77508242  0.42697939  0.89943343  1
  Al  Al12  1  0.88508729  0.53740850  0.59503308  1
  Al  Al13  1  0.44088233  0.43682953  0.40115230  1
  Al  Al14  1  0.56809281  0.53687157  0.14700822  1
  Al  Al15  1  0.11020800  0.42486839  0.82732283  1
  Al  Al16  1  0.22475127  0.53945431  0.65327931  1
  Al  Al17  1  0.77256422  0.42310343  0.41639132  1
  Al  Al18  1  0.90184602  0.54816621  0.05651322  1
  Al  Al19  1  0.43932914  0.43166195  0.90151542  1
  Al  Al20  1  0.55317305  0.53333488  0.65756401  1
  Al  Al21  1  0.11699244  0.75334161  0.40723108  1
  Al  Al22  1  0.77659921  0.75183467  0.82661848  1
  Al  Al23  1  0.89283937  0.86463704  0.65554539  1
  Al  Al24  1  0.43179684  0.75753539  0.42461177  1
  Al  Al25  1  0.56672313  0.88064787  0.05705472  1
  Al  Al26  1  0.11612224  0.75174475  0.89748442  1
  Al  Al27  1  0.21810925  0.86913556  0.65704669  1
  Al  Al28  1  0.90402487  0.86694437  0.15078768  1
  Al  Al29  1  0.44686740  0.75446674  0.89445774  1
  Al  Al30  1  0.55169826  0.87457448  0.59314361  1
  Gd  Gd31  1  0.77597238  0.08829826  0.91202771  1
  Gd  Gd32  1  0.78235810  0.09084011  0.39459258  1
  Gd  Gd33  1  0.10802100  0.41624845  0.33076067  1
  Gd  Gd34  1  0.23426041  0.88222358  0.15910272  1
  Gd  Gd35  1  0.74558962  0.74335019  0.31136881  1
  N  N36  1  0.23684865  0.18453097  0.41894068  1
  N  N37  1  0.09507427  0.12366449  0.07532659  1
  N  N38  1  0.89734467  0.21801172  0.83656388  1
  N  N39  1  0.77409026  0.08890002  0.61463095  1
  N  N40  1  0.52283262  0.22632734  0.33761701  1
  N  N41  1  0.44050745  0.08808589  0.13775308  1
  N  N42  1  0.22717029  0.20866769  0.88326712  1
  N  N43  1  0.10147655  0.08983807  0.60446082  1
  N  N44  1  0.91444615  0.22388622  0.33706379  1
  N  N45  1  0.77941956  0.10093514  0.13204827  1
  N  N46  1  0.53138950  0.22560891  0.83428500  1
  N  N47  1  0.43948397  0.09002245  0.64729444  1
  N  N48  1  0.24174832  0.55749236  0.32665293  1
  N  N49  1  0.11678076  0.43372310  0.11498097  1
  N  N50  1  0.89238666  0.53681058  0.88000576  1
  N  N51  1  0.76689480  0.41697313  0.59775796  1
  N  N52  1  0.56131630  0.54382211  0.34061666  1
  N  N53  1  0.45137043  0.42782412  0.08631116  1
  N  N54  1  0.22905358  0.54024235  0.83565225  1
  N  N55  1  0.10678299  0.42322447  0.64620674  1
  N  N56  1  0.87988176  0.53547195  0.42223441  1
  N  N57  1  0.78121070  0.43241094  0.08678802  1
  N  N58  1  0.55685051  0.53518608  0.83907301  1
  N  N59  1  0.43982324  0.42722568  0.58588814  1
  N  N60  1  0.21792226  0.87497978  0.37218460  1
  N  N61  1  0.10854705  0.75567282  0.07569606  1
  N  N62  1  0.90988686  0.84455959  0.83118686  1
  N  N63  1  0.76817191  0.75535528  0.64626963  1
  N  N64  1  0.52801001  0.88946290  0.41521343  1
  N  N65  1  0.47682848  0.74390023  0.07572351  1
  N  N66  1  0.22286879  0.87218179  0.84255920  1
  N  N67  1  0.10792271  0.75492946  0.59022389  1
  N  N68  1  0.91674198  0.84046512  0.32741892  1
  N  N69  1  0.78401252  0.76833986  0.10005683  1
  N  N70  1  0.55688197  0.87948292  0.87892881  1
  N  N71  1  0.43893142  0.75162328  0.60468328  1
