# generated using pymatgen
data_Gd5Al31N36
_symmetry_space_group_name_H-M   'P 1'
_cell_length_a   9.68053553
_cell_length_b   9.63235778
_cell_length_c   10.70798531
_cell_angle_alpha   90.95029216
_cell_angle_beta   91.30153446
_cell_angle_gamma   60.17096628
_symmetry_Int_Tables_number   1
_chemical_formula_structural   Gd5Al31N36
_chemical_formula_sum   'Gd5 Al31 N36'
_cell_volume   865.95609047
_cell_formula_units_Z   1
loop_
 _symmetry_equiv_pos_site_id
 _symmetry_equiv_pos_as_xyz
  1  'x, y, z'
loop_
 _atom_site_type_symbol
 _atom_site_label
 _atom_site_symmetry_multiplicity
 _atom_site_fract_x
 _atom_site_fract_y
 _atom_site_fract_z
 _atom_site_occupancy
  Al  Al0  1  0.11215984  0.08656420  0.40889854  1
  Al  Al1  1  0.22970074  0.21304389  0.05311014  1
  Al  Al2  1  0.89244657  0.21060812  0.63856292  1
  Al  Al3  1  0.43358569  0.09329850  0.32851012  1
  Al  Al4  1  0.55017552  0.21053850  0.07096681  1
  Al  Al5  1  0.10821857  0.09558077  0.88311327  1
  Al  Al6  1  0.22778885  0.20210459  0.58074236  1
  Al  Al7  1  0.89752608  0.21898276  0.13127005  1
  Al  Al8  1  0.43449810  0.09851005  0.81892747  1
  Al  Al9  1  0.54271040  0.21414066  0.56619022  1
  Al  Al10  1  0.22597341  0.54350727  0.12820708  1
  Al  Al11  1  0.77580414  0.42620769  0.88613733  1
  Al  Al12  1  0.88449407  0.53969110  0.58189782  1
  Al  Al13  1  0.44538959  0.43347618  0.31537152  1
  Al  Al14  1  0.57376634  0.53846938  0.13713655  1
  Al  Al15  1  0.10529747  0.42192768  0.81778026  1
  Al  Al16  1  0.21703570  0.54102177  0.64758830  1
  Al  Al17  1  0.77168192  0.42490444  0.40044937  1
  Al  Al18  1  0.89940295  0.54362955  0.04742101  1
  Al  Al19  1  0.43820192  0.42587724  0.82459550  1
  Al  Al20  1  0.55732981  0.53651901  0.64733515  1
  Al  Al21  1  0.12786295  0.75106748  0.40995577  1
  Al  Al22  1  0.77716705  0.75483692  0.81598045  1
  Al  Al23  1  0.88714677  0.86814712  0.57432151  1
  Al  Al24  1  0.43753838  0.75721406  0.41127588  1
  Al  Al25  1  0.56605289  0.87619697  0.05308231  1
  Al  Al26  1  0.12079263  0.74950292  0.88475987  1
  Al  Al27  1  0.22323834  0.86960593  0.64799690  1
  Al  Al28  1  0.88995080  0.86838571  0.05232026  1
  Al  Al29  1  0.44796835  0.75415041  0.88614636  1
  Al  Al30  1  0.55232268  0.87875325  0.58138550  1
  Gd  Gd31  1  0.76138889  0.09719229  0.82386981  1
  Gd  Gd32  1  0.77638443  0.09556795  0.33039191  1
  Gd  Gd33  1  0.10851945  0.41467795  0.32194594  1
  Gd  Gd34  1  0.23085577  0.87477688  0.14847308  1
  Gd  Gd35  1  0.76267555  0.75728223  0.31292939  1
  N  N36  1  0.23866696  0.17932663  0.40370818  1
  N  N37  1  0.10006249  0.11668634  0.06256958  1
  N  N38  1  0.90200522  0.22149253  0.81711373  1
  N  N39  1  0.77288860  0.09710658  0.60366502  1
  N  N40  1  0.51691323  0.22872063  0.38723534  1
  N  N41  1  0.44521468  0.09011203  0.13551453  1
  N  N42  1  0.22434144  0.20552198  0.87224268  1
  N  N43  1  0.10729943  0.08931762  0.58967527  1
  N  N44  1  0.91471684  0.22470111  0.31827309  1
  N  N45  1  0.78303752  0.09313520  0.10465554  1
  N  N46  1  0.51412527  0.22530121  0.89683884  1
  N  N47  1  0.44585697  0.09702444  0.64012917  1
  N  N48  1  0.22884368  0.56312480  0.31974877  1
  N  N49  1  0.11544421  0.42837964  0.10433673  1
  N  N50  1  0.88895339  0.53862414  0.86861974  1
  N  N51  1  0.76633600  0.42267888  0.58216143  1
  N  N52  1  0.56367027  0.54765189  0.32705114  1
  N  N53  1  0.45635541  0.42311058  0.13202871  1
  N  N54  1  0.21687874  0.54019854  0.82823385  1
  N  N55  1  0.10506030  0.42188126  0.63342284  1
  N  N56  1  0.87871938  0.53540420  0.40834980  1
  N  N57  1  0.78126562  0.42904768  0.07021260  1
  N  N58  1  0.55968364  0.53678337  0.82904036  1
  N  N59  1  0.44421370  0.42015276  0.63808858  1
  N  N60  1  0.22106967  0.87154928  0.36155222  1
  N  N61  1  0.11443951  0.74743945  0.06332590  1
  N  N62  1  0.89822008  0.84700167  0.87300378  1
  N  N63  1  0.77389827  0.76183707  0.63548168  1
  N  N64  1  0.53028198  0.88962440  0.40214526  1
  N  N65  1  0.47392916  0.74402517  0.06595684  1
  N  N66  1  0.22431662  0.87020004  0.83163810  1
  N  N67  1  0.11879614  0.75344881  0.59281592  1
  N  N68  1  0.90765127  0.85201578  0.39798668  1
  N  N69  1  0.78348032  0.76031412  0.10023585  1
  N  N70  1  0.55652015  0.87940701  0.87170218  1
  N  N71  1  0.44332514  0.75377755  0.59279107  1
