# generated using pymatgen
data_Gd5Al31N36
_symmetry_space_group_name_H-M   'P 1'
_cell_length_a   9.65655003
_cell_length_b   9.64976887
_cell_length_c   10.59589522
_cell_angle_alpha   91.05152707
_cell_angle_beta   90.95463045
_cell_angle_gamma   60.49516509
_symmetry_Int_Tables_number   1
_chemical_formula_structural   Gd5Al31N36
_chemical_formula_sum   'Gd5 Al31 N36'
_cell_volume   859.13773305
_cell_formula_units_Z   1
loop_
 _symmetry_equiv_pos_site_id
 _symmetry_equiv_pos_as_xyz
  1  'x, y, z'
loop_
 _atom_site_type_symbol
 _atom_site_label
 _atom_site_symmetry_multiplicity
 _atom_site_fract_x
 _atom_site_fract_y
 _atom_site_fract_z
 _atom_site_occupancy
  Al  Al0  1  0.11479779  0.08144518  0.40331245  1
  Al  Al1  1  0.22409923  0.21669033  0.03544208  1
  Al  Al2  1  0.88989786  0.20882956  0.61640285  1
  Al  Al3  1  0.43407352  0.09146356  0.31505594  1
  Al  Al4  1  0.54108110  0.21471655  0.05664567  1
  Al  Al5  1  0.11119450  0.09817532  0.85730497  1
  Al  Al6  1  0.23069945  0.20543582  0.57016623  1
  Al  Al7  1  0.88137918  0.21351750  0.05707249  1
  Al  Al8  1  0.43575737  0.09960936  0.80392717  1
  Al  Al9  1  0.54715292  0.21147341  0.55226603  1
  Al  Al10  1  0.22235754  0.53957490  0.05242084  1
  Al  Al11  1  0.76979306  0.43382774  0.85994329  1
  Al  Al12  1  0.89060888  0.54174415  0.57298979  1
  Al  Al13  1  0.44081398  0.43345335  0.30964372  1
  Al  Al14  1  0.56876208  0.53846274  0.12630124  1
  Al  Al15  1  0.11298990  0.43017382  0.80353397  1
  Al  Al16  1  0.22779330  0.54171884  0.56244524  1
  Al  Al17  1  0.77124854  0.42514053  0.39763151  1
  Al  Al18  1  0.89408318  0.54124999  0.03278480  1
  Al  Al19  1  0.43264815  0.43025023  0.80854559  1
  Al  Al20  1  0.55465708  0.54074777  0.63435956  1
  Al  Al21  1  0.11837759  0.75116857  0.31884335  1
  Al  Al22  1  0.78094770  0.75439022  0.80490044  1
  Al  Al23  1  0.89785005  0.86600648  0.55897807  1
  Al  Al24  1  0.43593723  0.75584996  0.39433922  1
  Al  Al25  1  0.56502940  0.87689021  0.04115445  1
  Al  Al26  1  0.11610377  0.75077271  0.80756355  1
  Al  Al27  1  0.22880576  0.87081957  0.63611349  1
  Al  Al28  1  0.89789578  0.85752869  0.04722097  1
  Al  Al29  1  0.44926199  0.75509415  0.87350676  1
  Al  Al30  1  0.55544475  0.87832059  0.56667828  1
  Gd  Gd31  1  0.76150703  0.08649126  0.81032836  1
  Gd  Gd32  1  0.78046328  0.09434944  0.30941334  1
  Gd  Gd33  1  0.11594283  0.41558486  0.30733133  1
  Gd  Gd34  1  0.22883125  0.88523845  0.12373247  1
  Gd  Gd35  1  0.76686968  0.75405328  0.30231918  1
  N  N36  1  0.23716753  0.18027949  0.39037715  1
  N  N37  1  0.09481429  0.12239579  0.03952653  1
  N  N38  1  0.89455815  0.21847800  0.81255100  1
  N  N39  1  0.77402183  0.09462134  0.59055892  1
  N  N40  1  0.52161754  0.22347407  0.37185149  1
  N  N41  1  0.43860259  0.09192189  0.11970136  1
  N  N42  1  0.22402742  0.21114372  0.85240151  1
  N  N43  1  0.11470554  0.08861433  0.58829386  1
  N  N44  1  0.90746062  0.21661452  0.35388536  1
  N  N45  1  0.77675576  0.09331075  0.07867178  1
  N  N46  1  0.51352780  0.22855608  0.88057708  1
  N  N47  1  0.44972471  0.09569885  0.62502729  1
  N  N48  1  0.24204503  0.54936767  0.38438801  1
  N  N49  1  0.10993996  0.42905130  0.08800233  1
  N  N50  1  0.89142130  0.53803606  0.85044073  1
  N  N51  1  0.76821987  0.42985630  0.58236092  1
  N  N52  1  0.56521188  0.54360187  0.31610178  1
  N  N53  1  0.43978123  0.42946337  0.12373972  1
  N  N54  1  0.22364232  0.54226124  0.86921354  1
  N  N55  1  0.11522303  0.42945130  0.61983630  1
  N  N56  1  0.88455239  0.53126063  0.39621435  1
  N  N57  1  0.77145107  0.43162158  0.04888259  1
  N  N58  1  0.55337484  0.54270782  0.81429614  1
  N  N59  1  0.44202203  0.42191954  0.62493935  1
  N  N60  1  0.22330269  0.87184278  0.33859701  1
  N  N61  1  0.09857851  0.74443249  0.13087358  1
  N  N62  1  0.91194307  0.83671857  0.87068603  1
  N  N63  1  0.77681041  0.76570670  0.62241482  1
  N  N64  1  0.53102196  0.88782244  0.38633458  1
  N  N65  1  0.47515325  0.74226000  0.05364126  1
  N  N66  1  0.22935470  0.87250935  0.82283274  1
  N  N67  1  0.11182338  0.75697450  0.62686161  1
  N  N68  1  0.91676613  0.84908848  0.38434701  1
  N  N69  1  0.77927654  0.75771886  0.08738702  1
  N  N70  1  0.55876405  0.88179528  0.85837986  1
  N  N71  1  0.44330411  0.75466244  0.57725460  1
