# generated using pymatgen
data_Gd5Al31N36
_symmetry_space_group_name_H-M   'P 1'
_cell_length_a   9.71176505
_cell_length_b   9.68599188
_cell_length_c   10.48728454
_cell_angle_alpha   90.56739144
_cell_angle_beta   90.59656731
_cell_angle_gamma   59.98464335
_symmetry_Int_Tables_number   1
_chemical_formula_structural   Gd5Al31N36
_chemical_formula_sum   'Gd5 Al31 N36'
_cell_volume   854.15915645
_cell_formula_units_Z   1
loop_
 _symmetry_equiv_pos_site_id
 _symmetry_equiv_pos_as_xyz
  1  'x, y, z'
loop_
 _atom_site_type_symbol
 _atom_site_label
 _atom_site_symmetry_multiplicity
 _atom_site_fract_x
 _atom_site_fract_y
 _atom_site_fract_z
 _atom_site_occupancy
  Al  Al0  1  0.11924741  0.08446085  0.36502366  1
  Al  Al1  1  0.22025014  0.21211792  0.04251232  1
  Al  Al2  1  0.88552910  0.21172966  0.56200616  1
  Al  Al3  1  0.43428206  0.08925587  0.31265578  1
  Al  Al4  1  0.54243336  0.21332489  0.05649479  1
  Al  Al5  1  0.11188629  0.10315964  0.81155720  1
  Al  Al6  1  0.22681073  0.20521435  0.57153486  1
  Al  Al7  1  0.88956609  0.21986591  0.04931801  1
  Al  Al8  1  0.43763360  0.09895496  0.80546153  1
  Al  Al9  1  0.54493332  0.21013196  0.55343147  1
  Al  Al10  1  0.21949104  0.53911760  0.05161443  1
  Al  Al11  1  0.78446493  0.43036753  0.80416261  1
  Al  Al12  1  0.88858558  0.53610682  0.56747413  1
  Al  Al13  1  0.43887982  0.43332833  0.31104946  1
  Al  Al14  1  0.56092195  0.54134961  0.12798373  1
  Al  Al15  1  0.11172295  0.43126057  0.80908219  1
  Al  Al16  1  0.22546365  0.54141634  0.56401302  1
  Al  Al17  1  0.78600823  0.42251411  0.31296556  1
  Al  Al18  1  0.88873842  0.53784102  0.04126294  1
  Al  Al19  1  0.43376979  0.42999154  0.80938845  1
  Al  Al20  1  0.55329886  0.53896584  0.63116919  1
  Al  Al21  1  0.11645069  0.75243648  0.31694045  1
  Al  Al22  1  0.77980213  0.75674342  0.80513515  1
  Al  Al23  1  0.89498862  0.86729853  0.56125487  1
  Al  Al24  1  0.43625772  0.75402409  0.39222042  1
  Al  Al25  1  0.56431682  0.87688178  0.04148383  1
  Al  Al26  1  0.11400714  0.75208525  0.80818502  1
  Al  Al27  1  0.22819593  0.86738811  0.63377638  1
  Al  Al28  1  0.89272733  0.86045534  0.04714778  1
  Al  Al29  1  0.45413435  0.75109329  0.87191220  1
  Al  Al30  1  0.55369583  0.87772414  0.56677653  1
  Gd  Gd31  1  0.76947608  0.09858607  0.81467457  1
  Gd  Gd32  1  0.77815626  0.09610573  0.30667219  1
  Gd  Gd33  1  0.12107594  0.41730150  0.30459480  1
  Gd  Gd34  1  0.22584756  0.87676450  0.10798918  1
  Gd  Gd35  1  0.76832288  0.75630689  0.30428204  1
  N  N36  1  0.23621258  0.18022722  0.39200222  1
  N  N37  1  0.09747455  0.13126039  0.10200097  1
  N  N38  1  0.90072499  0.22395911  0.86750519  1
  N  N39  1  0.77253457  0.09780115  0.59116047  1
  N  N40  1  0.52040060  0.22050787  0.37076729  1
  N  N41  1  0.44185240  0.09182109  0.11981910  1
  N  N42  1  0.22330927  0.20793909  0.85751582  1
  N  N43  1  0.10939654  0.09596437  0.61731769  1
  N  N44  1  0.90229477  0.21656723  0.38201021  1
  N  N45  1  0.77756203  0.09616476  0.08011139  1
  N  N46  1  0.51640257  0.22551311  0.87796351  1
  N  N47  1  0.44663913  0.09572725  0.62435089  1
  N  N48  1  0.23949562  0.55069847  0.38498631  1
  N  N49  1  0.11047633  0.42989037  0.08557768  1
  N  N50  1  0.88825393  0.53976082  0.85782183  1
  N  N51  1  0.78061984  0.42598442  0.62150958  1
  N  N52  1  0.55725375  0.54344326  0.31888801  1
  N  N53  1  0.43745777  0.43021233  0.12215062  1
  N  N54  1  0.22312075  0.54236353  0.86768864  1
  N  N55  1  0.11297655  0.43017869  0.62054662  1
  N  N56  1  0.88316023  0.52267738  0.38975461  1
  N  N57  1  0.78627625  0.42875177  0.12284886  1
  N  N58  1  0.55644491  0.53723699  0.81702320  1
  N  N59  1  0.44176124  0.42212252  0.62326464  1
  N  N60  1  0.22399409  0.86864281  0.33398487  1
  N  N61  1  0.09227912  0.74241451  0.13112454  1
  N  N62  1  0.90720371  0.84200561  0.86739685  1
  N  N63  1  0.77685524  0.76218468  0.61864149  1
  N  N64  1  0.52961900  0.88573626  0.38467169  1
  N  N65  1  0.48059194  0.73941709  0.05238337  1
  N  N66  1  0.22836273  0.87109956  0.82765257  1
  N  N67  1  0.11055136  0.75815801  0.62604873  1
  N  N68  1  0.91455699  0.85318951  0.38458791  1
  N  N69  1  0.77726925  0.75974687  0.08867867  1
  N  N70  1  0.55802262  0.88019943  0.85635609  1
  N  N71  1  0.44231659  0.75428565  0.57725703  1
