# generated using pymatgen
data_Gd5Al31N36
_symmetry_space_group_name_H-M   'P 1'
_cell_length_a   9.70733827
_cell_length_b   9.70454727
_cell_length_c   10.54797707
_cell_angle_alpha   91.12523799
_cell_angle_beta   90.83266658
_cell_angle_gamma   59.93118077
_symmetry_Int_Tables_number   1
_chemical_formula_structural   Gd5Al31N36
_chemical_formula_sum   'Gd5 Al31 N36'
_cell_volume   859.77243943
_cell_formula_units_Z   1
loop_
 _symmetry_equiv_pos_site_id
 _symmetry_equiv_pos_as_xyz
  1  'x, y, z'
loop_
 _atom_site_type_symbol
 _atom_site_label
 _atom_site_symmetry_multiplicity
 _atom_site_fract_x
 _atom_site_fract_y
 _atom_site_fract_z
 _atom_site_occupancy
  Al  Al0  1  0.11391134  0.08518860  0.40760927  1
  Al  Al1  1  0.22609681  0.21713313  0.05165401  1
  Al  Al2  1  0.89103841  0.21154015  0.64007243  1
  Al  Al3  1  0.43331340  0.08748772  0.32146420  1
  Al  Al4  1  0.54652633  0.20713719  0.08032276  1
  Al  Al5  1  0.10983602  0.09866573  0.87971813  1
  Al  Al6  1  0.22850423  0.19943073  0.58132646  1
  Al  Al7  1  0.89669976  0.22386594  0.13203451  1
  Al  Al8  1  0.43826876  0.09569737  0.81885174  1
  Al  Al9  1  0.54685895  0.20583495  0.56888680  1
  Al  Al10  1  0.22729921  0.54677874  0.13693639  1
  Al  Al11  1  0.77451113  0.43033741  0.88381322  1
  Al  Al12  1  0.88516936  0.53910740  0.58204478  1
  Al  Al13  1  0.43698878  0.44079937  0.38494909  1
  Al  Al14  1  0.56627338  0.53809054  0.13786612  1
  Al  Al15  1  0.10892950  0.42263669  0.81438643  1
  Al  Al16  1  0.22829020  0.53699164  0.64308704  1
  Al  Al17  1  0.77174942  0.42621013  0.39851923  1
  Al  Al18  1  0.89896189  0.54332961  0.04905476  1
  Al  Al19  1  0.43312656  0.43559882  0.89836522  1
  Al  Al20  1  0.55303420  0.53302194  0.64323175  1
  Al  Al21  1  0.12729576  0.75369930  0.40773601  1
  Al  Al22  1  0.77734546  0.75557227  0.81549914  1
  Al  Al23  1  0.88894771  0.86803722  0.57966992  1
  Al  Al24  1  0.43830853  0.75616943  0.40785641  1
  Al  Al25  1  0.56342090  0.87390232  0.05104943  1
  Al  Al26  1  0.12138324  0.74691409  0.88305043  1
  Al  Al27  1  0.22327678  0.86857223  0.64722105  1
  Al  Al28  1  0.88953892  0.86574670  0.05461446  1
  Al  Al29  1  0.44764789  0.75168496  0.88200065  1
  Al  Al30  1  0.55337679  0.87601325  0.58013799  1
  Gd  Gd31  1  0.76842805  0.10128326  0.84202468  1
  Gd  Gd32  1  0.77945082  0.09918993  0.33527482  1
  Gd  Gd33  1  0.11298632  0.41175572  0.32742880  1
  Gd  Gd34  1  0.22693763  0.87926951  0.14210544  1
  Gd  Gd35  1  0.76761612  0.75954145  0.31418972  1
  N  N36  1  0.24101463  0.17431872  0.40260572  1
  N  N37  1  0.09770795  0.12190018  0.06063582  1
  N  N38  1  0.90432657  0.22645974  0.81779618  1
  N  N39  1  0.77083703  0.09860967  0.61092856  1
  N  N40  1  0.51840862  0.21957346  0.36814706  1
  N  N41  1  0.43916191  0.08787451  0.13118532  1
  N  N42  1  0.22518841  0.20741638  0.86819922  1
  N  N43  1  0.10722926  0.08781615  0.59069886  1
  N  N44  1  0.91802492  0.22641831  0.31811902  1
  N  N45  1  0.78189728  0.09437990  0.10553643  1
  N  N46  1  0.51799343  0.21514275  0.89869325  1
  N  N47  1  0.44647999  0.09589216  0.63799661  1
  N  N48  1  0.23366378  0.56163168  0.31952429  1
  N  N49  1  0.11471039  0.43130827  0.10787509  1
  N  N50  1  0.89042322  0.53953335  0.86677125  1
  N  N51  1  0.76729899  0.42236232  0.58282958  1
  N  N52  1  0.55993675  0.53903764  0.32841092  1
  N  N53  1  0.44489357  0.43900443  0.08395997  1
  N  N54  1  0.22882877  0.53445629  0.82454230  1
  N  N55  1  0.10905301  0.42244200  0.62830805  1
  N  N56  1  0.87670144  0.53668397  0.40559631  1
  N  N57  1  0.77768786  0.43223695  0.07085166  1
  N  N58  1  0.55488209  0.52935442  0.82688363  1
  N  N59  1  0.43851756  0.43353815  0.57380544  1
  N  N60  1  0.22213635  0.87084522  0.35803391  1
  N  N61  1  0.11161079  0.74716390  0.06558687  1
  N  N62  1  0.89952492  0.84533419  0.87101071  1
  N  N63  1  0.77468836  0.76127794  0.63324330  1
  N  N64  1  0.53065522  0.88582751  0.39785288  1
  N  N65  1  0.47316047  0.74273565  0.06500843  1
  N  N66  1  0.22275434  0.87075891  0.83308583  1
  N  N67  1  0.12041298  0.75251555  0.59350018  1
  N  N68  1  0.90876224  0.85584499  0.39968439  1
  N  N69  1  0.77994256  0.76147991  0.09879798  1
  N  N70  1  0.55532897  0.87548279  0.86769715  1
  N  N71  1  0.44433225  0.75321229  0.59297236  1
