# generated using pymatgen
data_Gd5Al31N36
_symmetry_space_group_name_H-M   'P 1'
_cell_length_a   9.67925068
_cell_length_b   9.63468876
_cell_length_c   10.66186129
_cell_angle_alpha   91.05159068
_cell_angle_beta   91.38630483
_cell_angle_gamma   60.15219609
_symmetry_Int_Tables_number   1
_chemical_formula_structural   Gd5Al31N36
_chemical_formula_sum   'Gd5 Al31 N36'
_cell_volume   862.12144936
_cell_formula_units_Z   1
loop_
 _symmetry_equiv_pos_site_id
 _symmetry_equiv_pos_as_xyz
  1  'x, y, z'
loop_
 _atom_site_type_symbol
 _atom_site_label
 _atom_site_symmetry_multiplicity
 _atom_site_fract_x
 _atom_site_fract_y
 _atom_site_fract_z
 _atom_site_occupancy
  Al  Al0  1  0.11542360  0.08439646  0.41037287  1
  Al  Al1  1  0.22679164  0.21548499  0.05260306  1
  Al  Al2  1  0.89361103  0.21048193  0.63735302  1
  Al  Al3  1  0.43426316  0.08898310  0.32509738  1
  Al  Al4  1  0.55208360  0.20449407  0.07646177  1
  Al  Al5  1  0.10559354  0.09599033  0.88243084  1
  Al  Al6  1  0.22990412  0.20165381  0.58235655  1
  Al  Al7  1  0.89621426  0.22056548  0.13306926  1
  Al  Al8  1  0.43282666  0.09909197  0.81862948  1
  Al  Al9  1  0.54156485  0.21563074  0.55906400  1
  Al  Al10  1  0.22006048  0.54977178  0.13141698  1
  Al  Al11  1  0.77547219  0.42505251  0.88577682  1
  Al  Al12  1  0.88579406  0.53949231  0.58376847  1
  Al  Al13  1  0.44483474  0.43507402  0.32951299  1
  Al  Al14  1  0.57224712  0.54071358  0.13483386  1
  Al  Al15  1  0.10620353  0.42266775  0.81683020  1
  Al  Al16  1  0.22965278  0.53563387  0.64981210  1
  Al  Al17  1  0.77258981  0.42398119  0.40214948  1
  Al  Al18  1  0.89846212  0.54491079  0.04696294  1
  Al  Al19  1  0.43225443  0.43695932  0.89046573  1
  Al  Al20  1  0.55328334  0.53184432  0.64840355  1
  Al  Al21  1  0.13174980  0.74687381  0.40887768  1
  Al  Al22  1  0.77719205  0.75566938  0.81633255  1
  Al  Al23  1  0.89155868  0.86342350  0.57239061  1
  Al  Al24  1  0.43955007  0.75531035  0.41315056  1
  Al  Al25  1  0.56447849  0.87736207  0.05101169  1
  Al  Al26  1  0.11753741  0.75291239  0.88467464  1
  Al  Al27  1  0.22467076  0.86769163  0.64782511  1
  Al  Al28  1  0.88648500  0.87407133  0.05226604  1
  Al  Al29  1  0.44690903  0.75492999  0.88419759  1
  Al  Al30  1  0.55462931  0.87777685  0.58240779  1
  Gd  Gd31  1  0.75218099  0.10057044  0.81449717  1
  Gd  Gd32  1  0.78334634  0.09241554  0.33709035  1
  Gd  Gd33  1  0.10905927  0.41249107  0.32457329  1
  Gd  Gd34  1  0.23021466  0.87748079  0.14790509  1
  Gd  Gd35  1  0.76342429  0.75529529  0.31057326  1
  N  N36  1  0.24185709  0.17654720  0.40467569  1
  N  N37  1  0.09755807  0.11912463  0.06221753  1
  N  N38  1  0.89847605  0.21944777  0.81693297  1
  N  N39  1  0.77481961  0.09632638  0.59448948  1
  N  N40  1  0.51956535  0.22261899  0.37634885  1
  N  N41  1  0.44180485  0.08943113  0.13511452  1
  N  N42  1  0.22206902  0.20631317  0.87098910  1
  N  N43  1  0.10943568  0.08840779  0.59122034  1
  N  N44  1  0.91865646  0.22476475  0.31975430  1
  N  N45  1  0.78112346  0.09562678  0.11086446  1
  N  N46  1  0.51452809  0.21838568  0.90195634  1
  N  N47  1  0.44925419  0.09771610  0.63952036  1
  N  N48  1  0.23073594  0.56249136  0.31221203  1
  N  N49  1  0.11305629  0.43041844  0.10621401  1
  N  N50  1  0.88873768  0.53831841  0.86727500  1
  N  N51  1  0.76674251  0.42361748  0.58478101  1
  N  N52  1  0.56450310  0.54346067  0.32430350  1
  N  N53  1  0.44844564  0.43438373  0.10262404  1
  N  N54  1  0.22169089  0.53909176  0.83156413  1
  N  N55  1  0.10818097  0.42229788  0.63362106  1
  N  N56  1  0.87811151  0.53537396  0.40914731  1
  N  N57  1  0.78087954  0.43033865  0.07062234  1
  N  N58  1  0.55553161  0.53262247  0.83295403  1
  N  N59  1  0.44117323  0.42814079  0.60353313  1
  N  N60  1  0.22345317  0.86916556  0.36219278  1
  N  N61  1  0.11013784  0.75261021  0.06414941  1
  N  N62  1  0.89510438  0.85241108  0.87181394  1
  N  N63  1  0.77602411  0.76208529  0.63561875  1
  N  N64  1  0.53231475  0.88685907  0.40186522  1
  N  N65  1  0.47289204  0.74620123  0.06522700  1
  N  N66  1  0.22325482  0.87053833  0.83194790  1
  N  N67  1  0.12174896  0.75023094  0.59252764  1
  N  N68  1  0.91250925  0.84454218  0.39524469  1
  N  N69  1  0.78176490  0.76288716  0.09715651  1
  N  N70  1  0.55520811  0.87890467  0.86912025  1
  N  N71  1  0.44606596  0.75323916  0.59562127  1
