# generated using pymatgen
data_Gd5Al31N36
_symmetry_space_group_name_H-M   'P 1'
_cell_length_a   9.64747348
_cell_length_b   9.63976096
_cell_length_c   10.59261927
_cell_angle_alpha   91.15872850
_cell_angle_beta   91.08887200
_cell_angle_gamma   60.48465585
_symmetry_Int_Tables_number   1
_chemical_formula_structural   Gd5Al31N36
_chemical_formula_sum   'Gd5 Al31 N36'
_cell_volume   857.04160989
_cell_formula_units_Z   1
loop_
 _symmetry_equiv_pos_site_id
 _symmetry_equiv_pos_as_xyz
  1  'x, y, z'
loop_
 _atom_site_type_symbol
 _atom_site_label
 _atom_site_symmetry_multiplicity
 _atom_site_fract_x
 _atom_site_fract_y
 _atom_site_fract_z
 _atom_site_occupancy
  Al  Al0  1  0.11210163  0.08424920  0.39630542  1
  Al  Al1  1  0.22389560  0.21645333  0.03580067  1
  Al  Al2  1  0.89038407  0.20982673  0.62408907  1
  Al  Al3  1  0.43338133  0.09143195  0.31473377  1
  Al  Al4  1  0.54215763  0.21443118  0.05773369  1
  Al  Al5  1  0.10710078  0.10038208  0.86142850  1
  Al  Al6  1  0.22943011  0.20502584  0.56866019  1
  Al  Al7  1  0.88701769  0.21805202  0.10017666  1
  Al  Al8  1  0.43555083  0.09951768  0.80419689  1
  Al  Al9  1  0.54646277  0.21157923  0.55367766  1
  Al  Al10  1  0.22235631  0.53955012  0.05214829  1
  Al  Al11  1  0.77239215  0.42863446  0.86536217  1
  Al  Al12  1  0.89033607  0.54029700  0.57178739  1
  Al  Al13  1  0.44058542  0.43413632  0.30957846  1
  Al  Al14  1  0.56778390  0.53921213  0.12576091  1
  Al  Al15  1  0.11249652  0.42959905  0.80384688  1
  Al  Al16  1  0.22745927  0.54158081  0.56262146  1
  Al  Al17  1  0.77360391  0.42270834  0.39102397  1
  Al  Al18  1  0.89398665  0.54174805  0.03328969  1
  Al  Al19  1  0.43313691  0.43019191  0.80861299  1
  Al  Al20  1  0.55635020  0.53887138  0.63315420  1
  Al  Al21  1  0.11877618  0.75119809  0.31845831  1
  Al  Al22  1  0.78097275  0.75385946  0.80528553  1
  Al  Al23  1  0.89769946  0.86557755  0.56025300  1
  Al  Al24  1  0.43576235  0.75609595  0.39429036  1
  Al  Al25  1  0.56494273  0.87698160  0.04089413  1
  Al  Al26  1  0.11615577  0.75117603  0.80760199  1
  Al  Al27  1  0.22698258  0.87244268  0.63438282  1
  Al  Al28  1  0.89746380  0.85876342  0.04868452  1
  Al  Al29  1  0.44979458  0.75485374  0.87203166  1
  Al  Al30  1  0.55531411  0.87814556  0.56706248  1
  Gd  Gd31  1  0.76391903  0.08849729  0.81512062  1
  Gd  Gd32  1  0.77704824  0.09192681  0.31345592  1
  Gd  Gd33  1  0.11697886  0.41614586  0.30627369  1
  Gd  Gd34  1  0.22926802  0.88453507  0.12248940  1
  Gd  Gd35  1  0.76692101  0.75280933  0.30235565  1
  N  N36  1  0.23646644  0.18101767  0.38916151  1
  N  N37  1  0.09192687  0.12430203  0.04144164  1
  N  N38  1  0.89680861  0.21999473  0.80420202  1
  N  N39  1  0.77439218  0.09509039  0.59025585  1
  N  N40  1  0.51974867  0.22456020  0.37286487  1
  N  N41  1  0.43853314  0.09175474  0.12006197  1
  N  N42  1  0.22363087  0.21034763  0.85302525  1
  N  N43  1  0.11005349  0.08976421  0.58018310  1
  N  N44  1  0.91051766  0.22022402  0.31630404  1
  N  N45  1  0.77684595  0.09370524  0.08413435  1
  N  N46  1  0.51396853  0.22832800  0.88114640  1
  N  N47  1  0.44842962  0.09570801  0.62508097  1
  N  N48  1  0.24241553  0.54995731  0.38479589  1
  N  N49  1  0.11008628  0.42921062  0.08779140  1
  N  N50  1  0.89084589  0.53726037  0.85134225  1
  N  N51  1  0.76884955  0.42524890  0.57464706  1
  N  N52  1  0.56492380  0.54446113  0.31508166  1
  N  N53  1  0.43927790  0.42970414  0.12394468  1
  N  N54  1  0.22386639  0.54235949  0.86909708  1
  N  N55  1  0.11470995  0.42889009  0.61981911  1
  N  N56  1  0.88606455  0.52961077  0.39525148  1
  N  N57  1  0.77267567  0.43012888  0.05195473  1
  N  N58  1  0.55630141  0.54088599  0.81371701  1
  N  N59  1  0.44156230  0.42196104  0.62527438  1
  N  N60  1  0.22349597  0.87212214  0.33728017  1
  N  N61  1  0.09882484  0.74398754  0.13113309  1
  N  N62  1  0.91190666  0.83692616  0.87147032  1
  N  N63  1  0.77686512  0.76438260  0.62247821  1
  N  N64  1  0.53126525  0.88805804  0.38657452  1
  N  N65  1  0.47508261  0.74208457  0.05231963  1
  N  N66  1  0.22841765  0.87449952  0.82191093  1
  N  N67  1  0.11161552  0.75680251  0.62704635  1
  N  N68  1  0.91759132  0.84746136  0.38530868  1
  N  N69  1  0.77909828  0.75816488  0.08791176  1
  N  N70  1  0.55895306  0.88168042  0.85820007  1
  N  N71  1  0.44313754  0.75436592  0.57722644  1
