# generated using pymatgen
data_Gd5Al31N36
_symmetry_space_group_name_H-M   'P 1'
_cell_length_a   9.70065401
_cell_length_b   9.68804215
_cell_length_c   10.46437448
_cell_angle_alpha   90.35953446
_cell_angle_beta   90.58113023
_cell_angle_gamma   59.96113086
_symmetry_Int_Tables_number   1
_chemical_formula_structural   Gd5Al31N36
_chemical_formula_sum   'Gd5 Al31 N36'
_cell_volume   851.31042231
_cell_formula_units_Z   1
loop_
 _symmetry_equiv_pos_site_id
 _symmetry_equiv_pos_as_xyz
  1  'x, y, z'
loop_
 _atom_site_type_symbol
 _atom_site_label
 _atom_site_symmetry_multiplicity
 _atom_site_fract_x
 _atom_site_fract_y
 _atom_site_fract_z
 _atom_site_occupancy
  Al  Al0  1  0.11510956  0.09632868  0.31711487  1
  Al  Al1  1  0.21993193  0.21109652  0.04955673  1
  Al  Al2  1  0.89240474  0.20769697  0.55745459  1
  Al  Al3  1  0.43359193  0.09054760  0.31376277  1
  Al  Al4  1  0.54335359  0.21272729  0.05689671  1
  Al  Al5  1  0.11266028  0.10426109  0.80909777  1
  Al  Al6  1  0.22421222  0.20149375  0.56644215  1
  Al  Al7  1  0.89027080  0.22094363  0.05698007  1
  Al  Al8  1  0.43724947  0.09853301  0.80632150  1
  Al  Al9  1  0.54428576  0.20993274  0.55473201  1
  Al  Al10  1  0.21970419  0.53648981  0.05147190  1
  Al  Al11  1  0.78708503  0.42794980  0.80593445  1
  Al  Al12  1  0.88913095  0.53483596  0.56884000  1
  Al  Al13  1  0.43900411  0.43446195  0.31239415  1
  Al  Al14  1  0.55990166  0.54210407  0.12919352  1
  Al  Al15  1  0.11286518  0.42843847  0.81014939  1
  Al  Al16  1  0.22606721  0.54108118  0.56485166  1
  Al  Al17  1  0.78465969  0.42387496  0.31430310  1
  Al  Al18  1  0.88762733  0.53881955  0.04173554  1
  Al  Al19  1  0.43475555  0.42902313  0.80947289  1
  Al  Al20  1  0.55479596  0.53765161  0.63030408  1
  Al  Al21  1  0.11813953  0.75500506  0.31529534  1
  Al  Al22  1  0.77964125  0.75713871  0.80494449  1
  Al  Al23  1  0.89530333  0.86670333  0.56128053  1
  Al  Al24  1  0.43153453  0.75878898  0.38915093  1
  Al  Al25  1  0.56297929  0.87716289  0.04230297  1
  Al  Al26  1  0.11362452  0.75101642  0.80830957  1
  Al  Al27  1  0.22698268  0.86892659  0.63298276  1
  Al  Al28  1  0.89121131  0.86017405  0.04764923  1
  Al  Al29  1  0.45659837  0.74926726  0.87092605  1
  Al  Al30  1  0.55280162  0.87763503  0.56690255  1
  Gd  Gd31  1  0.77288031  0.10065803  0.81497507  1
  Gd  Gd32  1  0.77660602  0.09579203  0.31004799  1
  Gd  Gd33  1  0.12054053  0.42240044  0.30688254  1
  Gd  Gd34  1  0.22029351  0.87401498  0.09215174  1
  Gd  Gd35  1  0.76792495  0.75653693  0.30529683  1
  N  N36  1  0.23237973  0.18067626  0.38704261  1
  N  N37  1  0.09651043  0.13461884  0.13005306  1
  N  N38  1  0.90670626  0.22277340  0.87653676  1
  N  N39  1  0.77395824  0.09722115  0.59020122  1
  N  N40  1  0.51824312  0.22223826  0.37222083  1
  N  N41  1  0.44256200  0.09151257  0.12060208  1
  N  N42  1  0.22417415  0.20486253  0.86483501  1
  N  N43  1  0.10887506  0.09708736  0.62522674  1
  N  N44  1  0.90414197  0.21560163  0.37759434  1
  N  N45  1  0.77943673  0.09521459  0.08253134  1
  N  N46  1  0.51895339  0.22355876  0.87757427  1
  N  N47  1  0.44407352  0.09587103  0.62441027  1
  N  N48  1  0.24036571  0.55381258  0.38624006  1
  N  N49  1  0.10921012  0.42919814  0.08684969  1
  N  N50  1  0.88883149  0.53981638  0.85795460  1
  N  N51  1  0.78324407  0.42163836  0.62247087  1
  N  N52  1  0.55643639  0.54503144  0.31947359  1
  N  N53  1  0.43762231  0.42954111  0.12237455  1
  N  N54  1  0.22356013  0.54068583  0.86759246  1
  N  N55  1  0.11443668  0.42738352  0.62063833  1
  N  N56  1  0.88249802  0.52299074  0.39117365  1
  N  N57  1  0.78508276  0.43100359  0.12351378  1
  N  N58  1  0.55837346  0.53553728  0.81738703  1
  N  N59  1  0.44254593  0.42160315  0.62394182  1
  N  N60  1  0.22402113  0.87174961  0.32229069  1
  N  N61  1  0.09216647  0.73917773  0.12976912  1
  N  N62  1  0.90609172  0.84357106  0.86734465  1
  N  N63  1  0.77676565  0.76158918  0.61881219  1
  N  N64  1  0.52946237  0.88693846  0.38522158  1
  N  N65  1  0.47843333  0.74007839  0.05291627  1
  N  N66  1  0.22778102  0.87054913  0.83218906  1
  N  N67  1  0.11099971  0.75813830  0.62681147  1
  N  N68  1  0.91632825  0.85117853  0.38448915  1
  N  N69  1  0.77610941  0.75978683  0.08891910  1
  N  N70  1  0.55807920  0.87931684  0.85658878  1
  N  N71  1  0.44090759  0.75445862  0.57667654  1
