# generated using pymatgen
data_Gd5Al31N36
_symmetry_space_group_name_H-M   'P 1'
_cell_length_a   9.67685254
_cell_length_b   9.66141146
_cell_length_c   10.63949984
_cell_angle_alpha   91.24582498
_cell_angle_beta   91.24771327
_cell_angle_gamma   60.02698015
_symmetry_Int_Tables_number   1
_chemical_formula_structural   Gd5Al31N36
_chemical_formula_sum   'Gd5 Al31 N36'
_cell_volume   861.40502123
_cell_formula_units_Z   1
loop_
 _symmetry_equiv_pos_site_id
 _symmetry_equiv_pos_as_xyz
  1  'x, y, z'
loop_
 _atom_site_type_symbol
 _atom_site_label
 _atom_site_symmetry_multiplicity
 _atom_site_fract_x
 _atom_site_fract_y
 _atom_site_fract_z
 _atom_site_occupancy
  Al  Al0  1  0.11205223  0.08436830  0.40877710  1
  Al  Al1  1  0.22754135  0.21759526  0.05222684  1
  Al  Al2  1  0.89202477  0.21140263  0.63901697  1
  Al  Al3  1  0.43388105  0.08827261  0.32560951  1
  Al  Al4  1  0.54958095  0.20711796  0.07235221  1
  Al  Al5  1  0.10796939  0.09774431  0.88195288  1
  Al  Al6  1  0.22836155  0.20048763  0.58040322  1
  Al  Al7  1  0.89608585  0.22321780  0.13126899  1
  Al  Al8  1  0.43533731  0.09683633  0.81762994  1
  Al  Al9  1  0.54611233  0.20603107  0.56360882  1
  Al  Al10  1  0.22899918  0.54652891  0.13711000  1
  Al  Al11  1  0.77488300  0.42766272  0.88535524  1
  Al  Al12  1  0.88581634  0.53916306  0.58215089  1
  Al  Al13  1  0.43704230  0.44108904  0.39006871  1
  Al  Al14  1  0.56717633  0.53839291  0.13841150  1
  Al  Al15  1  0.10882784  0.42255461  0.81482345  1
  Al  Al16  1  0.22785524  0.53808044  0.64492217  1
  Al  Al17  1  0.77150047  0.42373956  0.40076584  1
  Al  Al18  1  0.89968723  0.54486499  0.04774200  1
  Al  Al19  1  0.43278111  0.43792253  0.89786986  1
  Al  Al20  1  0.55329696  0.53447688  0.64570754  1
  Al  Al21  1  0.12759519  0.75090282  0.40680409  1
  Al  Al22  1  0.77822505  0.75461506  0.81554382  1
  Al  Al23  1  0.88900032  0.86692515  0.57381910  1
  Al  Al24  1  0.43777873  0.75574110  0.41060168  1
  Al  Al25  1  0.56492517  0.87652096  0.05137112  1
  Al  Al26  1  0.12174647  0.74833272  0.88484366  1
  Al  Al27  1  0.22297277  0.86892086  0.64776051  1
  Al  Al28  1  0.88965137  0.86939704  0.05242689  1
  Al  Al29  1  0.44798864  0.75307834  0.88404361  1
  Al  Al30  1  0.55368425  0.87664835  0.58091080  1
  Gd  Gd31  1  0.76241206  0.09793796  0.82581762  1
  Gd  Gd32  1  0.77668320  0.09578521  0.32861043  1
  Gd  Gd33  1  0.11068058  0.41112787  0.32425600  1
  Gd  Gd34  1  0.22917438  0.87984581  0.14537515  1
  Gd  Gd35  1  0.76471860  0.75541701  0.31159360  1
  N  N36  1  0.23941859  0.17482795  0.40269956  1
  N  N37  1  0.09831247  0.12190779  0.06170118  1
  N  N38  1  0.90161776  0.22277303  0.81765395  1
  N  N39  1  0.77271997  0.09749299  0.60406079  1
  N  N40  1  0.51967719  0.21696318  0.38305190  1
  N  N41  1  0.44280725  0.09100505  0.13425530  1
  N  N42  1  0.22402939  0.20721976  0.87017534  1
  N  N43  1  0.10753970  0.08838900  0.59041695  1
  N  N44  1  0.91566431  0.22415268  0.31842704  1
  N  N45  1  0.78132101  0.09642440  0.10400057  1
  N  N46  1  0.51677681  0.21669211  0.89603705  1
  N  N47  1  0.44672225  0.09664468  0.63867333  1
  N  N48  1  0.23575904  0.55805241  0.31908501  1
  N  N49  1  0.11520149  0.43207543  0.10721704  1
  N  N50  1  0.89053554  0.53823011  0.86726232  1
  N  N51  1  0.76700362  0.42319754  0.58401773  1
  N  N52  1  0.55975446  0.53870037  0.32947162  1
  N  N53  1  0.44609539  0.43921586  0.08254531  1
  N  N54  1  0.22768600  0.53641822  0.82498946  1
  N  N55  1  0.10914221  0.42222288  0.63054050  1
  N  N56  1  0.87760360  0.53445854  0.40729632  1
  N  N57  1  0.77856301  0.43305170  0.07143647  1
  N  N58  1  0.55509313  0.53089690  0.82806436  1
  N  N59  1  0.43783070  0.43613233  0.57692156  1
  N  N60  1  0.22171214  0.86967285  0.35939887  1
  N  N61  1  0.11321105  0.74869594  0.06603320  1
  N  N62  1  0.89980500  0.84600584  0.87198700  1
  N  N63  1  0.77535084  0.76179892  0.63421238  1
  N  N64  1  0.53111210  0.88539273  0.39999658  1
  N  N65  1  0.47422103  0.74474387  0.06616868  1
  N  N66  1  0.22331875  0.87079410  0.83263739  1
  N  N67  1  0.11967165  0.75272891  0.59129893  1
  N  N68  1  0.90813860  0.85185157  0.39564912  1
  N  N69  1  0.78194912  0.76303426  0.09829261  1
  N  N70  1  0.55599710  0.87707777  0.86899373  1
  N  N71  1  0.44411170  0.75442292  0.59416593  1
