# generated using pymatgen
data_Gd5Al31N36
_symmetry_space_group_name_H-M   'P 1'
_cell_length_a   9.71426273
_cell_length_b   9.69390748
_cell_length_c   10.29772028
_cell_angle_alpha   90.00077726
_cell_angle_beta   90.31594089
_cell_angle_gamma   59.86937836
_symmetry_Int_Tables_number   1
_chemical_formula_structural   Gd5Al31N36
_chemical_formula_sum   'Gd5 Al31 N36'
_cell_volume   838.68426542
_cell_formula_units_Z   1
loop_
 _symmetry_equiv_pos_site_id
 _symmetry_equiv_pos_as_xyz
  1  'x, y, z'
loop_
 _atom_site_type_symbol
 _atom_site_label
 _atom_site_symmetry_multiplicity
 _atom_site_fract_x
 _atom_site_fract_y
 _atom_site_fract_z
 _atom_site_occupancy
  Al  Al0  1  0.11445514  0.09676160  0.31460791  1
  Al  Al1  1  0.22201125  0.20927550  0.05260875  1
  Al  Al2  1  0.89145916  0.21042435  0.55731865  1
  Al  Al3  1  0.43213761  0.09280357  0.31582083  1
  Al  Al4  1  0.54566091  0.21004720  0.05948387  1
  Al  Al5  1  0.11319295  0.10220922  0.80865966  1
  Al  Al6  1  0.22470959  0.20163884  0.56614406  1
  Al  Al7  1  0.89162249  0.21827855  0.05929061  1
  Al  Al8  1  0.43779843  0.09741194  0.81034776  1
  Al  Al9  1  0.54397844  0.21073095  0.55788269  1
  Al  Al10  1  0.22203255  0.53493987  0.05276951  1
  Al  Al11  1  0.77927407  0.43126267  0.80969973  1
  Al  Al12  1  0.88618799  0.53664584  0.57214446  1
  Al  Al13  1  0.44172207  0.43600476  0.31369881  1
  Al  Al14  1  0.56389905  0.53511030  0.06422316  1
  Al  Al15  1  0.11419987  0.42698962  0.81091791  1
  Al  Al16  1  0.22854467  0.54079145  0.56637011  1
  Al  Al17  1  0.77595022  0.42846859  0.31389458  1
  Al  Al18  1  0.89009796  0.53621925  0.04358004  1
  Al  Al19  1  0.44014407  0.43200215  0.81249443  1
  Al  Al20  1  0.55760655  0.53512232  0.56204991  1
  Al  Al21  1  0.11957240  0.75622680  0.31572024  1
  Al  Al22  1  0.77895691  0.75635340  0.80982017  1
  Al  Al23  1  0.89417427  0.86559365  0.56256683  1
  Al  Al24  1  0.44234327  0.76014809  0.31726712  1
  Al  Al25  1  0.55914265  0.87068061  0.05113602  1
  Al  Al26  1  0.11524026  0.75216358  0.80701320  1
  Al  Al27  1  0.22257518  0.87191761  0.60114974  1
  Al  Al28  1  0.89253182  0.85878419  0.04864385  1
  Al  Al29  1  0.45124586  0.75553632  0.80914517  1
  Al  Al30  1  0.54940528  0.87553270  0.56826497  1
  Gd  Gd31  1  0.77492158  0.10046323  0.81585666  1
  Gd  Gd32  1  0.77633291  0.09649674  0.31480236  1
  Gd  Gd33  1  0.11634865  0.42782383  0.31266069  1
  Gd  Gd34  1  0.22183600  0.87187345  0.07302789  1
  Gd  Gd35  1  0.76540713  0.75995857  0.30639619  1
  N  N36  1  0.23000976  0.18288427  0.38495660  1
  N  N37  1  0.09920183  0.12861729  0.12858523  1
  N  N38  1  0.90689356  0.22319688  0.87663033  1
  N  N39  1  0.77471424  0.09718512  0.58837597  1
  N  N40  1  0.51643327  0.22294771  0.37349808  1
  N  N41  1  0.44409412  0.09092111  0.12212169  1
  N  N42  1  0.22427663  0.20353993  0.86578478  1
  N  N43  1  0.10822996  0.09787743  0.62290755  1
  N  N44  1  0.90348776  0.21856201  0.37514430  1
  N  N45  1  0.78100187  0.09278024  0.08436555  1
  N  N46  1  0.52047940  0.22262096  0.87756442  1
  N  N47  1  0.44416983  0.09541941  0.62580485  1
  N  N48  1  0.24126251  0.55382291  0.38562521  1
  N  N49  1  0.11116544  0.42760365  0.08977326  1
  N  N50  1  0.88971234  0.53724291  0.85745984  1
  N  N51  1  0.77521770  0.42523045  0.62532019  1
  N  N52  1  0.55890899  0.53502756  0.37303084  1
  N  N53  1  0.44355754  0.43111285  0.12238609  1
  N  N54  1  0.22516866  0.53961859  0.86617127  1
  N  N55  1  0.11477602  0.42762508  0.61895382  1
  N  N56  1  0.87542753  0.52651923  0.39172174  1
  N  N57  1  0.77974368  0.43117167  0.12276118  1
  N  N58  1  0.55855836  0.53619674  0.87357983  1
  N  N59  1  0.44844757  0.42670568  0.62583801  1
  N  N60  1  0.22044166  0.87434475  0.33872399  1
  N  N61  1  0.09594108  0.73950057  0.12866146  1
  N  N62  1  0.90648021  0.84281571  0.86568588  1
  N  N63  1  0.77461469  0.76312366  0.62048572  1
  N  N64  1  0.52407648  0.88588591  0.38670594  1
  N  N65  1  0.47998538  0.74602507  0.12918278  1
  N  N66  1  0.22338148  0.87229497  0.84199376  1
  N  N67  1  0.11187660  0.75920141  0.62373963  1
  N  N68  1  0.91687495  0.84910944  0.38370760  1
  N  N69  1  0.77798801  0.75711924  0.08673865  1
  N  N70  1  0.55294772  0.87403855  0.86384600  1
  N  N71  1  0.44883863  0.75490541  0.62255154  1
