# generated using pymatgen
data_Gd5Al31N36
_symmetry_space_group_name_H-M   'P 1'
_cell_length_a   9.69234493
_cell_length_b   9.66987959
_cell_length_c   10.29210241
_cell_angle_alpha   90.09799301
_cell_angle_beta   89.93217039
_cell_angle_gamma   59.98157990
_symmetry_Int_Tables_number   1
_chemical_formula_structural   Gd5Al31N36
_chemical_formula_sum   'Gd5 Al31 N36'
_cell_volume   835.22248510
_cell_formula_units_Z   1
loop_
 _symmetry_equiv_pos_site_id
 _symmetry_equiv_pos_as_xyz
  1  'x, y, z'
loop_
 _atom_site_type_symbol
 _atom_site_label
 _atom_site_symmetry_multiplicity
 _atom_site_fract_x
 _atom_site_fract_y
 _atom_site_fract_z
 _atom_site_occupancy
  Al  Al0  1  0.11596742  0.09248186  0.41130374  1
  Al  Al1  1  0.22139196  0.20436649  0.14249601  1
  Al  Al2  1  0.89235120  0.21164446  0.65313784  1
  Al  Al3  1  0.43170252  0.09002468  0.39535471  1
  Al  Al4  1  0.54102087  0.21187784  0.15327749  1
  Al  Al5  1  0.11225743  0.10130943  0.89510929  1
  Al  Al6  1  0.22354249  0.20493664  0.65904432  1
  Al  Al7  1  0.89037732  0.21559294  0.15485383  1
  Al  Al8  1  0.43760845  0.09688434  0.90032399  1
  Al  Al9  1  0.54497345  0.20965889  0.65164475  1
  Al  Al10  1  0.22561195  0.54118987  0.14268106  1
  Al  Al11  1  0.77834507  0.43159507  0.90103010  1
  Al  Al12  1  0.89018500  0.53658221  0.66618902  1
  Al  Al13  1  0.44158046  0.43752259  0.39779085  1
  Al  Al14  1  0.56263207  0.53381947  0.14793045  1
  Al  Al15  1  0.11453851  0.42703841  0.90128563  1
  Al  Al16  1  0.22443179  0.53733179  0.65923381  1
  Al  Al17  1  0.77877949  0.42769133  0.39960608  1
  Al  Al18  1  0.88751085  0.53540864  0.13849020  1
  Al  Al19  1  0.43962845  0.43226805  0.89892087  1
  Al  Al20  1  0.55853643  0.53589418  0.65006883  1
  Al  Al21  1  0.12257658  0.75822275  0.41132629  1
  Al  Al22  1  0.77843702  0.75756212  0.90194963  1
  Al  Al23  1  0.89290051  0.86450164  0.66253755  1
  Al  Al24  1  0.44298216  0.75904048  0.40974340  1
  Al  Al25  1  0.55488046  0.87113026  0.14161724  1
  Al  Al26  1  0.11475975  0.75422677  0.89624312  1
  Al  Al27  1  0.22380882  0.87185425  0.64889397  1
  Al  Al28  1  0.89462361  0.86273536  0.14868032  1
  Al  Al29  1  0.44950111  0.75634876  0.89531075  1
  Al  Al30  1  0.55511549  0.87269609  0.65996162  1
  Gd  Gd31  1  0.77421716  0.10129439  0.89943390  1
  Gd  Gd32  1  0.77198547  0.09948401  0.39375972  1
  Gd  Gd33  1  0.12423890  0.42295635  0.39237886  1
  Gd  Gd34  1  0.22394273  0.87265019  0.15788961  1
  Gd  Gd35  1  0.77062673  0.75945464  0.39974170  1
  N  N36  1  0.22869641  0.17458512  0.32627444  1
  N  N37  1  0.09511433  0.12042088  0.07800478  1
  N  N38  1  0.90281006  0.22461410  0.83308538  1
  N  N39  1  0.77735073  0.09419903  0.62315587  1
  N  N40  1  0.50899951  0.22605273  0.33677566  1
  N  N41  1  0.44347365  0.09355630  0.08602267  1
  N  N42  1  0.22411202  0.20546922  0.84389405  1
  N  N43  1  0.11235447  0.09769943  0.59784324  1
  N  N44  1  0.90763521  0.21576773  0.34085416  1
  N  N45  1  0.77355618  0.09795449  0.12784633  1
  N  N46  1  0.52097357  0.22221186  0.83405377  1
  N  N47  1  0.44297384  0.09095873  0.58773408  1
  N  N48  1  0.24047011  0.56247109  0.32611572  1
  N  N49  1  0.11598897  0.42702222  0.09440840  1
  N  N50  1  0.88978928  0.53807315  0.85327276  1
  N  N51  1  0.77910223  0.43077746  0.58941890  1
  N  N52  1  0.56035924  0.53663154  0.34153100  1
  N  N53  1  0.44771936  0.42782873  0.08647979  1
  N  N54  1  0.22511504  0.53774951  0.84378113  1
  N  N55  1  0.11097571  0.42779478  0.61502373  1
  N  N56  1  0.88006306  0.52340718  0.31968507  1
  N  N57  1  0.77593087  0.42513632  0.08631873  1
  N  N58  1  0.55863957  0.53388929  0.83721015  1
  N  N59  1  0.44293566  0.42984443  0.58792566  1
  N  N60  1  0.22389135  0.87286897  0.37921102  1
  N  N61  1  0.10085697  0.74965923  0.07696241  1
  N  N62  1  0.90218809  0.84610499  0.84332071  1
  N  N63  1  0.77787743  0.75785959  0.61873634  1
  N  N64  1  0.52386727  0.88075773  0.32662335  1
  N  N65  1  0.47203724  0.74300403  0.07837525  1
  N  N66  1  0.22304583  0.87259670  0.84254809  1
  N  N67  1  0.11157172  0.75680610  0.59917462  1
  N  N68  1  0.92501357  0.85009237  0.33008197  1
  N  N69  1  0.77626764  0.76263547  0.09310073  1
  N  N70  1  0.55434084  0.87506607  0.84541026  1
  N  N71  1  0.45088554  0.75799271  0.59816388  1
