# generated using pymatgen
data_Gd5Al31N36
_symmetry_space_group_name_H-M   'P 1'
_cell_length_a   9.66270772
_cell_length_b   9.65077345
_cell_length_c   10.56998768
_cell_angle_alpha   91.11192414
_cell_angle_beta   91.20477444
_cell_angle_gamma   60.27232981
_symmetry_Int_Tables_number   1
_chemical_formula_structural   Gd5Al31N36
_chemical_formula_sum   'Gd5 Al31 N36'
_cell_volume   855.72078591
_cell_formula_units_Z   1
loop_
 _symmetry_equiv_pos_site_id
 _symmetry_equiv_pos_as_xyz
  1  'x, y, z'
loop_
 _atom_site_type_symbol
 _atom_site_label
 _atom_site_symmetry_multiplicity
 _atom_site_fract_x
 _atom_site_fract_y
 _atom_site_fract_z
 _atom_site_occupancy
  Al  Al0  1  0.11190983  0.08722108  0.39086600  1
  Al  Al1  1  0.22517670  0.21481466  0.04088356  1
  Al  Al2  1  0.89002573  0.20936272  0.62553644  1
  Al  Al3  1  0.43282890  0.09159308  0.31614577  1
  Al  Al4  1  0.54442981  0.21289932  0.06305235  1
  Al  Al5  1  0.10677895  0.10193034  0.86754226  1
  Al  Al6  1  0.22698242  0.20477924  0.56829918  1
  Al  Al7  1  0.89199319  0.22073404  0.11993524  1
  Al  Al8  1  0.43588732  0.09956893  0.80725130  1
  Al  Al9  1  0.54414551  0.21081226  0.55855361  1
  Al  Al10  1  0.22230371  0.53819458  0.05429866  1
  Al  Al11  1  0.77471417  0.42717007  0.87165230  1
  Al  Al12  1  0.88988447  0.53797920  0.57196746  1
  Al  Al13  1  0.44167918  0.43563555  0.31259700  1
  Al  Al14  1  0.56800276  0.53899075  0.12677557  1
  Al  Al15  1  0.11210205  0.42853037  0.80714252  1
  Al  Al16  1  0.22730156  0.54168843  0.56713704  1
  Al  Al17  1  0.77492145  0.42351036  0.38716730  1
  Al  Al18  1  0.89439109  0.54167984  0.03782453  1
  Al  Al19  1  0.43421638  0.42943055  0.81239789  1
  Al  Al20  1  0.55716001  0.53626899  0.63407974  1
  Al  Al21  1  0.11870657  0.75330436  0.32178589  1
  Al  Al22  1  0.78098614  0.75373999  0.80834229  1
  Al  Al23  1  0.89595449  0.86430057  0.56540743  1
  Al  Al24  1  0.43449886  0.75724116  0.39536367  1
  Al  Al25  1  0.56433190  0.87635622  0.04288024  1
  Al  Al26  1  0.11530068  0.75182087  0.81097894  1
  Al  Al27  1  0.22393116  0.87390757  0.63508050  1
  Al  Al28  1  0.89541377  0.85985186  0.05433966  1
  Al  Al29  1  0.45085122  0.75422654  0.87180644  1
  Al  Al30  1  0.55347069  0.87736718  0.57032224  1
  Gd  Gd31  1  0.76739205  0.09176856  0.82366316  1
  Gd  Gd32  1  0.77604005  0.09308042  0.32275616  1
  Gd  Gd33  1  0.12116395  0.42155037  0.30856502  1
  Gd  Gd34  1  0.22830820  0.87954398  0.11939767  1
  Gd  Gd35  1  0.76604418  0.75400991  0.30563456  1
  N  N36  1  0.23472502  0.18430931  0.38810532  1
  N  N37  1  0.09198282  0.12458335  0.04759014  1
  N  N38  1  0.89999099  0.22209749  0.80432910  1
  N  N39  1  0.77287550  0.09429157  0.59523873  1
  N  N40  1  0.51763609  0.22569259  0.37643482  1
  N  N41  1  0.44022344  0.09064246  0.12325473  1
  N  N42  1  0.22456892  0.20954749  0.85778446  1
  N  N43  1  0.10674272  0.08976651  0.57493429  1
  N  N44  1  0.91089692  0.22287419  0.30628878  1
  N  N45  1  0.77797032  0.09336999  0.09382221  1
  N  N46  1  0.51561110  0.22695727  0.88515522  1
  N  N47  1  0.44520793  0.09549313  0.62739460  1
  N  N48  1  0.24570881  0.55361874  0.39016305  1
  N  N49  1  0.11121829  0.42817003  0.09079317  1
  N  N50  1  0.89104461  0.53727888  0.85573515  1
  N  N51  1  0.76796610  0.42247666  0.57031817  1
  N  N52  1  0.56493285  0.54613725  0.31539026  1
  N  N53  1  0.43905558  0.42984012  0.12670398  1
  N  N54  1  0.22403987  0.54205421  0.87146862  1
  N  N55  1  0.11376882  0.42799899  0.62203703  1
  N  N56  1  0.88892392  0.52767113  0.39472512  1
  N  N57  1  0.77495243  0.42871206  0.05758867  1
  N  N58  1  0.55920094  0.53849513  0.81560662  1
  N  N59  1  0.44122661  0.42082869  0.62942208  1
  N  N60  1  0.22314230  0.87425083  0.33492374  1
  N  N61  1  0.09745086  0.74083246  0.13518266  1
  N  N62  1  0.91086626  0.83793417  0.87551533  1
  N  N63  1  0.77606654  0.76163123  0.62458992  1
  N  N64  1  0.52990728  0.88866803  0.38960157  1
  N  N65  1  0.47558030  0.74110127  0.05232928  1
  N  N66  1  0.22700518  0.87606262  0.82426513  1
  N  N67  1  0.11022726  0.75696197  0.63070666  1
  N  N68  1  0.91784104  0.84664027  0.38970121  1
  N  N69  1  0.77807163  0.75824878  0.09143592  1
  N  N70  1  0.55891811  0.88104167  0.85970461  1
  N  N71  1  0.44121586  0.75356285  0.57911434  1
