# generated using pymatgen
data_Gd5Al31N36
_symmetry_space_group_name_H-M   'P 1'
_cell_length_a   9.67050560
_cell_length_b   9.65846880
_cell_length_c   10.60626085
_cell_angle_alpha   90.87208865
_cell_angle_beta   90.91954624
_cell_angle_gamma   60.37647068
_symmetry_Int_Tables_number   1
_chemical_formula_structural   Gd5Al31N36
_chemical_formula_sum   'Gd5 Al31 N36'
_cell_volume   861.02201460
_cell_formula_units_Z   1
loop_
 _symmetry_equiv_pos_site_id
 _symmetry_equiv_pos_as_xyz
  1  'x, y, z'
loop_
 _atom_site_type_symbol
 _atom_site_label
 _atom_site_symmetry_multiplicity
 _atom_site_fract_x
 _atom_site_fract_y
 _atom_site_fract_z
 _atom_site_occupancy
  Al  Al0  1  0.12099463  0.07824283  0.40337558  1
  Al  Al1  1  0.22659182  0.21540342  0.03751744  1
  Al  Al2  1  0.88864107  0.20412939  0.57277398  1
  Al  Al3  1  0.43377157  0.09210100  0.31345246  1
  Al  Al4  1  0.54447345  0.21382064  0.05547112  1
  Al  Al5  1  0.11518521  0.09567561  0.86122448  1
  Al  Al6  1  0.22990095  0.20610622  0.57061279  1
  Al  Al7  1  0.88268090  0.21335344  0.03448457  1
  Al  Al8  1  0.43715701  0.09910526  0.80374223  1
  Al  Al9  1  0.54608820  0.21099163  0.55127312  1
  Al  Al10  1  0.22262231  0.53902117  0.05210401  1
  Al  Al11  1  0.77073227  0.43551419  0.85471052  1
  Al  Al12  1  0.89059342  0.54191880  0.57530093  1
  Al  Al13  1  0.43903308  0.43338046  0.30890695  1
  Al  Al14  1  0.57114205  0.53744205  0.12670003  1
  Al  Al15  1  0.11411786  0.42928498  0.80439821  1
  Al  Al16  1  0.22709132  0.54186348  0.56234265  1
  Al  Al17  1  0.76504372  0.43315396  0.40069066  1
  Al  Al18  1  0.89341385  0.54051938  0.03294557  1
  Al  Al19  1  0.43309045  0.42934485  0.80842457  1
  Al  Al20  1  0.55312521  0.54120664  0.63519589  1
  Al  Al21  1  0.11567066  0.75157935  0.31734816  1
  Al  Al22  1  0.78087209  0.75613545  0.80495034  1
  Al  Al23  1  0.89649507  0.86557979  0.55747335  1
  Al  Al24  1  0.43372478  0.75664127  0.39500942  1
  Al  Al25  1  0.56575887  0.87691668  0.04040988  1
  Al  Al26  1  0.11551929  0.75041478  0.80739538  1
  Al  Al27  1  0.22843392  0.87100875  0.63795422  1
  Al  Al28  1  0.89688530  0.85929094  0.04647017  1
  Al  Al29  1  0.45049641  0.75385560  0.87449524  1
  Al  Al30  1  0.55454424  0.87844084  0.56644666  1
  Gd  Gd31  1  0.76452196  0.08906658  0.80614014  1
  Gd  Gd32  1  0.78089809  0.09781690  0.30531596  1
  Gd  Gd33  1  0.11293682  0.41844760  0.30584564  1
  Gd  Gd34  1  0.23034551  0.88100504  0.12233320  1
  Gd  Gd35  1  0.76402627  0.75554448  0.30082389  1
  N  N36  1  0.23599652  0.18260457  0.38903540  1
  N  N37  1  0.10076604  0.12016875  0.04722112  1
  N  N38  1  0.89413811  0.21592910  0.84508880  1
  N  N39  1  0.77266243  0.09360946  0.58894827  1
  N  N40  1  0.52339676  0.22182529  0.37062735  1
  N  N41  1  0.44192256  0.09168287  0.11972944  1
  N  N42  1  0.22543590  0.21008106  0.85349798  1
  N  N43  1  0.11685937  0.08721275  0.58979641  1
  N  N44  1  0.90265155  0.21567729  0.38580409  1
  N  N45  1  0.77882701  0.09380600  0.07942870  1
  N  N46  1  0.51604375  0.22689434  0.87923587  1
  N  N47  1  0.44895149  0.09591682  0.62432042  1
  N  N48  1  0.23991927  0.54935411  0.38386103  1
  N  N49  1  0.11089925  0.42883221  0.08721294  1
  N  N50  1  0.89207682  0.53866547  0.84934619  1
  N  N51  1  0.76791728  0.43115868  0.58852365  1
  N  N52  1  0.56250182  0.54391122  0.31813036  1
  N  N53  1  0.44074157  0.42942182  0.12352920  1
  N  N54  1  0.22418300  0.54162447  0.86884403  1
  N  N55  1  0.11545547  0.42949425  0.62031219  1
  N  N56  1  0.88238619  0.53292418  0.39749220  1
  N  N57  1  0.77383715  0.43298536  0.05495699  1
  N  N58  1  0.55282524  0.54217001  0.81466805  1
  N  N59  1  0.44185198  0.42168071  0.62419325  1
  N  N60  1  0.22124655  0.87173549  0.33770184  1
  N  N61  1  0.09746929  0.74315750  0.13070807  1
  N  N62  1  0.91124611  0.83844868  0.86970278  1
  N  N63  1  0.77617353  0.76630724  0.62203506  1
  N  N64  1  0.52855640  0.88834659  0.38598236  1
  N  N65  1  0.47729393  0.74170347  0.05398313  1
  N  N66  1  0.22984097  0.87081895  0.82430818  1
  N  N67  1  0.11095579  0.75762114  0.62622120  1
  N  N68  1  0.91280167  0.85233881  0.38198528  1
  N  N69  1  0.77988229  0.75803587  0.08642372  1
  N  N70  1  0.55861838  0.88098491  0.85769455  1
  N  N71  1  0.44217305  0.75504566  0.57744205  1
