# generated using pymatgen
data_Gd5Al31N36
_symmetry_space_group_name_H-M   'P 1'
_cell_length_a   9.71640615
_cell_length_b   9.69826650
_cell_length_c   10.29987824
_cell_angle_alpha   90.00302160
_cell_angle_beta   90.34228463
_cell_angle_gamma   59.85876066
_symmetry_Int_Tables_number   1
_chemical_formula_structural   Gd5Al31N36
_chemical_formula_sum   'Gd5 Al31 N36'
_cell_volume   839.32926710
_cell_formula_units_Z   1
loop_
 _symmetry_equiv_pos_site_id
 _symmetry_equiv_pos_as_xyz
  1  'x, y, z'
loop_
 _atom_site_type_symbol
 _atom_site_label
 _atom_site_symmetry_multiplicity
 _atom_site_fract_x
 _atom_site_fract_y
 _atom_site_fract_z
 _atom_site_occupancy
  Al  Al0  1  0.11429867  0.09690948  0.31407582  1
  Al  Al1  1  0.22210455  0.20947866  0.05270102  1
  Al  Al2  1  0.89169944  0.21020097  0.55718950  1
  Al  Al3  1  0.43194230  0.09281610  0.31584397  1
  Al  Al4  1  0.54582377  0.20994860  0.05950669  1
  Al  Al5  1  0.11264457  0.10366920  0.80916314  1
  Al  Al6  1  0.22470229  0.20156368  0.56595190  1
  Al  Al7  1  0.89143291  0.21864902  0.05940992  1
  Al  Al8  1  0.43795891  0.09753168  0.81017484  1
  Al  Al9  1  0.54407526  0.21064952  0.55770216  1
  Al  Al10  1  0.22214299  0.53470600  0.05283077  1
  Al  Al11  1  0.77962780  0.43103649  0.80946648  1
  Al  Al12  1  0.88630811  0.53657869  0.57188062  1
  Al  Al13  1  0.44167342  0.43614770  0.31366210  1
  Al  Al14  1  0.56383612  0.53505880  0.06386658  1
  Al  Al15  1  0.11427078  0.42692741  0.81083937  1
  Al  Al16  1  0.22857879  0.54088164  0.56617858  1
  Al  Al17  1  0.77564154  0.42871495  0.31390031  1
  Al  Al18  1  0.88998984  0.53632813  0.04367760  1
  Al  Al19  1  0.44031367  0.43162653  0.81230245  1
  Al  Al20  1  0.55763458  0.53509704  0.56229252  1
  Al  Al21  1  0.11946033  0.75633001  0.31519815  1
  Al  Al22  1  0.77927208  0.75620743  0.80951065  1
  Al  Al23  1  0.89440485  0.86551654  0.56234666  1
  Al  Al24  1  0.44141142  0.76058952  0.31733822  1
  Al  Al25  1  0.55919456  0.87071824  0.05079730  1
  Al  Al26  1  0.11466982  0.75117747  0.80754289  1
  Al  Al27  1  0.22274290  0.87184195  0.61092842  1
  Al  Al28  1  0.89244071  0.85860531  0.04881453  1
  Al  Al29  1  0.45300641  0.75454737  0.80997659  1
  Al  Al30  1  0.54930663  0.87549936  0.56853925  1
  Gd  Gd31  1  0.77510758  0.10033610  0.81588574  1
  Gd  Gd32  1  0.77645860  0.09642133  0.31475424  1
  Gd  Gd33  1  0.11620407  0.42805287  0.31255188  1
  Gd  Gd34  1  0.22119017  0.87234025  0.07378969  1
  Gd  Gd35  1  0.76475897  0.76027107  0.30649923  1
  N  N36  1  0.22973786  0.18304518  0.38482199  1
  N  N37  1  0.09889217  0.12953448  0.12805913  1
  N  N38  1  0.90675327  0.22331503  0.87678678  1
  N  N39  1  0.77490306  0.09704963  0.58836390  1
  N  N40  1  0.51643237  0.22293797  0.37335987  1
  N  N41  1  0.44427647  0.09084121  0.12206459  1
  N  N42  1  0.22459751  0.20367183  0.86591924  1
  N  N43  1  0.10811151  0.09837075  0.62348960  1
  N  N44  1  0.90336102  0.21871752  0.37506189  1
  N  N45  1  0.78121868  0.09269712  0.08435195  1
  N  N46  1  0.52076811  0.22242785  0.87752545  1
  N  N47  1  0.44417393  0.09551441  0.62572617  1
  N  N48  1  0.24117878  0.55404479  0.38551725  1
  N  N49  1  0.11115863  0.42765106  0.08973567  1
  N  N50  1  0.88977766  0.53721063  0.85745036  1
  N  N51  1  0.77553304  0.42502518  0.62517246  1
  N  N52  1  0.55859506  0.53540061  0.37321568  1
  N  N53  1  0.44371741  0.43096814  0.12230016  1
  N  N54  1  0.22549346  0.53908933  0.86627513  1
  N  N55  1  0.11486022  0.42758502  0.61887774  1
  N  N56  1  0.87529624  0.52669439  0.39149795  1
  N  N57  1  0.77946923  0.43138949  0.12277144  1
  N  N58  1  0.55906195  0.53544006  0.87329834  1
  N  N59  1  0.44850421  0.42654650  0.62575490  1
  N  N60  1  0.21979989  0.87474860  0.33331276  1
  N  N61  1  0.09580434  0.73900026  0.12809532  1
  N  N62  1  0.90629673  0.84280590  0.86590495  1
  N  N63  1  0.77484398  0.76303520  0.62031371  1
  N  N64  1  0.52346005  0.88596970  0.38701253  1
  N  N65  1  0.47980426  0.74607867  0.12780100  1
  N  N66  1  0.22351152  0.87219529  0.83929245  1
  N  N67  1  0.11170637  0.75881254  0.62430290  1
  N  N68  1  0.91684312  0.84893961  0.38352957  1
  N  N69  1  0.77787718  0.75712882  0.08688086  1
  N  N70  1  0.55344149  0.87414616  0.86353702  1
  N  N71  1  0.44951445  0.75448163  0.62339164  1
