# generated using pymatgen
data_Gd5Al31N36
_symmetry_space_group_name_H-M   'P 1'
_cell_length_a   9.74678599
_cell_length_b   9.70658281
_cell_length_c   10.34232275
_cell_angle_alpha   90.45743528
_cell_angle_beta   90.18839396
_cell_angle_gamma   59.80641219
_symmetry_Int_Tables_number   1
_chemical_formula_structural   Gd5Al31N36
_chemical_formula_sum   'Gd5 Al31 N36'
_cell_volume   845.69160855
_cell_formula_units_Z   1
loop_
 _symmetry_equiv_pos_site_id
 _symmetry_equiv_pos_as_xyz
  1  'x, y, z'
loop_
 _atom_site_type_symbol
 _atom_site_label
 _atom_site_symmetry_multiplicity
 _atom_site_fract_x
 _atom_site_fract_y
 _atom_site_fract_z
 _atom_site_occupancy
  Al  Al0  1  0.11333930  0.09466160  0.40897394  1
  Al  Al1  1  0.21934531  0.20704756  0.14296563  1
  Al  Al2  1  0.88883881  0.20668232  0.65621263  1
  Al  Al3  1  0.43121549  0.08751485  0.39182164  1
  Al  Al4  1  0.53836126  0.21373417  0.15030184  1
  Al  Al5  1  0.11138906  0.10076265  0.89461100  1
  Al  Al6  1  0.22570797  0.19473955  0.65261077  1
  Al  Al7  1  0.89044342  0.22062918  0.15136869  1
  Al  Al8  1  0.43604444  0.09658812  0.89765155  1
  Al  Al9  1  0.54418188  0.20761873  0.64887074  1
  Al  Al10  1  0.22511602  0.54458606  0.14290468  1
  Al  Al11  1  0.77616278  0.42949549  0.89924177  1
  Al  Al12  1  0.88769574  0.52893869  0.59505275  1
  Al  Al13  1  0.44488485  0.43922882  0.39411408  1
  Al  Al14  1  0.56495380  0.53555906  0.14496957  1
  Al  Al15  1  0.11046577  0.42823867  0.83390497  1
  Al  Al16  1  0.22882299  0.54079794  0.65312894  1
  Al  Al17  1  0.77520026  0.42266888  0.40587835  1
  Al  Al18  1  0.89734431  0.54483525  0.07907984  1
  Al  Al19  1  0.43859044  0.43127881  0.89824824  1
  Al  Al20  1  0.55478093  0.53359896  0.65220430  1
  Al  Al21  1  0.12654832  0.76219476  0.40908765  1
  Al  Al22  1  0.77971879  0.75081912  0.83107998  1
  Al  Al23  1  0.89629224  0.86648611  0.65280838  1
  Al  Al24  1  0.44311015  0.75829717  0.40791452  1
  Al  Al25  1  0.55547197  0.87078880  0.14079909  1
  Al  Al26  1  0.11460630  0.75354570  0.89395687  1
  Al  Al27  1  0.22264088  0.87144503  0.64720089  1
  Al  Al28  1  0.89643316  0.86548983  0.15027235  1
  Al  Al29  1  0.44826427  0.75710832  0.89373544  1
  Al  Al30  1  0.54613142  0.87402932  0.65056704  1
  Gd  Gd31  1  0.77294904  0.09528370  0.89986205  1
  Gd  Gd32  1  0.77003350  0.10650573  0.38864475  1
  Gd  Gd33  1  0.13964347  0.41931236  0.37635386  1
  Gd  Gd34  1  0.22420109  0.87457020  0.15783837  1
  Gd  Gd35  1  0.77269837  0.76525031  0.37395901  1
  N  N36  1  0.22968454  0.16951915  0.32609681  1
  N  N37  1  0.09596105  0.12187446  0.07596120  1
  N  N38  1  0.90037474  0.22060364  0.83527674  1
  N  N39  1  0.77501609  0.09162201  0.61803846  1
  N  N40  1  0.50394531  0.22787996  0.33361370  1
  N  N41  1  0.44227466  0.09381694  0.08277834  1
  N  N42  1  0.22476823  0.19978943  0.83694881  1
  N  N43  1  0.10730125  0.09703348  0.59568791  1
  N  N44  1  0.90702332  0.21965478  0.33518082  1
  N  N45  1  0.77160543  0.10130030  0.12587078  1
  N  N46  1  0.52015399  0.22089358  0.83098200  1
  N  N47  1  0.44114697  0.09006759  0.58273586  1
  N  N48  1  0.24789091  0.57059183  0.32420979  1
  N  N49  1  0.11345400  0.43174507  0.13402032  1
  N  N50  1  0.89330627  0.53898084  0.88561689  1
  N  N51  1  0.76850815  0.41829507  0.59551589  1
  N  N52  1  0.56498425  0.53583551  0.33811556  1
  N  N53  1  0.44727623  0.42951971  0.08417200  1
  N  N54  1  0.22753278  0.53921328  0.83692149  1
  N  N55  1  0.11213175  0.42558401  0.63403764  1
  N  N56  1  0.89047707  0.52007588  0.41321863  1
  N  N57  1  0.77745094  0.42960332  0.08630740  1
  N  N58  1  0.55644400  0.53413587  0.83752768  1
  N  N59  1  0.44241824  0.42754711  0.58398672  1
  N  N60  1  0.22561832  0.87590946  0.37822884  1
  N  N61  1  0.09956433  0.75204100  0.07358168  1
  N  N62  1  0.90599142  0.84406414  0.83295145  1
  N  N63  1  0.77514642  0.75589048  0.62897261  1
  N  N64  1  0.51907664  0.87988925  0.32667481  1
  N  N65  1  0.47128448  0.74540485  0.07556824  1
  N  N66  1  0.22212574  0.87227561  0.83984202  1
  N  N67  1  0.11315466  0.75640164  0.59431023  1
  N  N68  1  0.93137201  0.86083155  0.33129399  1
  N  N69  1  0.77860989  0.76145551  0.13158691  1
  N  N70  1  0.55056725  0.87529328  0.83652266  1
  N  N71  1  0.44833168  0.75451235  0.59579636  1
