# generated using pymatgen
data_Gd5Al31N36
_symmetry_space_group_name_H-M   'P 1'
_cell_length_a   9.68249805
_cell_length_b   9.63725880
_cell_length_c   10.69719162
_cell_angle_alpha   90.88775888
_cell_angle_beta   91.27889722
_cell_angle_gamma   60.18710579
_symmetry_Int_Tables_number   1
_chemical_formula_structural   Gd5Al31N36
_chemical_formula_sum   'Gd5 Al31 N36'
_cell_volume   865.85128431
_cell_formula_units_Z   1
loop_
 _symmetry_equiv_pos_site_id
 _symmetry_equiv_pos_as_xyz
  1  'x, y, z'
loop_
 _atom_site_type_symbol
 _atom_site_label
 _atom_site_symmetry_multiplicity
 _atom_site_fract_x
 _atom_site_fract_y
 _atom_site_fract_z
 _atom_site_occupancy
  Al  Al0  1  0.11204869  0.08801881  0.40815939  1
  Al  Al1  1  0.23028065  0.21097561  0.05300568  1
  Al  Al2  1  0.89234719  0.21094006  0.63822500  1
  Al  Al3  1  0.43355041  0.09325074  0.32878289  1
  Al  Al4  1  0.55078285  0.20924129  0.07140658  1
  Al  Al5  1  0.10801568  0.09583956  0.88315516  1
  Al  Al6  1  0.22746121  0.20326934  0.58014356  1
  Al  Al7  1  0.89761972  0.21890360  0.13173263  1
  Al  Al8  1  0.43440503  0.09844604  0.81876722  1
  Al  Al9  1  0.54260393  0.21423196  0.56563879  1
  Al  Al10  1  0.22953199  0.53719519  0.10711934  1
  Al  Al11  1  0.77575835  0.42620484  0.88588887  1
  Al  Al12  1  0.88483200  0.53972831  0.58137070  1
  Al  Al13  1  0.44385720  0.43403805  0.31623579  1
  Al  Al14  1  0.57385040  0.53883326  0.13758772  1
  Al  Al15  1  0.10509810  0.42165278  0.81800780  1
  Al  Al16  1  0.21740116  0.54088569  0.64618391  1
  Al  Al17  1  0.77239849  0.42480700  0.39958717  1
  Al  Al18  1  0.89832009  0.54376883  0.04720867  1
  Al  Al19  1  0.43902222  0.42538364  0.82413530  1
  Al  Al20  1  0.55737692  0.53657748  0.64717949  1
  Al  Al21  1  0.12784802  0.75252015  0.41437131  1
  Al  Al22  1  0.77661157  0.75489830  0.81562056  1
  Al  Al23  1  0.88614130  0.86893600  0.57571832  1
  Al  Al24  1  0.43696240  0.75655737  0.41095212  1
  Al  Al25  1  0.56598814  0.87593640  0.05335199  1
  Al  Al26  1  0.11941280  0.75204858  0.88185800  1
  Al  Al27  1  0.22296418  0.87110857  0.64851098  1
  Al  Al28  1  0.88951488  0.86823585  0.05193704  1
  Al  Al29  1  0.44805367  0.75425030  0.88618427  1
  Al  Al30  1  0.55166455  0.87880743  0.58107884  1
  Gd  Gd31  1  0.76079090  0.09800703  0.82390453  1
  Gd  Gd32  1  0.77747721  0.09448605  0.33088614  1
  Gd  Gd33  1  0.11084314  0.41795164  0.32057296  1
  Gd  Gd34  1  0.23051022  0.87360745  0.14883306  1
  Gd  Gd35  1  0.76286649  0.75756340  0.31394341  1
  N  N36  1  0.23796894  0.18140348  0.40294881  1
  N  N37  1  0.10004731  0.11595080  0.06293138  1
  N  N38  1  0.90197168  0.22165113  0.81708533  1
  N  N39  1  0.77233492  0.09783906  0.60395325  1
  N  N40  1  0.51894822  0.22673329  0.38630221  1
  N  N41  1  0.44520165  0.08976073  0.13538917  1
  N  N42  1  0.22445248  0.20511476  0.87224658  1
  N  N43  1  0.10722168  0.09032076  0.58938463  1
  N  N44  1  0.91424622  0.22461326  0.31805879  1
  N  N45  1  0.78303412  0.09284017  0.10453679  1
  N  N46  1  0.51382254  0.22531938  0.89728069  1
  N  N47  1  0.44566507  0.09712401  0.63985896  1
  N  N48  1  0.23286386  0.55860066  0.33870412  1
  N  N49  1  0.11603524  0.42750573  0.10138822  1
  N  N50  1  0.88858976  0.53888683  0.86858608  1
  N  N51  1  0.76623064  0.42301777  0.58177775  1
  N  N52  1  0.56427156  0.54715586  0.32581666  1
  N  N53  1  0.45442724  0.42393213  0.13128184  1
  N  N54  1  0.21779399  0.53949040  0.83158820  1
  N  N55  1  0.10499419  0.42249026  0.63462914  1
  N  N56  1  0.88012870  0.53461792  0.40768083  1
  N  N57  1  0.78109085  0.42876077  0.07014526  1
  N  N58  1  0.55972382  0.53697410  0.82912638  1
  N  N59  1  0.44451002  0.41966479  0.63901910  1
  N  N60  1  0.22015177  0.87256398  0.36178219  1
  N  N61  1  0.11397901  0.74766822  0.06182469  1
  N  N62  1  0.89728877  0.84757906  0.87240036  1
  N  N63  1  0.77315515  0.76181280  0.63528837  1
  N  N64  1  0.52947021  0.88929274  0.40190833  1
  N  N65  1  0.47363105  0.74400518  0.06608744  1
  N  N66  1  0.22461572  0.87116139  0.83192288  1
  N  N67  1  0.11661984  0.75635011  0.59761041  1
  N  N68  1  0.90799100  0.85168190  0.39957628  1
  N  N69  1  0.78359181  0.75994627  0.10059514  1
  N  N70  1  0.55647040  0.87945087  0.87182391  1
  N  N71  1  0.44278272  0.75369867  0.59281232  1
