# generated using pymatgen
data_Gd5Al31N36
_symmetry_space_group_name_H-M   'P 1'
_cell_length_a   9.69234086
_cell_length_b   9.66987680
_cell_length_c   10.29210730
_cell_angle_alpha   90.09792629
_cell_angle_beta   89.93212717
_cell_angle_gamma   59.98160027
_symmetry_Int_Tables_number   1
_chemical_formula_structural   Gd5Al31N36
_chemical_formula_sum   'Gd5 Al31 N36'
_cell_volume   835.22246374
_cell_formula_units_Z   1
loop_
 _symmetry_equiv_pos_site_id
 _symmetry_equiv_pos_as_xyz
  1  'x, y, z'
loop_
 _atom_site_type_symbol
 _atom_site_label
 _atom_site_symmetry_multiplicity
 _atom_site_fract_x
 _atom_site_fract_y
 _atom_site_fract_z
 _atom_site_occupancy
  Al  Al0  1  0.11599910  0.09245669  0.41869618  1
  Al  Al1  1  0.22142391  0.20434083  0.14988738  1
  Al  Al2  1  0.89238271  0.21161921  0.66053000  1
  Al  Al3  1  0.43173411  0.08999899  0.40274691  1
  Al  Al4  1  0.54105239  0.21185251  0.16066946  1
  Al  Al5  1  0.11228915  0.10128384  0.90250146  1
  Al  Al6  1  0.22357395  0.20491158  0.66643610  1
  Al  Al7  1  0.89040908  0.21556756  0.16224557  1
  Al  Al8  1  0.43763994  0.09685918  0.90771511  1
  Al  Al9  1  0.54500503  0.20963375  0.65903594  1
  Al  Al10  1  0.22564385  0.54116456  0.15007233  1
  Al  Al11  1  0.77837685  0.43156981  0.90842163  1
  Al  Al12  1  0.89021678  0.53655701  0.67358033  1
  Al  Al13  1  0.44161211  0.43749755  0.40518206  1
  Al  Al14  1  0.56266385  0.53379403  0.15532150  1
  Al  Al15  1  0.11457001  0.42701319  0.90867790  1
  Al  Al16  1  0.22446330  0.53730651  0.66662546  1
  Al  Al17  1  0.77881129  0.42766590  0.40699752  1
  Al  Al18  1  0.88754263  0.53538313  0.14588268  1
  Al  Al19  1  0.43965997  0.43224277  0.90631184  1
  Al  Al20  1  0.55856815  0.53586890  0.65746012  1
  Al  Al21  1  0.12260820  0.75819733  0.41871869  1
  Al  Al22  1  0.77846883  0.75753655  0.90934238  1
  Al  Al23  1  0.89293198  0.86447645  0.66993019  1
  Al  Al24  1  0.44301412  0.75901520  0.41713561  1
  Al  Al25  1  0.55491209  0.87110505  0.14900848  1
  Al  Al26  1  0.11479154  0.75420162  0.90363531  1
  Al  Al27  1  0.22384056  0.87182897  0.65628537  1
  Al  Al28  1  0.89465545  0.86271006  0.15607168  1
  Al  Al29  1  0.44953251  0.75632350  0.90270277  1
  Al  Al30  1  0.55514747  0.87267062  0.66735388  1
  Gd  Gd31  1  0.77424811  0.10126954  0.90682581  1
  Gd  Gd32  1  0.77201713  0.09945851  0.40115140  1
  Gd  Gd33  1  0.12427137  0.42293060  0.39977031  1
  Gd  Gd34  1  0.22397449  0.87262468  0.16528264  1
  Gd  Gd35  1  0.77065858  0.75942927  0.40713343  1
  N  N36  1  0.22872819  0.17455933  0.33366607  1
  N  N37  1  0.09514613  0.12039516  0.08539664  1
  N  N38  1  0.90284172  0.22458874  0.84047720  1
  N  N39  1  0.77738242  0.09417374  0.63054743  1
  N  N40  1  0.50903081  0.22602758  0.34416756  1
  N  N41  1  0.44350545  0.09353104  0.09341363  1
  N  N42  1  0.22414339  0.20544408  0.85128552  1
  N  N43  1  0.11238595  0.09767438  0.60523520  1
  N  N44  1  0.90766706  0.21574231  0.34824591  1
  N  N45  1  0.77358772  0.09792926  0.13523805  1
  N  N46  1  0.52100488  0.22218687  0.84144457  1
  N  N47  1  0.44300542  0.09093327  0.59512574  1
  N  N48  1  0.24050188  0.56244643  0.33350709  1
  N  N49  1  0.11602072  0.42699681  0.10180021  1
  N  N50  1  0.88982101  0.53804800  0.86066397  1
  N  N51  1  0.77913396  0.43075208  0.59681018  1
  N  N52  1  0.56039109  0.53660632  0.34892219  1
  N  N53  1  0.44775119  0.42780320  0.09387070  1
  N  N54  1  0.22514641  0.53772446  0.85117258  1
  N  N55  1  0.11100743  0.42776954  0.62241476  1
  N  N56  1  0.88009510  0.52338174  0.32707745  1
  N  N57  1  0.77596278  0.42511096  0.09371017  1
  N  N58  1  0.55867127  0.53386401  0.84460129  1
  N  N59  1  0.44296719  0.42981942  0.59531670  1
  N  N60  1  0.22392314  0.87284370  0.38660388  1
  N  N61  1  0.10088892  0.74963403  0.08435414  1
  N  N62  1  0.90221951  0.84608004  0.85071300  1
  N  N63  1  0.77790917  0.75783450  0.62612782  1
  N  N64  1  0.52389903  0.88073240  0.33401477  1
  N  N65  1  0.47206865  0.74297882  0.08576692  1
  N  N66  1  0.22307750  0.87257147  0.84993940  1
  N  N67  1  0.11160314  0.75678093  0.60656665  1
  N  N68  1  0.92504573  0.85006705  0.33747351  1
  N  N69  1  0.77629948  0.76260989  0.10049270  1
  N  N70  1  0.55437268  0.87504065  0.85280205  1
  N  N71  1  0.45091746  0.75796747  0.60555563  1
