# generated using pymatgen
data_Gd5Al31N36
_symmetry_space_group_name_H-M   'P 1'
_cell_length_a   9.70757138
_cell_length_b   9.70651823
_cell_length_c   10.54895772
_cell_angle_alpha   91.07102680
_cell_angle_beta   90.57558094
_cell_angle_gamma   59.95016383
_symmetry_Int_Tables_number   1
_chemical_formula_structural   Gd5Al31N36
_chemical_formula_sum   'Gd5 Al31 N36'
_cell_volume   860.24056585
_cell_formula_units_Z   1
loop_
 _symmetry_equiv_pos_site_id
 _symmetry_equiv_pos_as_xyz
  1  'x, y, z'
loop_
 _atom_site_type_symbol
 _atom_site_label
 _atom_site_symmetry_multiplicity
 _atom_site_fract_x
 _atom_site_fract_y
 _atom_site_fract_z
 _atom_site_occupancy
  Al  Al0  1  0.11531933  0.08521127  0.40680508  1
  Al  Al1  1  0.22536333  0.21640585  0.05172708  1
  Al  Al2  1  0.89098027  0.21009134  0.64170178  1
  Al  Al3  1  0.43203847  0.08668418  0.31737224  1
  Al  Al4  1  0.54499055  0.21291212  0.13370365  1
  Al  Al5  1  0.11047760  0.09954245  0.87962673  1
  Al  Al6  1  0.22894986  0.19873473  0.57959746  1
  Al  Al7  1  0.89559630  0.22259529  0.13521680  1
  Al  Al8  1  0.43610103  0.09172161  0.81507062  1
  Al  Al9  1  0.54681059  0.21264001  0.63970773  1
  Al  Al10  1  0.22802620  0.54522574  0.13520032  1
  Al  Al11  1  0.77432891  0.43211337  0.88237147  1
  Al  Al12  1  0.88539699  0.53851548  0.58198010  1
  Al  Al13  1  0.43830968  0.43599190  0.38394360  1
  Al  Al14  1  0.56606147  0.53639836  0.13548565  1
  Al  Al15  1  0.10929327  0.42311293  0.81419980  1
  Al  Al16  1  0.22777242  0.53677946  0.64227385  1
  Al  Al17  1  0.77174744  0.42736067  0.39765802  1
  Al  Al18  1  0.89874064  0.54230040  0.04886330  1
  Al  Al19  1  0.43441105  0.43359832  0.89212180  1
  Al  Al20  1  0.55334768  0.53295429  0.64164516  1
  Al  Al21  1  0.12764378  0.75395883  0.40713871  1
  Al  Al22  1  0.77714523  0.75674283  0.81521925  1
  Al  Al23  1  0.88930136  0.86781123  0.58245789  1
  Al  Al24  1  0.43865316  0.75535924  0.40613839  1
  Al  Al25  1  0.56325308  0.87288725  0.05000591  1
  Al  Al26  1  0.12008545  0.74810282  0.88299001  1
  Al  Al27  1  0.22336969  0.86871859  0.64643874  1
  Al  Al28  1  0.88989346  0.86330453  0.05804878  1
  Al  Al29  1  0.44727460  0.75182539  0.88156616  1
  Al  Al30  1  0.55360119  0.87504907  0.57766617  1
  Gd  Gd31  1  0.77477035  0.10561825  0.86750058  1
  Gd  Gd32  1  0.77543245  0.10710459  0.36133994  1
  Gd  Gd33  1  0.11282245  0.41287200  0.32668701  1
  Gd  Gd34  1  0.22633963  0.87950996  0.14176790  1
  Gd  Gd35  1  0.76878786  0.76043955  0.31378290  1
  N  N36  1  0.24201919  0.17558437  0.40104048  1
  N  N37  1  0.09579146  0.12188833  0.06055563  1
  N  N38  1  0.90639025  0.22829665  0.81669453  1
  N  N39  1  0.77303708  0.09721374  0.61111306  1
  N  N40  1  0.51454940  0.22810294  0.31569795  1
  N  N41  1  0.43732563  0.08445888  0.12412938  1
  N  N42  1  0.22610615  0.20849248  0.86984196  1
  N  N43  1  0.10701069  0.08760002  0.58938527  1
  N  N44  1  0.91859204  0.22545844  0.31851738  1
  N  N45  1  0.77991060  0.09416660  0.10699946  1
  N  N46  1  0.52066789  0.22605074  0.83213832  1
  N  N47  1  0.44258040  0.08903856  0.63484731  1
  N  N48  1  0.23464275  0.56173028  0.31909637  1
  N  N49  1  0.11422183  0.43101078  0.10778706  1
  N  N50  1  0.89054814  0.54033289  0.86668090  1
  N  N51  1  0.76759936  0.42100039  0.58194874  1
  N  N52  1  0.55998111  0.53743588  0.32710715  1
  N  N53  1  0.44654782  0.43121113  0.07605471  1
  N  N54  1  0.22647532  0.53744379  0.82403951  1
  N  N55  1  0.10939069  0.42172649  0.62798175  1
  N  N56  1  0.87632111  0.53752651  0.40547525  1
  N  N57  1  0.77774360  0.43027643  0.07008833  1
  N  N58  1  0.55489165  0.53181710  0.82530404  1
  N  N59  1  0.44153244  0.42549285  0.57195987  1
  N  N60  1  0.22287289  0.87098107  0.35736091  1
  N  N61  1  0.11195302  0.74632756  0.06583870  1
  N  N62  1  0.89819646  0.84650554  0.87205809  1
  N  N63  1  0.77468372  0.76074677  0.63295626  1
  N  N64  1  0.53068834  0.88615009  0.39525802  1
  N  N65  1  0.47272425  0.74106121  0.06434985  1
  N  N66  1  0.22240629  0.87181000  0.83260197  1
  N  N67  1  0.12134490  0.75172642  0.59274935  1
  N  N68  1  0.90904427  0.85652294  0.40015921  1
  N  N69  1  0.77922649  0.75984966  0.09896821  1
  N  N70  1  0.55552017  0.87518838  0.86782251  1
  N  N71  1  0.44455122  0.75168591  0.59079973  1
