# generated using pymatgen
data_Gd5Al31N36
_symmetry_space_group_name_H-M   'P 1'
_cell_length_a   9.70167679
_cell_length_b   9.67271379
_cell_length_c   10.29059550
_cell_angle_alpha   90.00531959
_cell_angle_beta   90.22135669
_cell_angle_gamma   59.95412873
_symmetry_Int_Tables_number   1
_chemical_formula_structural   Gd5Al31N36
_chemical_formula_sum   'Gd5 Al31 N36'
_cell_volume   835.91308903
_cell_formula_units_Z   1
loop_
 _symmetry_equiv_pos_site_id
 _symmetry_equiv_pos_as_xyz
  1  'x, y, z'
loop_
 _atom_site_type_symbol
 _atom_site_label
 _atom_site_symmetry_multiplicity
 _atom_site_fract_x
 _atom_site_fract_y
 _atom_site_fract_z
 _atom_site_occupancy
  Al  Al0  1  0.11418490  0.09724150  0.30519071  1
  Al  Al1  1  0.22135831  0.20807534  0.03944623  1
  Al  Al2  1  0.89127295  0.21044384  0.54548109  1
  Al  Al3  1  0.43299935  0.09267139  0.30282043  1
  Al  Al4  1  0.54450047  0.21071508  0.04668371  1
  Al  Al5  1  0.11527517  0.09640981  0.79197894  1
  Al  Al6  1  0.22463953  0.20140994  0.55446294  1
  Al  Al7  1  0.89270440  0.21646087  0.04630315  1
  Al  Al8  1  0.43673637  0.09745806  0.79797307  1
  Al  Al9  1  0.54335918  0.21121861  0.54571342  1
  Al  Al10  1  0.22129889  0.53625854  0.03970131  1
  Al  Al11  1  0.77876137  0.43141842  0.79768329  1
  Al  Al12  1  0.88614676  0.53683361  0.56016858  1
  Al  Al13  1  0.44187090  0.43576502  0.30101917  1
  Al  Al14  1  0.56371839  0.53558927  0.05181466  1
  Al  Al15  1  0.11380407  0.42723885  0.79856216  1
  Al  Al16  1  0.22817508  0.54119127  0.55471404  1
  Al  Al17  1  0.77687119  0.42784502  0.30117615  1
  Al  Al18  1  0.89021064  0.53596253  0.03021816  1
  Al  Al19  1  0.43897699  0.43344888  0.80028338  1
  Al  Al20  1  0.55765474  0.53502704  0.54998632  1
  Al  Al21  1  0.11903096  0.75573622  0.30600726  1
  Al  Al22  1  0.77858431  0.75683376  0.79810800  1
  Al  Al23  1  0.89392020  0.86610669  0.55085012  1
  Al  Al24  1  0.44614179  0.75810213  0.30797854  1
  Al  Al25  1  0.55852947  0.87060806  0.03845138  1
  Al  Al26  1  0.11737664  0.75623287  0.79016851  1
  Al  Al27  1  0.22223079  0.87195172  0.54767092  1
  Al  Al28  1  0.89316341  0.85974970  0.03515722  1
  Al  Al29  1  0.44492294  0.75905117  0.79150013  1
  Al  Al30  1  0.55003944  0.87557258  0.55585628  1
  Gd  Gd31  1  0.77345340  0.10145432  0.80309713  1
  Gd  Gd32  1  0.77497221  0.09745345  0.30204279  1
  Gd  Gd33  1  0.11746410  0.42662054  0.29998827  1
  Gd  Gd34  1  0.22408295  0.86999151  0.05776243  1
  Gd  Gd35  1  0.76743057  0.75898262  0.29245837  1
  N  N36  1  0.23145243  0.18210444  0.37286494  1
  N  N37  1  0.10044408  0.12465600  0.11952815  1
  N  N38  1  0.90835062  0.22182206  0.86333374  1
  N  N39  1  0.77356259  0.09794727  0.57586093  1
  N  N40  1  0.51592693  0.22348191  0.36102024  1
  N  N41  1  0.44323663  0.09102965  0.10933730  1
  N  N42  1  0.22268987  0.20256620  0.85231025  1
  N  N43  1  0.10969064  0.09398267  0.60617008  1
  N  N44  1  0.90325947  0.21836180  0.36296122  1
  N  N45  1  0.77988228  0.09329029  0.07154596  1
  N  N46  1  0.51850925  0.22386472  0.86529538  1
  N  N47  1  0.44408585  0.09553055  0.61343626  1
  N  N48  1  0.24171866  0.55306815  0.37340745  1
  N  N49  1  0.11107639  0.42729317  0.07664812  1
  N  N50  1  0.88953101  0.53736644  0.84476111  1
  N  N51  1  0.77487409  0.42545525  0.61323248  1
  N  N52  1  0.56020542  0.53339349  0.36073526  1
  N  N53  1  0.44266273  0.43200624  0.10981949  1
  N  N54  1  0.22343542  0.54263913  0.85283244  1
  N  N55  1  0.11454320  0.42769514  0.60662253  1
  N  N56  1  0.87630013  0.52608793  0.37930824  1
  N  N57  1  0.78035315  0.43040401  0.10969256  1
  N  N58  1  0.55689472  0.53866792  0.86072765  1
  N  N59  1  0.44804917  0.42694666  0.61359770  1
  N  N60  1  0.22211953  0.87299100  0.35054115  1
  N  N61  1  0.09628831  0.74143828  0.11960031  1
  N  N62  1  0.90803231  0.84325629  0.85192347  1
  N  N63  1  0.77455511  0.76321656  0.60857656  1
  N  N64  1  0.52673844  0.88599211  0.37377035  1
  N  N65  1  0.47954070  0.74628779  0.12139160  1
  N  N66  1  0.22331698  0.87253863  0.83794125  1
  N  N67  1  0.11346748  0.76177751  0.60701241  1
  N  N68  1  0.91583226  0.85068325  0.37146488  1
  N  N69  1  0.77805777  0.75754284  0.07240617  1
  N  N70  1  0.55123559  0.87375148  0.85084931  1
  N  N71  1  0.44505757  0.75697882  0.60492410  1
