# generated using pymatgen
data_Gd5Al31N36
_symmetry_space_group_name_H-M   'P 1'
_cell_length_a   9.70408083
_cell_length_b   9.70302411
_cell_length_c   10.55693282
_cell_angle_alpha   91.06586079
_cell_angle_beta   90.55087527
_cell_angle_gamma   59.95552267
_symmetry_Int_Tables_number   1
_chemical_formula_structural   Gd5Al31N36
_chemical_formula_sum   'Gd5 Al31 N36'
_cell_volume   860.31978368
_cell_formula_units_Z   1
loop_
 _symmetry_equiv_pos_site_id
 _symmetry_equiv_pos_as_xyz
  1  'x, y, z'
loop_
 _atom_site_type_symbol
 _atom_site_label
 _atom_site_symmetry_multiplicity
 _atom_site_fract_x
 _atom_site_fract_y
 _atom_site_fract_z
 _atom_site_occupancy
  Al  Al0  1  0.11520620  0.08513239  0.40670661  1
  Al  Al1  1  0.22544820  0.21632248  0.05198477  1
  Al  Al2  1  0.89101091  0.20978549  0.64194456  1
  Al  Al3  1  0.43200640  0.08650088  0.31747032  1
  Al  Al4  1  0.54543043  0.21267415  0.13548094  1
  Al  Al5  1  0.11072082  0.09956922  0.87976761  1
  Al  Al6  1  0.22903756  0.19854952  0.57919515  1
  Al  Al7  1  0.89531614  0.22222595  0.13570339  1
  Al  Al8  1  0.43607627  0.09169698  0.81420760  1
  Al  Al9  1  0.54661284  0.21297573  0.64130753  1
  Al  Al10  1  0.22831207  0.54480331  0.13483515  1
  Al  Al11  1  0.77442845  0.43221289  0.88226629  1
  Al  Al12  1  0.88548170  0.53839855  0.58192041  1
  Al  Al13  1  0.43811472  0.43606673  0.38450087  1
  Al  Al14  1  0.56606357  0.53598641  0.13516112  1
  Al  Al15  1  0.10932521  0.42315989  0.81410437  1
  Al  Al16  1  0.22786273  0.53673201  0.64223984  1
  Al  Al17  1  0.77177579  0.42745050  0.39755161  1
  Al  Al18  1  0.89873466  0.54211607  0.04887229  1
  Al  Al19  1  0.43450280  0.43353461  0.89112229  1
  Al  Al20  1  0.55336912  0.53294556  0.64147042  1
  Al  Al21  1  0.12766138  0.75394511  0.40704261  1
  Al  Al22  1  0.77717252  0.75703961  0.81521058  1
  Al  Al23  1  0.88942062  0.86773276  0.58277704  1
  Al  Al24  1  0.43874297  0.75511342  0.40594686  1
  Al  Al25  1  0.56322320  0.87288633  0.05010798  1
  Al  Al26  1  0.11990138  0.74846595  0.88302030  1
  Al  Al27  1  0.22344246  0.86871452  0.64630191  1
  Al  Al28  1  0.88984321  0.86328833  0.05834922  1
  Al  Al29  1  0.44725954  0.75200885  0.88157212  1
  Al  Al30  1  0.55369435  0.87480787  0.57726424  1
  Gd  Gd31  1  0.77405191  0.10680490  0.86945056  1
  Gd  Gd32  1  0.77448639  0.10838795  0.36542658  1
  Gd  Gd33  1  0.11281280  0.41301452  0.32660847  1
  Gd  Gd34  1  0.22624290  0.87945816  0.14191110  1
  Gd  Gd35  1  0.76902231  0.76060340  0.31359666  1
  N  N36  1  0.24179082  0.17564947  0.40076388  1
  N  N37  1  0.09563092  0.12183819  0.06057655  1
  N  N38  1  0.90654263  0.22806289  0.81672111  1
  N  N39  1  0.77312488  0.09717019  0.61078589  1
  N  N40  1  0.51442941  0.22810729  0.31621838  1
  N  N41  1  0.43750557  0.08447220  0.12427527  1
  N  N42  1  0.22656945  0.20868431  0.87024609  1
  N  N43  1  0.10694478  0.08753714  0.58919169  1
  N  N44  1  0.91835231  0.22521621  0.31860530  1
  N  N45  1  0.77947972  0.09423238  0.10690865  1
  N  N46  1  0.52074110  0.22726805  0.82732955  1
  N  N47  1  0.44239255  0.08841602  0.63430982  1
  N  N48  1  0.23488226  0.56169917  0.31877894  1
  N  N49  1  0.11408781  0.43096823  0.10793648  1
  N  N50  1  0.89062357  0.54048206  0.86674535  1
  N  N51  1  0.76772322  0.42073560  0.58184069  1
  N  N52  1  0.56002406  0.53710564  0.32689483  1
  N  N53  1  0.44703193  0.42990039  0.07513225  1
  N  N54  1  0.22619988  0.53778627  0.82397595  1
  N  N55  1  0.10950683  0.42154462  0.62801286  1
  N  N56  1  0.87628958  0.53770328  0.40552881  1
  N  N57  1  0.77780454  0.42990022  0.06992691  1
  N  N58  1  0.55501222  0.53209320  0.82509569  1
  N  N59  1  0.44161086  0.42545530  0.57197435  1
  N  N60  1  0.22300470  0.87087839  0.35730480  1
  N  N61  1  0.11203837  0.74613856  0.06573223  1
  N  N62  1  0.89780941  0.84740711  0.87217744  1
  N  N63  1  0.77474080  0.76064500  0.63304711  1
  N  N64  1  0.53085593  0.88587501  0.39496281  1
  N  N65  1  0.47263048  0.74087914  0.06421317  1
  N  N66  1  0.22252602  0.87192735  0.83243736  1
  N  N67  1  0.12140636  0.75163184  0.59262288  1
  N  N68  1  0.90897776  0.85683769  0.40024454  1
  N  N69  1  0.77922398  0.75963361  0.09896026  1
  N  N70  1  0.55556862  0.87560483  0.86806396  1
  N  N71  1  0.44462760  0.75150784  0.59048660  1
