# generated using pymatgen
data_Gd5Al31N36
_symmetry_space_group_name_H-M   'P 1'
_cell_length_a   9.76310088
_cell_length_b   9.69779167
_cell_length_c   10.31431387
_cell_angle_alpha   90.41265968
_cell_angle_beta   90.14587966
_cell_angle_gamma   59.74635435
_symmetry_Int_Tables_number   1
_chemical_formula_structural   Gd5Al31N36
_chemical_formula_sum   'Gd5 Al31 N36'
_cell_volume   843.53731486
_cell_formula_units_Z   1
loop_
 _symmetry_equiv_pos_site_id
 _symmetry_equiv_pos_as_xyz
  1  'x, y, z'
loop_
 _atom_site_type_symbol
 _atom_site_label
 _atom_site_symmetry_multiplicity
 _atom_site_fract_x
 _atom_site_fract_y
 _atom_site_fract_z
 _atom_site_occupancy
  Al  Al0  1  0.11368447  0.09594038  0.40836104  1
  Al  Al1  1  0.22132544  0.20455104  0.13890185  1
  Al  Al2  1  0.89010865  0.20684092  0.65499290  1
  Al  Al3  1  0.42846171  0.09000977  0.39115273  1
  Al  Al4  1  0.53965411  0.21237796  0.14971146  1
  Al  Al5  1  0.11212070  0.09956760  0.89318187  1
  Al  Al6  1  0.22197059  0.20332802  0.65541026  1
  Al  Al7  1  0.89119637  0.21951568  0.15079446  1
  Al  Al8  1  0.43847255  0.09415510  0.89670453  1
  Al  Al9  1  0.54427022  0.20732586  0.64777259  1
  Al  Al10  1  0.22664616  0.54383454  0.13827630  1
  Al  Al11  1  0.77634865  0.42903412  0.89768599  1
  Al  Al12  1  0.89064271  0.52755255  0.59390077  1
  Al  Al13  1  0.44250663  0.43892705  0.39338661  1
  Al  Al14  1  0.56435785  0.53469817  0.14465568  1
  Al  Al15  1  0.11889479  0.42463704  0.88932651  1
  Al  Al16  1  0.22522332  0.53583055  0.65581341  1
  Al  Al17  1  0.77348751  0.42504755  0.40369871  1
  Al  Al18  1  0.88757381  0.54971484  0.07880030  1
  Al  Al19  1  0.44079065  0.43017836  0.89674207  1
  Al  Al20  1  0.55485297  0.53294863  0.65042297  1
  Al  Al21  1  0.12646718  0.76126446  0.40878406  1
  Al  Al22  1  0.78115375  0.74931738  0.82785075  1
  Al  Al23  1  0.89809568  0.86637064  0.65206932  1
  Al  Al24  1  0.44254098  0.75833785  0.40748578  1
  Al  Al25  1  0.55562801  0.87007898  0.14191238  1
  Al  Al26  1  0.11495893  0.75371787  0.89272912  1
  Al  Al27  1  0.22331462  0.87106213  0.64584982  1
  Al  Al28  1  0.89647265  0.86518376  0.15146354  1
  Al  Al29  1  0.44935341  0.75614637  0.89288186  1
  Al  Al30  1  0.54470584  0.87498476  0.65005219  1
  Gd  Gd31  1  0.77399153  0.09443326  0.89917074  1
  Gd  Gd32  1  0.77014226  0.10870550  0.38816656  1
  Gd  Gd33  1  0.13714235  0.42151272  0.38402344  1
  Gd  Gd34  1  0.22478120  0.87311013  0.15703433  1
  Gd  Gd35  1  0.76768035  0.77341023  0.38101651  1
  N  N36  1  0.22664506  0.17463962  0.32213441  1
  N  N37  1  0.09620493  0.12023117  0.07516786  1
  N  N38  1  0.90109723  0.21985570  0.83461316  1
  N  N39  1  0.77581436  0.09172765  0.61738224  1
  N  N40  1  0.50450228  0.22705525  0.33306688  1
  N  N41  1  0.44422537  0.09207133  0.08222503  1
  N  N42  1  0.22473235  0.20207622  0.84014563  1
  N  N43  1  0.10884971  0.09806087  0.59600660  1
  N  N44  1  0.90755137  0.22099132  0.33467798  1
  N  N45  1  0.77215573  0.10105025  0.12588227  1
  N  N46  1  0.52162559  0.21942339  0.83055089  1
  N  N47  1  0.44017995  0.09081561  0.58276126  1
  N  N48  1  0.24477645  0.56899783  0.32006416  1
  N  N49  1  0.11920520  0.42754462  0.09667342  1
  N  N50  1  0.89055823  0.54005597  0.88588669  1
  N  N51  1  0.76952260  0.41892607  0.59358208  1
  N  N52  1  0.56224671  0.53568519  0.33760111  1
  N  N53  1  0.44871082  0.42836783  0.08310705  1
  N  N54  1  0.22738232  0.53667673  0.84008173  1
  N  N55  1  0.11578987  0.42394722  0.61432646  1
  N  N56  1  0.88541612  0.52581963  0.40660135  1
  N  N57  1  0.77667913  0.42894650  0.08643159  1
  N  N58  1  0.55724188  0.53312144  0.83632024  1
  N  N59  1  0.44140438  0.42780070  0.58406307  1
  N  N60  1  0.22502302  0.87595912  0.37811117  1
  N  N61  1  0.09857541  0.75283770  0.07294541  1
  N  N62  1  0.90661648  0.84335278  0.83229585  1
  N  N63  1  0.77555709  0.75590148  0.62818988  1
  N  N64  1  0.51617768  0.88163447  0.32663935  1
  N  N65  1  0.47225967  0.74451286  0.07514703  1
  N  N66  1  0.22331530  0.87126954  0.83918580  1
  N  N67  1  0.11488049  0.75415487  0.59481093  1
  N  N68  1  0.93102438  0.86176190  0.33236932  1
  N  N69  1  0.77809754  0.76242009  0.13475802  1
  N  N70  1  0.55158766  0.87400303  0.83571274  1
  N  N71  1  0.44882208  0.75422514  0.59509385  1
