# generated using pymatgen
data_Gd5Al31N36
_symmetry_space_group_name_H-M   'P 1'
_cell_length_a   9.66623825
_cell_length_b   9.66513029
_cell_length_c   10.64484950
_cell_angle_alpha   90.98170078
_cell_angle_beta   90.34584660
_cell_angle_gamma   60.03199314
_symmetry_Int_Tables_number   1
_chemical_formula_structural   Gd5Al31N36
_chemical_formula_sum   'Gd5 Al31 N36'
_cell_volume   861.40956981
_cell_formula_units_Z   1
loop_
 _symmetry_equiv_pos_site_id
 _symmetry_equiv_pos_as_xyz
  1  'x, y, z'
loop_
 _atom_site_type_symbol
 _atom_site_label
 _atom_site_symmetry_multiplicity
 _atom_site_fract_x
 _atom_site_fract_y
 _atom_site_fract_z
 _atom_site_occupancy
  Al  Al0  1  0.11433983  0.08440105  0.40617364  1
  Al  Al1  1  0.22646719  0.21452091  0.05267521  1
  Al  Al2  1  0.89222982  0.20883243  0.64450444  1
  Al  Al3  1  0.43215442  0.08515932  0.31794021  1
  Al  Al4  1  0.54840729  0.21006454  0.14075085  1
  Al  Al5  1  0.11130733  0.09893570  0.88114217  1
  Al  Al6  1  0.22900478  0.19747515  0.57730696  1
  Al  Al7  1  0.89401538  0.21881426  0.13770789  1
  Al  Al8  1  0.43557408  0.09187834  0.81172616  1
  Al  Al9  1  0.54576946  0.21316827  0.64230410  1
  Al  Al10  1  0.22888135  0.54297616  0.13256817  1
  Al  Al11  1  0.77495394  0.43292534  0.88221348  1
  Al  Al12  1  0.88663501  0.53772403  0.58103264  1
  Al  Al13  1  0.43563317  0.43794526  0.38421427  1
  Al  Al14  1  0.56619433  0.53383825  0.13313118  1
  Al  Al15  1  0.10938683  0.42282919  0.81394449  1
  Al  Al16  1  0.22816112  0.53597601  0.64204957  1
  Al  Al17  1  0.77238913  0.42941889  0.39604933  1
  Al  Al18  1  0.89875209  0.54085149  0.04884912  1
  Al  Al19  1  0.43312020  0.43465028  0.88867161  1
  Al  Al20  1  0.55430910  0.53234937  0.64033280  1
  Al  Al21  1  0.12663681  0.75523977  0.40679116  1
  Al  Al22  1  0.77733148  0.75884825  0.81569263  1
  Al  Al23  1  0.89060921  0.86690710  0.58517149  1
  Al  Al24  1  0.44026830  0.75388039  0.40472731  1
  Al  Al25  1  0.56312592  0.87246502  0.05043810  1
  Al  Al26  1  0.11877990  0.75100105  0.88235874  1
  Al  Al27  1  0.22451196  0.86796156  0.64529908  1
  Al  Al28  1  0.88944736  0.86372147  0.05775169  1
  Al  Al29  1  0.44734430  0.75283572  0.88128667  1
  Al  Al30  1  0.55548877  0.87285766  0.57534477  1
  Gd  Gd31  1  0.76854488  0.11379739  0.87638834  1
  Gd  Gd32  1  0.76801936  0.11879562  0.38555465  1
  Gd  Gd33  1  0.11255345  0.41174331  0.32413638  1
  Gd  Gd34  1  0.22628166  0.87763577  0.14311338  1
  Gd  Gd35  1  0.77214750  0.76418212  0.31213274  1
  N  N36  1  0.24134901  0.17542591  0.40073191  1
  N  N37  1  0.09534547  0.11962066  0.06066246  1
  N  N38  1  0.90736489  0.22784559  0.81692899  1
  N  N39  1  0.77321455  0.09692361  0.61329909  1
  N  N40  1  0.51397470  0.22818330  0.31819848  1
  N  N41  1  0.43789580  0.08313113  0.12685913  1
  N  N42  1  0.22763448  0.20889647  0.87235358  1
  N  N43  1  0.10635384  0.08634750  0.58752771  1
  N  N44  1  0.91728314  0.22500959  0.31856329  1
  N  N45  1  0.77879006  0.09333507  0.10609507  1
  N  N46  1  0.51843653  0.23080203  0.81986343  1
  N  N47  1  0.44209757  0.08621668  0.63303940  1
  N  N48  1  0.23304038  0.56324354  0.31625053  1
  N  N49  1  0.11372381  0.42960867  0.10813718  1
  N  N50  1  0.89107178  0.54183142  0.86806267  1
  N  N51  1  0.76902626  0.41846870  0.57966809  1
  N  N52  1  0.56040045  0.53615001  0.32515810  1
  N  N53  1  0.44852861  0.42543695  0.07254457  1
  N  N54  1  0.22455998  0.54006613  0.82252235  1
  N  N55  1  0.10995159  0.41983342  0.62912459  1
  N  N56  1  0.87656986  0.54104615  0.40590343  1
  N  N57  1  0.77835363  0.42679307  0.06865858  1
  N  N58  1  0.55579584  0.53275811  0.82326665  1
  N  N59  1  0.44203237  0.42490950  0.57020478  1
  N  N60  1  0.22461572  0.87008659  0.35681430  1
  N  N61  1  0.11256047  0.74478742  0.06349991  1
  N  N62  1  0.89548100  0.85296895  0.87251928  1
  N  N63  1  0.77564995  0.75953125  0.63462990  1
  N  N64  1  0.53388228  0.88421931  0.39437022  1
  N  N65  1  0.47203413  0.73938818  0.06228302  1
  N  N66  1  0.22352108  0.87232083  0.83019531  1
  N  N67  1  0.12246037  0.75028320  0.59127081  1
  N  N68  1  0.90680498  0.86389615  0.40323426  1
  N  N69  1  0.77945028  0.75852776  0.09895620  1
  N  N70  1  0.55573876  0.87753389  0.86956316  1
  N  N71  1  0.44575512  0.75007251  0.58799196  1
