# generated using pymatgen
data_Gd5Al31N36
_symmetry_space_group_name_H-M   'P 1'
_cell_length_a   9.68042136
_cell_length_b   9.63272238
_cell_length_c   10.66983147
_cell_angle_alpha   91.05317404
_cell_angle_beta   91.38759420
_cell_angle_gamma   60.15308309
_symmetry_Int_Tables_number   1
_chemical_formula_structural   Gd5Al31N36
_chemical_formula_sum   'Gd5 Al31 N36'
_cell_volume   862.70123530
_cell_formula_units_Z   1
loop_
 _symmetry_equiv_pos_site_id
 _symmetry_equiv_pos_as_xyz
  1  'x, y, z'
loop_
 _atom_site_type_symbol
 _atom_site_label
 _atom_site_symmetry_multiplicity
 _atom_site_fract_x
 _atom_site_fract_y
 _atom_site_fract_z
 _atom_site_occupancy
  Al  Al0  1  0.11532191  0.08444473  0.41036066  1
  Al  Al1  1  0.22687683  0.21542692  0.05274734  1
  Al  Al2  1  0.89362371  0.21035751  0.63728662  1
  Al  Al3  1  0.43443170  0.08954466  0.32557258  1
  Al  Al4  1  0.55185707  0.20558533  0.07645371  1
  Al  Al5  1  0.10562243  0.09592902  0.88253912  1
  Al  Al6  1  0.23000379  0.20144727  0.58226452  1
  Al  Al7  1  0.89625703  0.22034767  0.13314625  1
  Al  Al8  1  0.43271589  0.09909342  0.81865034  1
  Al  Al9  1  0.54126168  0.21625549  0.55934763  1
  Al  Al10  1  0.21948221  0.54983134  0.13154268  1
  Al  Al11  1  0.77581717  0.42484959  0.88608155  1
  Al  Al12  1  0.88569046  0.53950994  0.58362912  1
  Al  Al13  1  0.44579977  0.43361889  0.31801069  1
  Al  Al14  1  0.57302587  0.54080721  0.13522634  1
  Al  Al15  1  0.10557696  0.42254469  0.81681431  1
  Al  Al16  1  0.22807388  0.53613524  0.64957704  1
  Al  Al17  1  0.77228653  0.42429944  0.40207795  1
  Al  Al18  1  0.89850661  0.54490929  0.04702645  1
  Al  Al19  1  0.43303356  0.43509160  0.87646462  1
  Al  Al20  1  0.55394545  0.53217779  0.64835839  1
  Al  Al21  1  0.13166071  0.74687477  0.40868844  1
  Al  Al22  1  0.77718296  0.75567594  0.81636322  1
  Al  Al23  1  0.89142589  0.86354533  0.57214472  1
  Al  Al24  1  0.43974645  0.75500500  0.41292933  1
  Al  Al25  1  0.56451999  0.87745318  0.05129986  1
  Al  Al26  1  0.11737564  0.75328519  0.88507855  1
  Al  Al27  1  0.22470441  0.86763902  0.64769718  1
  Al  Al28  1  0.88648690  0.87407925  0.05245295  1
  Al  Al29  1  0.44673152  0.75540512  0.88461234  1
  Al  Al30  1  0.55460693  0.87781176  0.58225018  1
  Gd  Gd31  1  0.75250678  0.10012367  0.81431641  1
  Gd  Gd32  1  0.78274070  0.09281826  0.33717671  1
  Gd  Gd33  1  0.10918255  0.41256675  0.32466139  1
  Gd  Gd34  1  0.23029920  0.87744431  0.14822719  1
  Gd  Gd35  1  0.76336590  0.75523477  0.31066081  1
  N  N36  1  0.24184921  0.17651508  0.40481253  1
  N  N37  1  0.09761564  0.11899293  0.06217294  1
  N  N38  1  0.89847252  0.21933488  0.81690172  1
  N  N39  1  0.77498783  0.09617992  0.59461825  1
  N  N40  1  0.51878708  0.22440096  0.37729094  1
  N  N41  1  0.44198114  0.08954292  0.13509472  1
  N  N42  1  0.22210894  0.20634042  0.87114115  1
  N  N43  1  0.10941697  0.08836310  0.59122919  1
  N  N44  1  0.91849236  0.22479571  0.31974366  1
  N  N45  1  0.78120976  0.09544526  0.11071711  1
  N  N46  1  0.51414774  0.21969068  0.90217997  1
  N  N47  1  0.44922285  0.09749047  0.63974235  1
  N  N48  1  0.23005259  0.56273674  0.31284623  1
  N  N49  1  0.11296021  0.43035137  0.10614923  1
  N  N50  1  0.88858207  0.53836098  0.86739199  1
  N  N51  1  0.76678903  0.42352466  0.58472264  1
  N  N52  1  0.56474296  0.54447300  0.32474801  1
  N  N53  1  0.45039087  0.43144184  0.11344732  1
  N  N54  1  0.21943808  0.54020904  0.83150434  1
  N  N55  1  0.10790289  0.42212403  0.63369999  1
  N  N56  1  0.87830406  0.53534305  0.40930441  1
  N  N57  1  0.78108273  0.43013756  0.07050951  1
  N  N58  1  0.55627177  0.53368481  0.83305279  1
  N  N59  1  0.44243771  0.42546020  0.61278885  1
  N  N60  1  0.22344671  0.86926614  0.36226375  1
  N  N61  1  0.11039974  0.75250021  0.06413253  1
  N  N62  1  0.89506392  0.85239519  0.87207026  1
  N  N63  1  0.77601611  0.76208110  0.63576433  1
  N  N64  1  0.53235101  0.88710137  0.40199310  1
  N  N65  1  0.47284816  0.74607085  0.06521248  1
  N  N66  1  0.22332617  0.87043135  0.83186504  1
  N  N67  1  0.12179049  0.75017436  0.59229230  1
  N  N68  1  0.91219640  0.84490284  0.39527772  1
  N  N69  1  0.78181959  0.76278313  0.09725655  1
  N  N70  1  0.55525309  0.87920785  0.86944786  1
  N  N71  1  0.44602689  0.75306621  0.59544269  1
