# generated using pymatgen
data_Gd5Al31N36
_symmetry_space_group_name_H-M   'P 1'
_cell_length_a   9.68110438
_cell_length_b   9.63079951
_cell_length_c   10.67949333
_cell_angle_alpha   91.06145244
_cell_angle_beta   91.38480155
_cell_angle_gamma   60.15401073
_symmetry_Int_Tables_number   1
_chemical_formula_structural   Gd5Al31N36
_chemical_formula_sum   'Gd5 Al31 N36'
_cell_volume   863.37877748
_cell_formula_units_Z   1
loop_
 _symmetry_equiv_pos_site_id
 _symmetry_equiv_pos_as_xyz
  1  'x, y, z'
loop_
 _atom_site_type_symbol
 _atom_site_label
 _atom_site_symmetry_multiplicity
 _atom_site_fract_x
 _atom_site_fract_y
 _atom_site_fract_z
 _atom_site_occupancy
  Al  Al0  1  0.11512450  0.08451822  0.41029156  1
  Al  Al1  1  0.22699631  0.21545092  0.05285291  1
  Al  Al2  1  0.89365062  0.21020137  0.63736590  1
  Al  Al3  1  0.43450237  0.09018731  0.32606793  1
  Al  Al4  1  0.55119318  0.20757041  0.07574887  1
  Al  Al5  1  0.10570377  0.09587315  0.88266055  1
  Al  Al6  1  0.23000542  0.20117934  0.58212176  1
  Al  Al7  1  0.89623956  0.22020397  0.13307887  1
  Al  Al8  1  0.43275039  0.09900434  0.81883447  1
  Al  Al9  1  0.54136140  0.21603267  0.56033645  1
  Al  Al10  1  0.22021214  0.54920639  0.13163036  1
  Al  Al11  1  0.77593306  0.42480543  0.88638691  1
  Al  Al12  1  0.88557577  0.53951963  0.58341989  1
  Al  Al13  1  0.44617161  0.43303845  0.31343615  1
  Al  Al14  1  0.57307787  0.54040609  0.13545534  1
  Al  Al15  1  0.10509464  0.42249481  0.81690466  1
  Al  Al16  1  0.22534066  0.53723931  0.64921758  1
  Al  Al17  1  0.77216014  0.42454069  0.40190622  1
  Al  Al18  1  0.89857994  0.54489299  0.04710262  1
  Al  Al19  1  0.43436416  0.43214642  0.85828751  1
  Al  Al20  1  0.55513221  0.53307712  0.64847174  1
  Al  Al21  1  0.13123596  0.74729675  0.40829608  1
  Al  Al22  1  0.77720734  0.75559075  0.81649703  1
  Al  Al23  1  0.89113993  0.86380458  0.57186596  1
  Al  Al24  1  0.43982038  0.75507768  0.41259963  1
  Al  Al25  1  0.56457334  0.87756093  0.05158703  1
  Al  Al26  1  0.11763554  0.75307004  0.88565279  1
  Al  Al27  1  0.22468562  0.86765270  0.64767590  1
  Al  Al28  1  0.88662922  0.87390987  0.05268991  1
  Al  Al29  1  0.44670125  0.75549237  0.88511921  1
  Al  Al30  1  0.55461100  0.87784041  0.58209684  1
  Gd  Gd31  1  0.75342552  0.09927076  0.81470705  1
  Gd  Gd32  1  0.78176640  0.09344191  0.33679079  1
  Gd  Gd33  1  0.10919434  0.41257666  0.32449056  1
  Gd  Gd34  1  0.23038600  0.87741362  0.14839249  1
  Gd  Gd35  1  0.76329500  0.75518169  0.31064862  1
  N  N36  1  0.24173786  0.17653971  0.40491219  1
  N  N37  1  0.09769040  0.11891409  0.06212369  1
  N  N38  1  0.89858275  0.21934693  0.81686366  1
  N  N39  1  0.77503382  0.09609995  0.59509531  1
  N  N40  1  0.51798160  0.22599743  0.37937840  1
  N  N41  1  0.44224739  0.08987804  0.13514454  1
  N  N42  1  0.22215891  0.20633964  0.87126538  1
  N  N43  1  0.10935563  0.08826725  0.59116621  1
  N  N44  1  0.91825087  0.22475662  0.31973239  1
  N  N45  1  0.78119223  0.09537648  0.11038257  1
  N  N46  1  0.51380774  0.22121765  0.90157996  1
  N  N47  1  0.44903769  0.09725761  0.63999885  1
  N  N48  1  0.22964331  0.56274045  0.31383543  1
  N  N49  1  0.11299162  0.43035489  0.10613962  1
  N  N50  1  0.88850306  0.53834262  0.86753781  1
  N  N51  1  0.76683931  0.42329650  0.58445287  1
  N  N52  1  0.56476182  0.54528775  0.32559192  1
  N  N53  1  0.45203106  0.42910063  0.12125043  1
  N  N54  1  0.21729381  0.54121603  0.83088680  1
  N  N55  1  0.10756783  0.42184535  0.63356787  1
  N  N56  1  0.87848195  0.53537589  0.40941636  1
  N  N57  1  0.78111283  0.43005407  0.07050700  1
  N  N58  1  0.55726703  0.53488121  0.83254269  1
  N  N59  1  0.44372800  0.42274674  0.62313457  1
  N  N60  1  0.22341058  0.86943582  0.36221030  1
  N  N61  1  0.11078454  0.75213086  0.06434449  1
  N  N62  1  0.89530259  0.85200231  0.87245321  1
  N  N63  1  0.77601328  0.76205159  0.63590559  1
  N  N64  1  0.53241567  0.88745549  0.40212708  1
  N  N65  1  0.47290400  0.74589335  0.06533248  1
  N  N66  1  0.22340203  0.87027024  0.83177304  1
  N  N67  1  0.12183343  0.75021215  0.59173843  1
  N  N68  1  0.91163581  0.84560887  0.39526856  1
  N  N69  1  0.78187285  0.76268821  0.09741086  1
  N  N70  1  0.55531158  0.87940161  0.86978573  1
  N  N71  1  0.44587092  0.75293579  0.59502118  1
