# generated using pymatgen
data_Gd5Al31N36
_symmetry_space_group_name_H-M   'P 1'
_cell_length_a   9.71789589
_cell_length_b   9.70284037
_cell_length_c   10.38416361
_cell_angle_alpha   90.58771854
_cell_angle_beta   90.43980843
_cell_angle_gamma   59.94059247
_symmetry_Int_Tables_number   1
_chemical_formula_structural   Gd5Al31N36
_chemical_formula_sum   'Gd5 Al31 N36'
_cell_volume   847.39963647
_cell_formula_units_Z   1
loop_
 _symmetry_equiv_pos_site_id
 _symmetry_equiv_pos_as_xyz
  1  'x, y, z'
loop_
 _atom_site_type_symbol
 _atom_site_label
 _atom_site_symmetry_multiplicity
 _atom_site_fract_x
 _atom_site_fract_y
 _atom_site_fract_z
 _atom_site_occupancy
  Al  Al0  1  0.11263542  0.09414545  0.40988617  1
  Al  Al1  1  0.21900035  0.20904482  0.14460702  1
  Al  Al2  1  0.88731001  0.20696328  0.65717557  1
  Al  Al3  1  0.43418714  0.08500976  0.39499934  1
  Al  Al4  1  0.53927038  0.21540467  0.15150069  1
  Al  Al5  1  0.11036225  0.10157667  0.89604487  1
  Al  Al6  1  0.22364367  0.19560728  0.65372335  1
  Al  Al7  1  0.89045284  0.22044636  0.15324347  1
  Al  Al8  1  0.43286594  0.10196754  0.89472797  1
  Al  Al9  1  0.54225329  0.21009558  0.64967644  1
  Al  Al10  1  0.22551625  0.54618659  0.14612158  1
  Al  Al11  1  0.77532954  0.42873659  0.89842241  1
  Al  Al12  1  0.88499362  0.53246314  0.59566574  1
  Al  Al13  1  0.44585728  0.44007160  0.39464158  1
  Al  Al14  1  0.56661992  0.53629196  0.14559068  1
  Al  Al15  1  0.11016536  0.42947570  0.83047239  1
  Al  Al16  1  0.22743315  0.54338420  0.65384929  1
  Al  Al17  1  0.77625553  0.41814686  0.40992439  1
  Al  Al18  1  0.90310314  0.54002791  0.07070161  1
  Al  Al19  1  0.43726548  0.43329436  0.89999033  1
  Al  Al20  1  0.55335426  0.53387787  0.65373650  1
  Al  Al21  1  0.12305747  0.76193803  0.40876240  1
  Al  Al22  1  0.78022357  0.75103288  0.83346920  1
  Al  Al23  1  0.89361603  0.86511750  0.65387121  1
  Al  Al24  1  0.44317867  0.75925744  0.41368924  1
  Al  Al25  1  0.55833397  0.87404785  0.11599960  1
  Al  Al26  1  0.11522153  0.75532532  0.89561208  1
  Al  Al27  1  0.21938862  0.87294061  0.64780683  1
  Al  Al28  1  0.89976952  0.86934232  0.14585052  1
  Al  Al29  1  0.44599536  0.75755758  0.89044155  1
  Al  Al30  1  0.54752891  0.87420783  0.65064235  1
  Gd  Gd31  1  0.77138634  0.09610055  0.89903813  1
  Gd  Gd32  1  0.76944327  0.09940867  0.39181796  1
  Gd  Gd33  1  0.14556146  0.41399230  0.38384812  1
  Gd  Gd34  1  0.23036452  0.87657476  0.16122956  1
  Gd  Gd35  1  0.77970870  0.74218449  0.33920019  1
  N  N36  1  0.23157898  0.16650238  0.32564448  1
  N  N37  1  0.09623733  0.12248219  0.07702207  1
  N  N38  1  0.89960411  0.22030342  0.83581249  1
  N  N39  1  0.77325474  0.09149694  0.61987561  1
  N  N40  1  0.50405613  0.22851998  0.33418800  1
  N  N41  1  0.44120458  0.09811793  0.07977166  1
  N  N42  1  0.22177516  0.20201585  0.83695105  1
  N  N43  1  0.10539650  0.09801769  0.59588413  1
  N  N44  1  0.90501148  0.21589985  0.33681772  1
  N  N45  1  0.77192179  0.10200978  0.12468273  1
  N  N46  1  0.51799493  0.22492055  0.83071600  1
  N  N47  1  0.43852442  0.09279253  0.58576572  1
  N  N48  1  0.24715361  0.56985076  0.32622359  1
  N  N49  1  0.11331224  0.43356615  0.13585393  1
  N  N50  1  0.89431064  0.53655788  0.88301959  1
  N  N51  1  0.76650284  0.41861063  0.59794641  1
  N  N52  1  0.56603609  0.53766957  0.33902145  1
  N  N53  1  0.44770774  0.43082439  0.08575432  1
  N  N54  1  0.22657849  0.54168014  0.83737701  1
  N  N55  1  0.11192399  0.42658788  0.63532922  1
  N  N56  1  0.89647088  0.51081060  0.41767394  1
  N  N57  1  0.77913691  0.42968073  0.08623111  1
  N  N58  1  0.55554454  0.53431506  0.83809101  1
  N  N59  1  0.44051739  0.42907132  0.58385783  1
  N  N60  1  0.22444451  0.87490683  0.38044779  1
  N  N61  1  0.10489585  0.75394026  0.07538229  1
  N  N62  1  0.90676713  0.84499546  0.83465506  1
  N  N63  1  0.77431764  0.75446759  0.63568500  1
  N  N64  1  0.52365168  0.87814653  0.33638491  1
  N  N65  1  0.47320148  0.74465520  0.07201889  1
  N  N66  1  0.22035246  0.87432317  0.83954495  1
  N  N67  1  0.10977959  0.75785886  0.59378133  1
  N  N68  1  0.92722836  0.85590099  0.32854612  1
  N  N69  1  0.78137070  0.76333641  0.11247674  1
  N  N70  1  0.54947386  0.87801479  0.84010419  1
  N  N71  1  0.44565997  0.75541396  0.60062159  1
