# generated using pymatgen
data_Gd5Al31N36
_symmetry_space_group_name_H-M   'P 1'
_cell_length_a   9.76299714
_cell_length_b   9.69857301
_cell_length_c   10.29862640
_cell_angle_alpha   90.43086201
_cell_angle_beta   90.16184428
_cell_angle_gamma   59.75539910
_symmetry_Int_Tables_number   1
_chemical_formula_structural   Gd5Al31N36
_chemical_formula_sum   'Gd5 Al31 N36'
_cell_volume   842.38896599
_cell_formula_units_Z   1
loop_
 _symmetry_equiv_pos_site_id
 _symmetry_equiv_pos_as_xyz
  1  'x, y, z'
loop_
 _atom_site_type_symbol
 _atom_site_label
 _atom_site_symmetry_multiplicity
 _atom_site_fract_x
 _atom_site_fract_y
 _atom_site_fract_z
 _atom_site_occupancy
  Al  Al0  1  0.11418942  0.09585515  0.40951299  1
  Al  Al1  1  0.22219916  0.20339949  0.13918775  1
  Al  Al2  1  0.89065147  0.20692401  0.65478297  1
  Al  Al3  1  0.42836916  0.08998694  0.39168248  1
  Al  Al4  1  0.54041244  0.21182060  0.15036135  1
  Al  Al5  1  0.11258103  0.09968635  0.89290698  1
  Al  Al6  1  0.22205596  0.20440069  0.65564946  1
  Al  Al7  1  0.89142532  0.21925341  0.15134986  1
  Al  Al8  1  0.43820928  0.09505126  0.89726222  1
  Al  Al9  1  0.54483253  0.20683008  0.64778510  1
  Al  Al10  1  0.22792175  0.54370058  0.13881796  1
  Al  Al11  1  0.77668107  0.42895493  0.89769060  1
  Al  Al12  1  0.89012741  0.52909324  0.59488892  1
  Al  Al13  1  0.44244569  0.43774083  0.39459006  1
  Al  Al14  1  0.56359906  0.53450881  0.14543222  1
  Al  Al15  1  0.12019606  0.42403666  0.89570319  1
  Al  Al16  1  0.22455902  0.53488630  0.65595458  1
  Al  Al17  1  0.77245178  0.42593993  0.40370495  1
  Al  Al18  1  0.88663362  0.54859476  0.08000879  1
  Al  Al19  1  0.44075151  0.43009602  0.89662677  1
  Al  Al20  1  0.55524045  0.53283634  0.65056342  1
  Al  Al21  1  0.12588106  0.76019159  0.40937516  1
  Al  Al22  1  0.78031976  0.75184506  0.84252383  1
  Al  Al23  1  0.89715572  0.86527192  0.65507592  1
  Al  Al24  1  0.44295252  0.75792144  0.40794981  1
  Al  Al25  1  0.55519826  0.87024109  0.14065820  1
  Al  Al26  1  0.11598476  0.75357905  0.89306939  1
  Al  Al27  1  0.22356347  0.87084239  0.64522946  1
  Al  Al28  1  0.89656639  0.86438408  0.14945990  1
  Al  Al29  1  0.44860218  0.75585535  0.89347114  1
  Al  Al30  1  0.54707912  0.87368140  0.65301077  1
  Gd  Gd31  1  0.77373812  0.09669085  0.89953473  1
  Gd  Gd32  1  0.77228050  0.10682322  0.38796738  1
  Gd  Gd33  1  0.13301514  0.42335777  0.38135493  1
  Gd  Gd34  1  0.22437097  0.87369062  0.15843305  1
  Gd  Gd35  1  0.76442390  0.77835742  0.38764992  1
  N  N36  1  0.22685385  0.17428328  0.32249563  1
  N  N37  1  0.09621953  0.12033692  0.07526161  1
  N  N38  1  0.90171415  0.22029211  0.83447831  1
  N  N39  1  0.77660988  0.09097647  0.61795966  1
  N  N40  1  0.50651545  0.22541928  0.33408128  1
  N  N41  1  0.44380197  0.09287673  0.08271523  1
  N  N42  1  0.22462174  0.20329074  0.84091393  1
  N  N43  1  0.10945704  0.09824035  0.59683327  1
  N  N44  1  0.90807633  0.22127356  0.33556442  1
  N  N45  1  0.77289258  0.10112146  0.12633121  1
  N  N46  1  0.52175474  0.21941632  0.83074874  1
  N  N47  1  0.44127699  0.08947342  0.58373611  1
  N  N48  1  0.24509884  0.56771042  0.32091543  1
  N  N49  1  0.11976234  0.42712323  0.09679198  1
  N  N50  1  0.89214759  0.53804606  0.88705476  1
  N  N51  1  0.77014683  0.41926945  0.59356436  1
  N  N52  1  0.56121671  0.53527426  0.33824924  1
  N  N53  1  0.44918382  0.42748301  0.08337710  1
  N  N54  1  0.22689364  0.53608202  0.84080843  1
  N  N55  1  0.11604557  0.42355656  0.61029794  1
  N  N56  1  0.88079030  0.53044383  0.40435592  1
  N  N57  1  0.77606409  0.42863651  0.08731922  1
  N  N58  1  0.55751792  0.53285024  0.83668987  1
  N  N59  1  0.44158486  0.42763616  0.58507330  1
  N  N60  1  0.22458866  0.87544579  0.38021668  1
  N  N61  1  0.10043052  0.75198202  0.07338677  1
  N  N62  1  0.90625543  0.84460749  0.83558044  1
  N  N63  1  0.77573779  0.75670348  0.62849570  1
  N  N64  1  0.51625435  0.88115995  0.32520450  1
  N  N65  1  0.47114274  0.74408865  0.07578767  1
  N  N66  1  0.22352805  0.87131763  0.83900026  1
  N  N67  1  0.11384867  0.75395762  0.59597061  1
  N  N68  1  0.93132866  0.85874151  0.33031605  1
  N  N69  1  0.77615674  0.76567184  0.12297782  1
  N  N70  1  0.55147459  0.87413902  0.83862191  1
  N  N71  1  0.44998572  0.75418748  0.59593854  1
