# generated using pymatgen
data_Gd5Al31N36
_symmetry_space_group_name_H-M   'P 1'
_cell_length_a   9.66849682
_cell_length_b   9.65429491
_cell_length_c   10.54810661
_cell_angle_alpha   90.95143033
_cell_angle_beta   90.94562871
_cell_angle_gamma   60.22684850
_symmetry_Int_Tables_number   1
_chemical_formula_structural   Gd5Al31N36
_chemical_formula_sum   'Gd5 Al31 N36'
_cell_volume   854.46313817
_cell_formula_units_Z   1
loop_
 _symmetry_equiv_pos_site_id
 _symmetry_equiv_pos_as_xyz
  1  'x, y, z'
loop_
 _atom_site_type_symbol
 _atom_site_label
 _atom_site_symmetry_multiplicity
 _atom_site_fract_x
 _atom_site_fract_y
 _atom_site_fract_z
 _atom_site_occupancy
  Al  Al0  1  0.11680516  0.08984125  0.41712114  1
  Al  Al1  1  0.22435291  0.21518496  0.10448889  1
  Al  Al2  1  0.88602997  0.20586753  0.65867851  1
  Al  Al3  1  0.42989216  0.09601442  0.41159853  1
  Al  Al4  1  0.54485303  0.21332100  0.15537022  1
  Al  Al5  1  0.10851490  0.09993894  0.89249342  1
  Al  Al6  1  0.22049631  0.19982680  0.65671878  1
  Al  Al7  1  0.89311393  0.22407613  0.15692051  1
  Al  Al8  1  0.43709396  0.10543595  0.88333893  1
  Al  Al9  1  0.54697636  0.21109787  0.65330143  1
  Al  Al10  1  0.23199369  0.55010293  0.14559773  1
  Al  Al11  1  0.77500558  0.42760179  0.89937416  1
  Al  Al12  1  0.88423087  0.53687973  0.59307579  1
  Al  Al13  1  0.44404010  0.43377357  0.39869716  1
  Al  Al14  1  0.56702014  0.53814257  0.14801031  1
  Al  Al15  1  0.10599304  0.43430057  0.82923221  1
  Al  Al16  1  0.22615064  0.54002195  0.65242700  1
  Al  Al17  1  0.77284564  0.41994515  0.41418195  1
  Al  Al18  1  0.90105727  0.54678532  0.06090293  1
  Al  Al19  1  0.43919213  0.43286828  0.90204661  1
  Al  Al20  1  0.55388847  0.53138176  0.65783806  1
  Al  Al21  1  0.11842388  0.75368100  0.40843932  1
  Al  Al22  1  0.77747210  0.75168325  0.82617042  1
  Al  Al23  1  0.89378935  0.86401692  0.65548726  1
  Al  Al24  1  0.43368828  0.75216419  0.42617299  1
  Al  Al25  1  0.57221168  0.87284007  0.05189757  1
  Al  Al26  1  0.11622573  0.75447803  0.89908000  1
  Al  Al27  1  0.21807577  0.86862842  0.65396368  1
  Al  Al28  1  0.90465921  0.86758121  0.15015087  1
  Al  Al29  1  0.44436284  0.75494967  0.89043283  1
  Al  Al30  1  0.55241675  0.87007796  0.59896044  1
  Gd  Gd31  1  0.77607449  0.09132303  0.90708475  1
  Gd  Gd32  1  0.77848264  0.09093310  0.39302841  1
  Gd  Gd33  1  0.12005168  0.41630112  0.34629112  1
  Gd  Gd34  1  0.23544763  0.88890293  0.16506533  1
  Gd  Gd35  1  0.74980242  0.74480631  0.31671399  1
  N  N36  1  0.23844699  0.15789467  0.33315532  1
  N  N37  1  0.09415142  0.12736281  0.07102259  1
  N  N38  1  0.89696639  0.21956795  0.83541541  1
  N  N39  1  0.77489730  0.08900280  0.61725684  1
  N  N40  1  0.51468446  0.22004934  0.33646276  1
  N  N41  1  0.44738430  0.10247975  0.07101941  1
  N  N42  1  0.22021253  0.20557438  0.84276482  1
  N  N43  1  0.10660051  0.09358455  0.60141522  1
  N  N44  1  0.90939545  0.21883418  0.33891478  1
  N  N45  1  0.77826146  0.10143054  0.13028975  1
  N  N46  1  0.52686190  0.22615721  0.83147385  1
  N  N47  1  0.43483365  0.10337967  0.60117287  1
  N  N48  1  0.24592710  0.55959734  0.32781903  1
  N  N49  1  0.11551445  0.43739928  0.12028639  1
  N  N50  1  0.89106389  0.53783334  0.88094557  1
  N  N51  1  0.76702548  0.41784378  0.59845740  1
  N  N52  1  0.56211811  0.53903041  0.34078287  1
  N  N53  1  0.45120735  0.43009866  0.08736900  1
  N  N54  1  0.22842735  0.54166772  0.83765904  1
  N  N55  1  0.10603125  0.42821363  0.64063657  1
  N  N56  1  0.88058573  0.52871810  0.41801438  1
  N  N57  1  0.78038852  0.43318078  0.08782857  1
  N  N58  1  0.55656845  0.53350734  0.84071726  1
  N  N59  1  0.44126018  0.42750076  0.58560654  1
  N  N60  1  0.21905490  0.87039661  0.37922200  1
  N  N61  1  0.11070540  0.75912645  0.07915952  1
  N  N62  1  0.90935181  0.84383459  0.83411617  1
  N  N63  1  0.77119967  0.75495473  0.64390924  1
  N  N64  1  0.53061516  0.87688138  0.41798787  1
  N  N65  1  0.47588341  0.74671802  0.07659532  1
  N  N66  1  0.22014281  0.87349494  0.84179333  1
  N  N67  1  0.10809224  0.75510207  0.59267877  1
  N  N68  1  0.91886650  0.84100694  0.32941336  1
  N  N69  1  0.78427447  0.76819601  0.10130167  1
  N  N70  1  0.55606353  0.87529544  0.86891483  1
  N  N71  1  0.43974366  0.74982835  0.60999553  1
