# generated using pymatgen
data_Gd5Al31N36
_symmetry_space_group_name_H-M   'P 1'
_cell_length_a   9.60397029
_cell_length_b   9.58645049
_cell_length_c   10.69675089
_cell_angle_alpha   90.64435535
_cell_angle_beta   90.78420189
_cell_angle_gamma   60.47998617
_symmetry_Int_Tables_number   1
_chemical_formula_structural   Gd5Al31N36
_chemical_formula_sum   'Gd5 Al31 N36'
_cell_volume   856.88973802
_cell_formula_units_Z   1
loop_
 _symmetry_equiv_pos_site_id
 _symmetry_equiv_pos_as_xyz
  1  'x, y, z'
loop_
 _atom_site_type_symbol
 _atom_site_label
 _atom_site_symmetry_multiplicity
 _atom_site_fract_x
 _atom_site_fract_y
 _atom_site_fract_z
 _atom_site_occupancy
  Al  Al0  1  0.11134269  0.08895472  0.42251943  1
  Al  Al1  1  0.22746963  0.21763619  0.06527735  1
  Al  Al2  1  0.88699333  0.20489355  0.66136681  1
  Al  Al3  1  0.43074983  0.09078972  0.33668120  1
  Al  Al4  1  0.54903969  0.21512998  0.16004812  1
  Al  Al5  1  0.10950045  0.09814495  0.89582295  1
  Al  Al6  1  0.22570327  0.20258127  0.59248461  1
  Al  Al7  1  0.89435202  0.22303857  0.15706311  1
  Al  Al8  1  0.43557682  0.09496827  0.82408372  1
  Al  Al9  1  0.55084222  0.21164170  0.65568883  1
  Al  Al10  1  0.23155386  0.54659085  0.14357477  1
  Al  Al11  1  0.77538874  0.42728448  0.89908717  1
  Al  Al12  1  0.88499453  0.53691557  0.59608665  1
  Al  Al13  1  0.44155515  0.43698740  0.40076609  1
  Al  Al14  1  0.56795186  0.53667642  0.14731894  1
  Al  Al15  1  0.11108594  0.42403453  0.82740969  1
  Al  Al16  1  0.22505695  0.53943374  0.65312454  1
  Al  Al17  1  0.77264336  0.42257506  0.41668881  1
  Al  Al18  1  0.90153953  0.54748055  0.05750531  1
  Al  Al19  1  0.43948698  0.43196096  0.90132702  1
  Al  Al20  1  0.55297233  0.53412472  0.65728511  1
  Al  Al21  1  0.11734742  0.75448822  0.40738350  1
  Al  Al22  1  0.77598637  0.75241552  0.82711447  1
  Al  Al23  1  0.89304210  0.86438684  0.65572127  1
  Al  Al24  1  0.43214096  0.75816376  0.42334955  1
  Al  Al25  1  0.56599449  0.87973694  0.05916737  1
  Al  Al26  1  0.11611562  0.75145453  0.89699588  1
  Al  Al27  1  0.21863475  0.86980246  0.65633377  1
  Al  Al28  1  0.90295364  0.86675526  0.15043970  1
  Al  Al29  1  0.44677522  0.75490172  0.89489373  1
  Al  Al30  1  0.55147994  0.87585187  0.59107048  1
  Gd  Gd31  1  0.77719944  0.08880993  0.91051075  1
  Gd  Gd32  1  0.78036114  0.09092278  0.39567603  1
  Gd  Gd33  1  0.10962002  0.41823177  0.33355749  1
  Gd  Gd34  1  0.23266142  0.88067258  0.15878165  1
  Gd  Gd35  1  0.74769666  0.74244842  0.31319490  1
  N  N36  1  0.23795016  0.18317169  0.41599107  1
  N  N37  1  0.09439295  0.12284513  0.07611885  1
  N  N38  1  0.89895539  0.21862937  0.83611246  1
  N  N39  1  0.77444166  0.08900794  0.61580020  1
  N  N40  1  0.52188759  0.22727770  0.33651799  1
  N  N41  1  0.43920905  0.08686303  0.14193909  1
  N  N42  1  0.22817214  0.20888392  0.88594739  1
  N  N43  1  0.10219754  0.09025301  0.60318500  1
  N  N44  1  0.91244096  0.22318815  0.33724899  1
  N  N45  1  0.77869021  0.10029338  0.13051318  1
  N  N46  1  0.53152906  0.22566865  0.83477562  1
  N  N47  1  0.43961194  0.09003043  0.64775990  1
  N  N48  1  0.24270499  0.55931723  0.32646982  1
  N  N49  1  0.11594506  0.43328182  0.11766780  1
  N  N50  1  0.89294213  0.53707585  0.88038773  1
  N  N51  1  0.76671304  0.41695858  0.59826615  1
  N  N52  1  0.56191981  0.54385901  0.34042489  1
  N  N53  1  0.45075259  0.42795431  0.08592665  1
  N  N54  1  0.22926558  0.54005414  0.83537275  1
  N  N55  1  0.10787633  0.42218169  0.64571349  1
  N  N56  1  0.88060263  0.53392735  0.42340233  1
  N  N57  1  0.78075007  0.43177130  0.08635505  1
  N  N58  1  0.55684151  0.53584178  0.83891978  1
  N  N59  1  0.44014055  0.42728272  0.58580833  1
  N  N60  1  0.21811610  0.87545781  0.37168017  1
  N  N61  1  0.10724330  0.75459796  0.07500696  1
  N  N62  1  0.90979106  0.84427806  0.83128195  1
  N  N63  1  0.76763508  0.75577728  0.64613100  1
  N  N64  1  0.52755054  0.89071690  0.41300542  1
  N  N65  1  0.47569503  0.74357561  0.07618007  1
  N  N66  1  0.22292953  0.87253269  0.84239820  1
  N  N67  1  0.10820688  0.75520720  0.59034866  1
  N  N68  1  0.91729143  0.84110743  0.32749723  1
  N  N69  1  0.78321775  0.76720936  0.10176425  1
  N  N70  1  0.55677233  0.88031282  0.88099783  1
  N  N71  1  0.43934811  0.75224307  0.60359957  1
