# generated using pymatgen
data_Gd5Al31N36
_symmetry_space_group_name_H-M   'P 1'
_cell_length_a   9.67906318
_cell_length_b   9.66664485
_cell_length_c   10.61514062
_cell_angle_alpha   90.81454808
_cell_angle_beta   90.36681936
_cell_angle_gamma   60.01555333
_symmetry_Int_Tables_number   1
_chemical_formula_structural   Gd5Al31N36
_chemical_formula_sum   'Gd5 Al31 N36'
_cell_volume   860.18028153
_cell_formula_units_Z   1
loop_
 _symmetry_equiv_pos_site_id
 _symmetry_equiv_pos_as_xyz
  1  'x, y, z'
loop_
 _atom_site_type_symbol
 _atom_site_label
 _atom_site_symmetry_multiplicity
 _atom_site_fract_x
 _atom_site_fract_y
 _atom_site_fract_z
 _atom_site_occupancy
  Al  Al0  1  0.11258656  0.08581169  0.41794833  1
  Al  Al1  1  0.22670969  0.21453286  0.06665406  1
  Al  Al2  1  0.89242668  0.20957564  0.65900387  1
  Al  Al3  1  0.43126212  0.08667502  0.33072824  1
  Al  Al4  1  0.54826643  0.21131727  0.15362973  1
  Al  Al5  1  0.11194792  0.09815084  0.89511660  1
  Al  Al6  1  0.22821665  0.19799111  0.58957931  1
  Al  Al7  1  0.89443978  0.21858142  0.15177004  1
  Al  Al8  1  0.43510503  0.09222077  0.82498386  1
  Al  Al9  1  0.54450746  0.21427851  0.65633443  1
  Al  Al10  1  0.22875789  0.54402636  0.14340331  1
  Al  Al11  1  0.77554839  0.43164569  0.89709650  1
  Al  Al12  1  0.88614842  0.53636203  0.59209274  1
  Al  Al13  1  0.43716672  0.43879648  0.39572023  1
  Al  Al14  1  0.56697163  0.53462319  0.14699755  1
  Al  Al15  1  0.11021589  0.42280643  0.82685125  1
  Al  Al16  1  0.22888764  0.53567169  0.65421522  1
  Al  Al17  1  0.77283705  0.42625588  0.40825329  1
  Al  Al18  1  0.89997679  0.54137943  0.06232346  1
  Al  Al19  1  0.43520192  0.43386097  0.90159127  1
  Al  Al20  1  0.55465561  0.53238781  0.65324951  1
  Al  Al21  1  0.12276189  0.75810301  0.41924302  1
  Al  Al22  1  0.77602763  0.75463958  0.82600663  1
  Al  Al23  1  0.89309040  0.86572435  0.63186140  1
  Al  Al24  1  0.43862790  0.75482685  0.41754439  1
  Al  Al25  1  0.56309226  0.87416279  0.06289381  1
  Al  Al26  1  0.11774352  0.75091984  0.89007608  1
  Al  Al27  1  0.22479053  0.86827312  0.65721298  1
  Al  Al28  1  0.89029032  0.86897631  0.08890340  1
  Al  Al29  1  0.44783300  0.75278355  0.89404814  1
  Al  Al30  1  0.55369551  0.87352168  0.58753773  1
  Gd  Gd31  1  0.77117879  0.10750049  0.88658475  1
  Gd  Gd32  1  0.76777701  0.11433098  0.40656713  1
  Gd  Gd33  1  0.11513563  0.41561693  0.33862722  1
  Gd  Gd34  1  0.22698768  0.87522135  0.15596612  1
  Gd  Gd35  1  0.76872458  0.76157831  0.32645997  1
  N  N36  1  0.23950733  0.17719747  0.41239117  1
  N  N37  1  0.09663709  0.11854823  0.07559560  1
  N  N38  1  0.90703037  0.22679313  0.83221641  1
  N  N39  1  0.77267496  0.09759563  0.63025855  1
  N  N40  1  0.51448790  0.22862274  0.33103110  1
  N  N41  1  0.43875545  0.08395351  0.13923176  1
  N  N42  1  0.22751016  0.20865893  0.88581777  1
  N  N43  1  0.10550151  0.08730177  0.60047585  1
  N  N44  1  0.91404453  0.22176289  0.33225261  1
  N  N45  1  0.77825590  0.09494659  0.11491313  1
  N  N46  1  0.51934334  0.22981382  0.83421296  1
  N  N47  1  0.44131295  0.08707744  0.64593532  1
  N  N48  1  0.23542658  0.56663320  0.32671544  1
  N  N49  1  0.11456291  0.42999854  0.12147595  1
  N  N50  1  0.89216372  0.54047074  0.88203842  1
  N  N51  1  0.76874707  0.41759641  0.59270491  1
  N  N52  1  0.56075063  0.53773722  0.33794578  1
  N  N53  1  0.44865919  0.42724415  0.08543416  1
  N  N54  1  0.22725652  0.53799379  0.83522093  1
  N  N55  1  0.10964923  0.42043776  0.64156388  1
  N  N56  1  0.87866683  0.53584717  0.41708675  1
  N  N57  1  0.77933404  0.42778495  0.08358228  1
  N  N58  1  0.55698171  0.53270440  0.83668483  1
  N  N59  1  0.44220021  0.42509876  0.58272825  1
  N  N60  1  0.22368284  0.87153113  0.36979736  1
  N  N61  1  0.10801530  0.74694863  0.07088031  1
  N  N62  1  0.90254321  0.84959825  0.84748974  1
  N  N63  1  0.77146952  0.75602101  0.64470355  1
  N  N64  1  0.53044784  0.88636394  0.40742544  1
  N  N65  1  0.47291747  0.74042262  0.07574023  1
  N  N66  1  0.22461782  0.87219095  0.84284899  1
  N  N67  1  0.12161213  0.75085644  0.60333971  1
  N  N68  1  0.90672704  0.86206281  0.40381702  1
  N  N69  1  0.78070721  0.76132178  0.10961572  1
  N  N70  1  0.55666360  0.87740717  0.88214549  1
  N  N71  1  0.44474501  0.75011101  0.60096536  1
