# generated using pymatgen
data_Gd5Al31N36
_symmetry_space_group_name_H-M   'P 1'
_cell_length_a   9.67122098
_cell_length_b   9.63742459
_cell_length_c   10.65676036
_cell_angle_alpha   90.83239800
_cell_angle_beta   91.17477741
_cell_angle_gamma   60.24985196
_symmetry_Int_Tables_number   1
_chemical_formula_structural   Gd5Al31N36
_chemical_formula_sum   'Gd5 Al31 N36'
_cell_volume   862.16281382
_cell_formula_units_Z   1
loop_
 _symmetry_equiv_pos_site_id
 _symmetry_equiv_pos_as_xyz
  1  'x, y, z'
loop_
 _atom_site_type_symbol
 _atom_site_label
 _atom_site_symmetry_multiplicity
 _atom_site_fract_x
 _atom_site_fract_y
 _atom_site_fract_z
 _atom_site_occupancy
  Al  Al0  1  0.11128119  0.08985463  0.40626645  1
  Al  Al1  1  0.22885533  0.21112568  0.05352392  1
  Al  Al2  1  0.89226129  0.21097979  0.63775813  1
  Al  Al3  1  0.43273840  0.09304460  0.32772492  1
  Al  Al4  1  0.54837135  0.21067017  0.07345695  1
  Al  Al5  1  0.10765862  0.09757355  0.88295588  1
  Al  Al6  1  0.22713830  0.20425295  0.57972729  1
  Al  Al7  1  0.89665494  0.21935534  0.13150003  1
  Al  Al8  1  0.43439578  0.09854558  0.81916369  1
  Al  Al9  1  0.54436810  0.21183152  0.56586457  1
  Al  Al10  1  0.23217157  0.52794712  0.05339765  1
  Al  Al11  1  0.77588680  0.42666418  0.88526546  1
  Al  Al12  1  0.88673023  0.53922349  0.58111848  1
  Al  Al13  1  0.43914363  0.43640247  0.32073395  1
  Al  Al14  1  0.57094449  0.53870368  0.13759835  1
  Al  Al15  1  0.10912547  0.42466294  0.81690675  1
  Al  Al16  1  0.22841552  0.53228861  0.58983696  1
  Al  Al17  1  0.77337415  0.42417139  0.39847887  1
  Al  Al18  1  0.89808922  0.54327630  0.04747012  1
  Al  Al19  1  0.43592875  0.42610245  0.82167636  1
  Al  Al20  1  0.55790088  0.53653136  0.64762747  1
  Al  Al21  1  0.12534121  0.76057430  0.42030201  1
  Al  Al22  1  0.77623622  0.75459982  0.81530168  1
  Al  Al23  1  0.88526383  0.86908536  0.57867757  1
  Al  Al24  1  0.43649359  0.75574039  0.41083334  1
  Al  Al25  1  0.56557509  0.87585411  0.05349839  1
  Al  Al26  1  0.11704189  0.75661638  0.87785754  1
  Al  Al27  1  0.22250274  0.87230324  0.65040228  1
  Al  Al28  1  0.88926226  0.86812206  0.05238872  1
  Al  Al29  1  0.44877537  0.75374991  0.88602226  1
  Al  Al30  1  0.55074230  0.87860072  0.58122318  1
  Gd  Gd31  1  0.76019280  0.09945351  0.82585175  1
  Gd  Gd32  1  0.77765236  0.09288702  0.33032023  1
  Gd  Gd33  1  0.11728859  0.42465273  0.31893446  1
  Gd  Gd34  1  0.22958213  0.87290256  0.14613399  1
  Gd  Gd35  1  0.76206278  0.75664569  0.31450300  1
  N  N36  1  0.23489336  0.18603578  0.40026013  1
  N  N37  1  0.09884306  0.11662661  0.06282926  1
  N  N38  1  0.90197765  0.22213132  0.81664388  1
  N  N39  1  0.77203402  0.09794258  0.60403061  1
  N  N40  1  0.52004661  0.22460593  0.38539639  1
  N  N41  1  0.44445144  0.08921636  0.13552897  1
  N  N42  1  0.22414028  0.20619801  0.87143003  1
  N  N43  1  0.10756214  0.09098759  0.58837748  1
  N  N44  1  0.91275512  0.22381648  0.31787999  1
  N  N45  1  0.78100998  0.09417344  0.10413689  1
  N  N46  1  0.51371732  0.22543741  0.89819070  1
  N  N47  1  0.44545371  0.09673665  0.63929236  1
  N  N48  1  0.24731231  0.54419054  0.40377303  1
  N  N49  1  0.11579525  0.42799809  0.10109338  1
  N  N50  1  0.88981001  0.53868233  0.86757280  1
  N  N51  1  0.76685711  0.42335619  0.58120611  1
  N  N52  1  0.56310534  0.54703309  0.32564761  1
  N  N53  1  0.44251888  0.42930200  0.13486414  1
  N  N54  1  0.22465073  0.53294576  0.86856122  1
  N  N55  1  0.10940810  0.42554864  0.63466047  1
  N  N56  1  0.88510786  0.53091202  0.40563098  1
  N  N57  1  0.77924866  0.42898583  0.07007058  1
  N  N58  1  0.55960170  0.53683641  0.82887083  1
  N  N59  1  0.44532725  0.41764648  0.64159503  1
  N  N60  1  0.21979666  0.87208359  0.36008071  1
  N  N61  1  0.11063654  0.74984656  0.06486669  1
  N  N62  1  0.89627760  0.84806137  0.87113566  1
  N  N63  1  0.77202020  0.76126121  0.63428443  1
  N  N64  1  0.52753880  0.88962543  0.40163178  1
  N  N65  1  0.47396745  0.74320911  0.06583458  1
  N  N66  1  0.22534990  0.87286207  0.83303583  1
  N  N67  1  0.11275651  0.76074634  0.60625954  1
  N  N68  1  0.90912826  0.84930878  0.40024097  1
  N  N69  1  0.78279060  0.75993513  0.10106388  1
  N  N70  1  0.55642475  0.87944864  0.87140380  1
  N  N71  1  0.44177156  0.75335652  0.59291430  1
