# generated using pymatgen
data_Gd5Al31N36
_symmetry_space_group_name_H-M   'P 1'
_cell_length_a   9.68208467
_cell_length_b   9.65459158
_cell_length_c   10.59844976
_cell_angle_alpha   90.76204026
_cell_angle_beta   90.76677225
_cell_angle_gamma   60.21744403
_symmetry_Int_Tables_number   1
_chemical_formula_structural   Gd5Al31N36
_chemical_formula_sum   'Gd5 Al31 N36'
_cell_volume   859.74870673
_cell_formula_units_Z   1
loop_
 _symmetry_equiv_pos_site_id
 _symmetry_equiv_pos_as_xyz
  1  'x, y, z'
loop_
 _atom_site_type_symbol
 _atom_site_label
 _atom_site_symmetry_multiplicity
 _atom_site_fract_x
 _atom_site_fract_y
 _atom_site_fract_z
 _atom_site_occupancy
  Al  Al0  1  0.11040688  0.09177044  0.39296684  1
  Al  Al1  1  0.22534674  0.21313692  0.04209430  1
  Al  Al2  1  0.89158446  0.20995571  0.62677759  1
  Al  Al3  1  0.43316009  0.09246836  0.31483071  1
  Al  Al4  1  0.54268665  0.21374114  0.06298583  1
  Al  Al5  1  0.10721563  0.09950047  0.87040001  1
  Al  Al6  1  0.22797255  0.20420233  0.56687005  1
  Al  Al7  1  0.89330464  0.22059482  0.11792096  1
  Al  Al8  1  0.43440702  0.09881346  0.80733546  1
  Al  Al9  1  0.54788626  0.20842352  0.55667720  1
  Al  Al10  1  0.22466344  0.53608449  0.04301547  1
  Al  Al11  1  0.77510690  0.42847548  0.87298810  1
  Al  Al12  1  0.88949306  0.53666430  0.56843403  1
  Al  Al13  1  0.44250894  0.43583725  0.31216990  1
  Al  Al14  1  0.56739283  0.53992827  0.12606094  1
  Al  Al15  1  0.10983260  0.42539741  0.80516579  1
  Al  Al16  1  0.23399728  0.52847308  0.57617708  1
  Al  Al17  1  0.77518630  0.42187585  0.38565130  1
  Al  Al18  1  0.89572575  0.54373179  0.03696350  1
  Al  Al19  1  0.43554357  0.42656260  0.81084679  1
  Al  Al20  1  0.55947570  0.53532431  0.63540253  1
  Al  Al21  1  0.12712005  0.76204667  0.40800885  1
  Al  Al22  1  0.77496742  0.75429985  0.80427010  1
  Al  Al23  1  0.88507271  0.86864011  0.57281253  1
  Al  Al24  1  0.43873854  0.75556146  0.39741668  1
  Al  Al25  1  0.56230153  0.87675829  0.04318776  1
  Al  Al26  1  0.11458766  0.75452449  0.82408999  1
  Al  Al27  1  0.22671172  0.87571919  0.63697602  1
  Al  Al28  1  0.89205490  0.86356993  0.03986921  1
  Al  Al29  1  0.44754340  0.75424369  0.87474920  1
  Al  Al30  1  0.55236111  0.87728282  0.56910976  1
  Gd  Gd31  1  0.76211712  0.10118147  0.82398935  1
  Gd  Gd32  1  0.77918359  0.08720070  0.31548005  1
  Gd  Gd33  1  0.12362245  0.42765195  0.30737810  1
  Gd  Gd34  1  0.22430282  0.87459568  0.13286518  1
  Gd  Gd35  1  0.76757665  0.75437641  0.30423999  1
  N  N36  1  0.23392632  0.18773435  0.38614269  1
  N  N37  1  0.09548271  0.11918179  0.04996771  1
  N  N38  1  0.90205606  0.22401822  0.80507963  1
  N  N39  1  0.77276274  0.09602758  0.59829316  1
  N  N40  1  0.52207314  0.22320549  0.37467117  1
  N  N41  1  0.44081720  0.09114043  0.12373450  1
  N  N42  1  0.22359780  0.20778324  0.85877864  1
  N  N43  1  0.10742740  0.09191933  0.57581862  1
  N  N44  1  0.91049304  0.22020102  0.30579103  1
  N  N45  1  0.77722304  0.09534597  0.08838619  1
  N  N46  1  0.51112857  0.22708731  0.88642473  1
  N  N47  1  0.44543798  0.09526145  0.62660120  1
  N  N48  1  0.25223431  0.54672273  0.39885496  1
  N  N49  1  0.11264790  0.42889418  0.08978871  1
  N  N50  1  0.88993783  0.53894498  0.85564072  1
  N  N51  1  0.76888781  0.42187539  0.56907354  1
  N  N52  1  0.56491545  0.54628138  0.31482312  1
  N  N53  1  0.43767894  0.43134509  0.12585407  1
  N  N54  1  0.22332224  0.53600031  0.85861973  1
  N  N55  1  0.11215400  0.42554048  0.62143176  1
  N  N56  1  0.88964443  0.52597736  0.39128114  1
  N  N57  1  0.77589019  0.43024498  0.05822440  1
  N  N58  1  0.55895989  0.53748089  0.81711638  1
  N  N59  1  0.44815300  0.41558480  0.63044646  1
  N  N60  1  0.22165023  0.87308532  0.35039665  1
  N  N61  1  0.10295408  0.74888676  0.07684830  1
  N  N62  1  0.89896965  0.84511297  0.85758287  1
  N  N63  1  0.77258226  0.75855443  0.62228589  1
  N  N64  1  0.53014493  0.88887656  0.38832573  1
  N  N65  1  0.47117329  0.74371389  0.05452589  1
  N  N66  1  0.22587732  0.87519603  0.82010076  1
  N  N67  1  0.11390255  0.75813996  0.61264880  1
  N  N68  1  0.91311855  0.84701271  0.39570545  1
  N  N69  1  0.77845216  0.76139823  0.08932040  1
  N  N70  1  0.55533486  0.88017422  0.85985467  1
  N  N71  1  0.44382145  0.75214278  0.58016743  1
