# generated using pymatgen
data_Gd5Al31N36
_symmetry_space_group_name_H-M   'P 1'
_cell_length_a   9.67662564
_cell_length_b   9.65054328
_cell_length_c   10.56464861
_cell_angle_alpha   91.03377227
_cell_angle_beta   90.96000692
_cell_angle_gamma   60.24144329
_symmetry_Int_Tables_number   1
_chemical_formula_structural   Gd5Al31N36
_chemical_formula_sum   'Gd5 Al31 N36'
_cell_volume   856.29743587
_cell_formula_units_Z   1
loop_
 _symmetry_equiv_pos_site_id
 _symmetry_equiv_pos_as_xyz
  1  'x, y, z'
loop_
 _atom_site_type_symbol
 _atom_site_label
 _atom_site_symmetry_multiplicity
 _atom_site_fract_x
 _atom_site_fract_y
 _atom_site_fract_z
 _atom_site_occupancy
  Al  Al0  1  0.11448242  0.08890521  0.42304468  1
  Al  Al1  1  0.22159557  0.22278208  0.06842742  1
  Al  Al2  1  0.88479042  0.20566860  0.65968996  1
  Al  Al3  1  0.43244903  0.09710768  0.41826582  1
  Al  Al4  1  0.54411591  0.21288985  0.15577075  1
  Al  Al5  1  0.10644851  0.09730504  0.89077726  1
  Al  Al6  1  0.21987956  0.20040177  0.65196898  1
  Al  Al7  1  0.89370432  0.22438672  0.15712213  1
  Al  Al8  1  0.44209138  0.10206785  0.87828518  1
  Al  Al9  1  0.54880107  0.21095275  0.65424673  1
  Al  Al10  1  0.23254613  0.55049974  0.14469446  1
  Al  Al11  1  0.77431183  0.42785852  0.89956795  1
  Al  Al12  1  0.88537170  0.53590958  0.59256157  1
  Al  Al13  1  0.44283936  0.43329102  0.39849061  1
  Al  Al14  1  0.56694395  0.53843713  0.14850321  1
  Al  Al15  1  0.10475881  0.43648927  0.82906859  1
  Al  Al16  1  0.22637262  0.53915920  0.65209085  1
  Al  Al17  1  0.77263962  0.42046783  0.41432127  1
  Al  Al18  1  0.89953542  0.54872470  0.05939857  1
  Al  Al19  1  0.43942324  0.43314908  0.90229511  1
  Al  Al20  1  0.55392935  0.53109271  0.65757033  1
  Al  Al21  1  0.11855629  0.75237365  0.40775755  1
  Al  Al22  1  0.77794762  0.75110662  0.82535315  1
  Al  Al23  1  0.89413437  0.86366431  0.65520043  1
  Al  Al24  1  0.43319048  0.75338570  0.42621119  1
  Al  Al25  1  0.57201377  0.87355384  0.05148637  1
  Al  Al26  1  0.11623054  0.75402426  0.89932809  1
  Al  Al27  1  0.21831092  0.86691171  0.65506565  1
  Al  Al28  1  0.90479426  0.86790500  0.15061518  1
  Al  Al29  1  0.44477615  0.75421627  0.89087124  1
  Al  Al30  1  0.55367633  0.86824144  0.60010455  1
  Gd  Gd31  1  0.77608626  0.09076312  0.90865298  1
  Gd  Gd32  1  0.77885390  0.09136676  0.39249194  1
  Gd  Gd33  1  0.11592801  0.41374648  0.33546803  1
  Gd  Gd34  1  0.23497642  0.89107282  0.16456535  1
  Gd  Gd35  1  0.74962625  0.74527819  0.31707384  1
  N  N36  1  0.23516017  0.16510607  0.36318269  1
  N  N37  1  0.09394532  0.12841205  0.07011461  1
  N  N38  1  0.89560675  0.21967250  0.83605738  1
  N  N39  1  0.77521520  0.08844942  0.61679277  1
  N  N40  1  0.51593199  0.21875166  0.33676554  1
  N  N41  1  0.44837067  0.10272534  0.06838360  1
  N  N42  1  0.22001639  0.20737245  0.85216921  1
  N  N43  1  0.10531648  0.09145926  0.60679276  1
  N  N44  1  0.91010932  0.21900251  0.33885773  1
  N  N45  1  0.77848497  0.10171945  0.13080417  1
  N  N46  1  0.52847735  0.22676591  0.83167786  1
  N  N47  1  0.43840125  0.10029422  0.60836872  1
  N  N48  1  0.24475139  0.55742944  0.32730319  1
  N  N49  1  0.11646678  0.43780906  0.11235282  1
  N  N50  1  0.88996536  0.53804673  0.88035785  1
  N  N51  1  0.76720802  0.41728688  0.59850007  1
  N  N52  1  0.56145253  0.53934664  0.34098389  1
  N  N53  1  0.45152021  0.43013642  0.08744132  1
  N  N54  1  0.22901204  0.54166282  0.83750073  1
  N  N55  1  0.10577015  0.42747272  0.64376147  1
  N  N56  1  0.88057062  0.52919874  0.41823863  1
  N  N57  1  0.78042835  0.43381391  0.08812570  1
  N  N58  1  0.55656049  0.53345565  0.84057094  1
  N  N59  1  0.44137798  0.42678134  0.58557232  1
  N  N60  1  0.21846816  0.87051781  0.37848797  1
  N  N61  1  0.11083616  0.76000758  0.07926883  1
  N  N62  1  0.90969355  0.84358387  0.83388196  1
  N  N63  1  0.77226825  0.75392481  0.64394540  1
  N  N64  1  0.53167047  0.87720764  0.41931234  1
  N  N65  1  0.47579123  0.74715001  0.07661290  1
  N  N66  1  0.22082530  0.87220362  0.84225689  1
  N  N67  1  0.10845904  0.75412139  0.59232055  1
  N  N68  1  0.91885053  0.84129094  0.32924815  1
  N  N69  1  0.78391442  0.76911436  0.10125057  1
  N  N70  1  0.55702688  0.87354241  0.86830634  1
  N  N71  1  0.43948296  0.74952808  0.60995220  1
