# generated using pymatgen
data_Gd5Al31N36
_symmetry_space_group_name_H-M   'P 1'
_cell_length_a   9.72488930
_cell_length_b   9.71802369
_cell_length_c   10.30497567
_cell_angle_alpha   90.01809543
_cell_angle_beta   90.45005798
_cell_angle_gamma   59.82653144
_symmetry_Int_Tables_number   1
_chemical_formula_structural   Gd5Al31N36
_chemical_formula_sum   'Gd5 Al31 N36'
_cell_volume   841.90132603
_cell_formula_units_Z   1
loop_
 _symmetry_equiv_pos_site_id
 _symmetry_equiv_pos_as_xyz
  1  'x, y, z'
loop_
 _atom_site_type_symbol
 _atom_site_label
 _atom_site_symmetry_multiplicity
 _atom_site_fract_x
 _atom_site_fract_y
 _atom_site_fract_z
 _atom_site_occupancy
  Al  Al0  1  0.11293400  0.09907274  0.31323166  1
  Al  Al1  1  0.22227675  0.20989637  0.05285877  1
  Al  Al2  1  0.89279592  0.20903528  0.55700335  1
  Al  Al3  1  0.43133260  0.09312504  0.31521824  1
  Al  Al4  1  0.54606224  0.20984163  0.05957136  1
  Al  Al5  1  0.11206802  0.10577143  0.81011274  1
  Al  Al6  1  0.22451323  0.20157724  0.56564994  1
  Al  Al7  1  0.89140947  0.21944875  0.05998687  1
  Al  Al8  1  0.43819047  0.09885453  0.80903407  1
  Al  Al9  1  0.54421994  0.21045223  0.55683649  1
  Al  Al10  1  0.22241490  0.53420059  0.05289270  1
  Al  Al11  1  0.78160067  0.42930091  0.80843367  1
  Al  Al12  1  0.88711635  0.53616734  0.57084833  1
  Al  Al13  1  0.44147883  0.43670449  0.31299028  1
  Al  Al14  1  0.56387128  0.53363794  0.05861691  1
  Al  Al15  1  0.11422008  0.42685472  0.81099459  1
  Al  Al16  1  0.22841351  0.54111543  0.56598098  1
  Al  Al17  1  0.77465876  0.42973420  0.31366405  1
  Al  Al18  1  0.88876252  0.53731346  0.04390070  1
  Al  Al19  1  0.44063146  0.42973576  0.81120974  1
  Al  Al20  1  0.55926615  0.53219415  0.56682446  1
  Al  Al21  1  0.11820148  0.75586729  0.31407551  1
  Al  Al22  1  0.78115986  0.75581885  0.80795799  1
  Al  Al23  1  0.89538662  0.86534177  0.56182749  1
  Al  Al24  1  0.43373393  0.76307638  0.34488503  1
  Al  Al25  1  0.56010454  0.87188162  0.04543180  1
  Al  Al26  1  0.11393190  0.74946455  0.80856340  1
  Al  Al27  1  0.22277502  0.87170457  0.62647216  1
  Al  Al28  1  0.89284213  0.85802866  0.04947096  1
  Al  Al29  1  0.45572300  0.75277137  0.81733584  1
  Al  Al30  1  0.55053727  0.87637304  0.57295075  1
  Gd  Gd31  1  0.77553878  0.10008713  0.81649498  1
  Gd  Gd32  1  0.77650911  0.09631473  0.31433382  1
  Gd  Gd33  1  0.11618437  0.42855988  0.31186104  1
  Gd  Gd34  1  0.21975447  0.87345571  0.07651885  1
  Gd  Gd35  1  0.76212583  0.76141992  0.30654213  1
  N  N36  1  0.22939502  0.18340695  0.38450851  1
  N  N37  1  0.09834513  0.13233063  0.12838189  1
  N  N38  1  0.90734064  0.22291755  0.87738253  1
  N  N39  1  0.77531350  0.09670502  0.58835439  1
  N  N40  1  0.51638910  0.22313815  0.37251553  1
  N  N41  1  0.44510148  0.09052360  0.12168096  1
  N  N42  1  0.22534748  0.20376918  0.86602988  1
  N  N43  1  0.10849484  0.09862316  0.62441646  1
  N  N44  1  0.90233620  0.21954255  0.37491495  1
  N  N45  1  0.78192540  0.09252625  0.08433090  1
  N  N46  1  0.52130772  0.22194569  0.87758401  1
  N  N47  1  0.44370566  0.09715555  0.62515998  1
  N  N48  1  0.24135299  0.55465559  0.38537323  1
  N  N49  1  0.11089178  0.42787581  0.08929524  1
  N  N50  1  0.88958469  0.53733829  0.85736472  1
  N  N51  1  0.77799314  0.42351078  0.62453036  1
  N  N52  1  0.55769687  0.53628601  0.37621657  1
  N  N53  1  0.44440157  0.43039934  0.12192147  1
  N  N54  1  0.22620046  0.53804016  0.86630597  1
  N  N55  1  0.11500341  0.42749330  0.61863060  1
  N  N56  1  0.87515240  0.52726065  0.39031244  1
  N  N57  1  0.77797961  0.43204466  0.12294035  1
  N  N58  1  0.56239947  0.52908935  0.86830604  1
  N  N59  1  0.44824280  0.42516589  0.62525172  1
  N  N60  1  0.21675155  0.87643167  0.32846414  1
  N  N61  1  0.09582950  0.73694365  0.12820333  1
  N  N62  1  0.90657496  0.84268783  0.86656806  1
  N  N63  1  0.77686713  0.76215664  0.61942426  1
  N  N64  1  0.52228277  0.88752573  0.39049556  1
  N  N65  1  0.47681059  0.74694540  0.09993883  1
  N  N66  1  0.22308178  0.87229688  0.83542712  1
  N  N67  1  0.11179957  0.75810698  0.62526632  1
  N  N68  1  0.91610760  0.84873808  0.38288647  1
  N  N69  1  0.77758335  0.75789125  0.08743890  1
  N  N70  1  0.55682802  0.87600731  0.85814061  1
  N  N71  1  0.44994104  0.75381049  0.62331815  1
