# generated using pymatgen
data_Gd5Al31N36
_symmetry_space_group_name_H-M   'P 1'
_cell_length_a   9.67140375
_cell_length_b   9.65075473
_cell_length_c   10.60172987
_cell_angle_alpha   90.80987079
_cell_angle_beta   90.82006304
_cell_angle_gamma   60.22435334
_symmetry_Int_Tables_number   1
_chemical_formula_structural   Gd5Al31N36
_chemical_formula_sum   'Gd5 Al31 N36'
_cell_volume   858.76992923
_cell_formula_units_Z   1
loop_
 _symmetry_equiv_pos_site_id
 _symmetry_equiv_pos_as_xyz
  1  'x, y, z'
loop_
 _atom_site_type_symbol
 _atom_site_label
 _atom_site_symmetry_multiplicity
 _atom_site_fract_x
 _atom_site_fract_y
 _atom_site_fract_z
 _atom_site_occupancy
  Al  Al0  1  0.11017392  0.09250170  0.39281013  1
  Al  Al1  1  0.22508960  0.21279956  0.04109164  1
  Al  Al2  1  0.89074718  0.20985095  0.62696805  1
  Al  Al3  1  0.43353812  0.09239273  0.31519116  1
  Al  Al4  1  0.54210351  0.21386914  0.06253372  1
  Al  Al5  1  0.10746814  0.09928984  0.86892797  1
  Al  Al6  1  0.22776373  0.20519036  0.56730417  1
  Al  Al7  1  0.89275222  0.22054046  0.11737031  1
  Al  Al8  1  0.43482469  0.09900564  0.80687959  1
  Al  Al9  1  0.54772553  0.20891047  0.55790549  1
  Al  Al10  1  0.22152171  0.53940048  0.04756865  1
  Al  Al11  1  0.77472810  0.42836264  0.87232208  1
  Al  Al12  1  0.88993044  0.53711077  0.56939782  1
  Al  Al13  1  0.44347975  0.43509775  0.31194461  1
  Al  Al14  1  0.56701927  0.53970933  0.12563415  1
  Al  Al15  1  0.11051460  0.42659613  0.80658381  1
  Al  Al16  1  0.23166650  0.53305487  0.57346511  1
  Al  Al17  1  0.77543649  0.42229438  0.38588231  1
  Al  Al18  1  0.89477449  0.54298038  0.03680252  1
  Al  Al19  1  0.43442244  0.42804664  0.81175790  1
  Al  Al20  1  0.55894724  0.53550523  0.63520367  1
  Al  Al21  1  0.12474851  0.75904806  0.37444664  1
  Al  Al22  1  0.77702580  0.75429076  0.80610419  1
  Al  Al23  1  0.88904520  0.86751763  0.57145384  1
  Al  Al24  1  0.43972981  0.75566545  0.39727091  1
  Al  Al25  1  0.56186253  0.87659108  0.04267053  1
  Al  Al26  1  0.11411255  0.75283326  0.80814447  1
  Al  Al27  1  0.22625648  0.87558404  0.63446187  1
  Al  Al28  1  0.89525739  0.85998300  0.04497462  1
  Al  Al29  1  0.44729137  0.75460450  0.87340488  1
  Al  Al30  1  0.55361388  0.87737170  0.56958355  1
  Gd  Gd31  1  0.76467019  0.09794999  0.82644787  1
  Gd  Gd32  1  0.77808781  0.08864245  0.31507586  1
  Gd  Gd33  1  0.12328450  0.42614550  0.30576333  1
  Gd  Gd34  1  0.22500744  0.87600677  0.13049034  1
  Gd  Gd35  1  0.76829384  0.75394707  0.30354168  1
  N  N36  1  0.23430397  0.18788982  0.38655217  1
  N  N37  1  0.09440525  0.11945508  0.04850475  1
  N  N38  1  0.90149853  0.22377104  0.80492432  1
  N  N39  1  0.77298158  0.09523091  0.59959022  1
  N  N40  1  0.52208091  0.22369296  0.37549352  1
  N  N41  1  0.44024834  0.09099029  0.12369496  1
  N  N42  1  0.22386845  0.20801200  0.85820730  1
  N  N43  1  0.10686881  0.09229124  0.57516137  1
  N  N44  1  0.91046261  0.22077125  0.30527011  1
  N  N45  1  0.77694716  0.09488393  0.08871098  1
  N  N46  1  0.51185913  0.22731286  0.88577501  1
  N  N47  1  0.44539218  0.09538904  0.62653160  1
  N  N48  1  0.25166162  0.54726869  0.39715026  1
  N  N49  1  0.11178180  0.42753529  0.08882420  1
  N  N50  1  0.89001548  0.53848468  0.85560002  1
  N  N51  1  0.76872775  0.42200213  0.56898994  1
  N  N52  1  0.56515149  0.54653714  0.31454882  1
  N  N53  1  0.43770097  0.43074769  0.12633834  1
  N  N54  1  0.22232109  0.54041500  0.86394088  1
  N  N55  1  0.11277398  0.42662746  0.62220678  1
  N  N56  1  0.89023006  0.52630974  0.39198074  1
  N  N57  1  0.77511275  0.42976020  0.05760175  1
  N  N58  1  0.55887086  0.53793293  0.81650469  1
  N  N59  1  0.44572420  0.41740482  0.63051580  1
  N  N60  1  0.22377559  0.87487361  0.34771354  1
  N  N61  1  0.09793215  0.74428517  0.11101987  1
  N  N62  1  0.90519811  0.84113862  0.86445600  1
  N  N63  1  0.77412606  0.75945393  0.62356029  1
  N  N64  1  0.53165176  0.88878794  0.38855728  1
  N  N65  1  0.47097409  0.74293516  0.05320681  1
  N  N66  1  0.22588813  0.87539284  0.81974066  1
  N  N67  1  0.11243108  0.75690135  0.62237199  1
  N  N68  1  0.91313450  0.84818709  0.39589838  1
  N  N69  1  0.77687502  0.76036344  0.08914757  1
  N  N70  1  0.55605323  0.88057894  0.85966071  1
  N  N71  1  0.44404869  0.75240231  0.57945318  1
