# generated using pymatgen
data_Gd5Al31N36
_symmetry_space_group_name_H-M   'P 1'
_cell_length_a   9.68212830
_cell_length_b   9.63496698
_cell_length_c   10.70165955
_cell_angle_alpha   90.91760384
_cell_angle_beta   91.28985888
_cell_angle_gamma   60.17677841
_symmetry_Int_Tables_number   1
_chemical_formula_structural   Gd5Al31N36
_chemical_formula_sum   'Gd5 Al31 N36'
_cell_volume   865.87845333
_cell_formula_units_Z   1
loop_
 _symmetry_equiv_pos_site_id
 _symmetry_equiv_pos_as_xyz
  1  'x, y, z'
loop_
 _atom_site_type_symbol
 _atom_site_label
 _atom_site_symmetry_multiplicity
 _atom_site_fract_x
 _atom_site_fract_y
 _atom_site_fract_z
 _atom_site_occupancy
  Al  Al0  1  0.11213366  0.08724789  0.40857809  1
  Al  Al1  1  0.22999781  0.21209290  0.05303247  1
  Al  Al2  1  0.89239912  0.21079522  0.63841506  1
  Al  Al3  1  0.43358545  0.09326957  0.32859926  1
  Al  Al4  1  0.55044464  0.20995362  0.07113714  1
  Al  Al5  1  0.10811922  0.09568990  0.88312627  1
  Al  Al6  1  0.22762238  0.20268487  0.58050040  1
  Al  Al7  1  0.89757558  0.21892176  0.13145516  1
  Al  Al8  1  0.43445636  0.09848000  0.81885002  1
  Al  Al9  1  0.54268393  0.21416472  0.56597479  1
  Al  Al10  1  0.22737912  0.54115404  0.12145965  1
  Al  Al11  1  0.77577013  0.42621761  0.88600799  1
  Al  Al12  1  0.88463303  0.53971400  0.58167579  1
  Al  Al13  1  0.44502095  0.43353378  0.31573593  1
  Al  Al14  1  0.57383222  0.53859422  0.13732756  1
  Al  Al15  1  0.10524452  0.42185629  0.81796518  1
  Al  Al16  1  0.21712287  0.54104147  0.64735439  1
  Al  Al17  1  0.77201407  0.42486556  0.40005595  1
  Al  Al18  1  0.89894905  0.54366712  0.04730914  1
  Al  Al19  1  0.43846736  0.42570992  0.82448108  1
  Al  Al20  1  0.55733858  0.53654100  0.64725574  1
  Al  Al21  1  0.12792833  0.75154606  0.41179845  1
  Al  Al22  1  0.77688881  0.75487733  0.81581223  1
  Al  Al23  1  0.88668845  0.86851269  0.57502578  1
  Al  Al24  1  0.43729140  0.75695688  0.41111101  1
  Al  Al25  1  0.56602714  0.87604646  0.05322738  1
  Al  Al26  1  0.12025935  0.75043732  0.88352941  1
  Al  Al27  1  0.22311842  0.87032716  0.64822570  1
  Al  Al28  1  0.88979977  0.86825811  0.05211847  1
  Al  Al29  1  0.44798454  0.75419320  0.88617116  1
  Al  Al30  1  0.55198199  0.87878750  0.58124254  1
  Gd  Gd31  1  0.76111947  0.09759743  0.82392890  1
  Gd  Gd32  1  0.77697034  0.09502711  0.33065340  1
  Gd  Gd33  1  0.10931848  0.41595104  0.32128638  1
  Gd  Gd34  1  0.23066183  0.87421732  0.14863917  1
  Gd  Gd35  1  0.76277230  0.75747351  0.31342045  1
  N  N36  1  0.23839273  0.18027567  0.40336697  1
  N  N37  1  0.10008040  0.11630967  0.06275205  1
  N  N38  1  0.90198745  0.22158477  0.81710381  1
  N  N39  1  0.77264888  0.09745322  0.60381051  1
  N  N40  1  0.51787343  0.22781194  0.38684776  1
  N  N41  1  0.44523178  0.08992299  0.13546414  1
  N  N42  1  0.22438646  0.20531153  0.87220879  1
  N  N43  1  0.10725233  0.08983025  0.58954324  1
  N  N44  1  0.91452994  0.22467287  0.31817447  1
  N  N45  1  0.78307209  0.09294116  0.10460532  1
  N  N46  1  0.51398595  0.22527858  0.89699073  1
  N  N47  1  0.44575845  0.09707347  0.63997705  1
  N  N48  1  0.23025854  0.56156106  0.32581711  1
  N  N49  1  0.11573914  0.42793825  0.10300080  1
  N  N50  1  0.88876282  0.53874969  0.86857190  1
  N  N51  1  0.76627953  0.42285277  0.58197303  1
  N  N52  1  0.56396017  0.54743270  0.32655332  1
  N  N53  1  0.45580864  0.42327992  0.13170754  1
  N  N54  1  0.21721157  0.53995405  0.82930371  1
  N  N55  1  0.10500240  0.42218268  0.63388032  1
  N  N56  1  0.87931044  0.53508028  0.40803466  1
  N  N57  1  0.78120550  0.42890349  0.07018549  1
  N  N58  1  0.55968024  0.53685820  0.82907218  1
  N  N59  1  0.44429953  0.41998980  0.63835570  1
  N  N60  1  0.22064252  0.87202415  0.36174091  1
  N  N61  1  0.11429023  0.74741897  0.06262301  1
  N  N62  1  0.89780059  0.84725990  0.87266790  1
  N  N63  1  0.77352002  0.76183583  0.63536407  1
  N  N64  1  0.52988434  0.88948574  0.40200908  1
  N  N65  1  0.47378240  0.74401430  0.06604967  1
  N  N66  1  0.22442626  0.87063953  0.83176133  1
  N  N67  1  0.11792034  0.75465334  0.59484657  1
  N  N68  1  0.90785880  0.85181911  0.39877798  1
  N  N69  1  0.78354191  0.76011931  0.10042056  1
  N  N70  1  0.55648636  0.87941630  0.87175836  1
  N  N71  1  0.44306107  0.75374580  0.59279018  1
