# generated using pymatgen
data_Gd5Al31N36
_symmetry_space_group_name_H-M   'P 1'
_cell_length_a   9.71551567
_cell_length_b   9.72873775
_cell_length_c   10.35212810
_cell_angle_alpha   90.05478399
_cell_angle_beta   90.52587566
_cell_angle_gamma   59.80381891
_symmetry_Int_Tables_number   1
_chemical_formula_structural   Gd5Al31N36
_chemical_formula_sum   'Gd5 Al31 N36'
_cell_volume   845.66528028
_cell_formula_units_Z   1
loop_
 _symmetry_equiv_pos_site_id
 _symmetry_equiv_pos_as_xyz
  1  'x, y, z'
loop_
 _atom_site_type_symbol
 _atom_site_label
 _atom_site_symmetry_multiplicity
 _atom_site_fract_x
 _atom_site_fract_y
 _atom_site_fract_z
 _atom_site_occupancy
  Al  Al0  1  0.11306510  0.09962653  0.31344052  1
  Al  Al1  1  0.22117573  0.21105834  0.05217087  1
  Al  Al2  1  0.89387781  0.20776397  0.55699152  1
  Al  Al3  1  0.43162664  0.09364735  0.31469944  1
  Al  Al4  1  0.54584749  0.21038016  0.05880832  1
  Al  Al5  1  0.11255744  0.10570230  0.81063974  1
  Al  Al6  1  0.22388073  0.20160417  0.56553435  1
  Al  Al7  1  0.89062985  0.22038956  0.05970317  1
  Al  Al8  1  0.43799688  0.09974557  0.80738352  1
  Al  Al9  1  0.54389027  0.21045104  0.55569122  1
  Al  Al10  1  0.22161927  0.53450538  0.05240048  1
  Al  Al11  1  0.78200228  0.42830303  0.80716954  1
  Al  Al12  1  0.88727712  0.53557613  0.57023041  1
  Al  Al13  1  0.44194149  0.43778078  0.31288248  1
  Al  Al14  1  0.56554702  0.52787301  0.05574626  1
  Al  Al15  1  0.11375575  0.42696421  0.81059374  1
  Al  Al16  1  0.22797896  0.54156067  0.56612266  1
  Al  Al17  1  0.77396031  0.42965719  0.31436647  1
  Al  Al18  1  0.88765287  0.53817802  0.04355776  1
  Al  Al19  1  0.44067173  0.42833251  0.80958547  1
  Al  Al20  1  0.56109090  0.52719698  0.56604795  1
  Al  Al21  1  0.11887748  0.75575342  0.31467176  1
  Al  Al22  1  0.78139970  0.75580472  0.80596983  1
  Al  Al23  1  0.89638408  0.86528168  0.56179705  1
  Al  Al24  1  0.42545431  0.76760731  0.39184803  1
  Al  Al25  1  0.56206860  0.87741584  0.04233988  1
  Al  Al26  1  0.11418341  0.74854642  0.80941074  1
  Al  Al27  1  0.22584465  0.86953607  0.63489876  1
  Al  Al28  1  0.89220927  0.85808508  0.04958296  1
  Al  Al29  1  0.45551457  0.75287583  0.86357961  1
  Al  Al30  1  0.55176948  0.87868894  0.57218809  1
  Gd  Gd31  1  0.77572909  0.09971391  0.81602817  1
  Gd  Gd32  1  0.77623942  0.09637322  0.31434480  1
  Gd  Gd33  1  0.11678155  0.42844457  0.31167354  1
  Gd  Gd34  1  0.21867766  0.87439893  0.08693591  1
  Gd  Gd35  1  0.76335440  0.76058429  0.30761063  1
  N  N36  1  0.22937839  0.18357363  0.38479887  1
  N  N37  1  0.09695298  0.13473064  0.12877652  1
  N  N38  1  0.90782966  0.22236418  0.87787386  1
  N  N39  1  0.77520351  0.09653489  0.58847862  1
  N  N40  1  0.51582278  0.22424019  0.37183934  1
  N  N41  1  0.44431717  0.09134406  0.12105676  1
  N  N42  1  0.22538485  0.20413655  0.86619192  1
  N  N43  1  0.10914211  0.09774077  0.62559773  1
  N  N44  1  0.90283569  0.21872799  0.37531976  1
  N  N45  1  0.78181734  0.09277673  0.08463940  1
  N  N46  1  0.52150948  0.22152016  0.87756336  1
  N  N47  1  0.44301235  0.09831590  0.62452170  1
  N  N48  1  0.24146380  0.55531297  0.38604260  1
  N  N49  1  0.11003529  0.42857582  0.08951380  1
  N  N50  1  0.88859288  0.53781582  0.85759111  1
  N  N51  1  0.77893684  0.42260626  0.62427618  1
  N  N52  1  0.55908274  0.53401453  0.37543242  1
  N  N53  1  0.44377902  0.43096960  0.12173152  1
  N  N54  1  0.22639244  0.53729542  0.86657195  1
  N  N55  1  0.11478840  0.42742122  0.61896126  1
  N  N56  1  0.87604391  0.52604105  0.39056707  1
  N  N57  1  0.77640060  0.43361710  0.12348487  1
  N  N58  1  0.56526913  0.52155632  0.86476726  1
  N  N59  1  0.44782637  0.42385374  0.62480598  1
  N  N60  1  0.22111964  0.87484826  0.32229891  1
  N  N61  1  0.09476305  0.73649620  0.12873035  1
  N  N62  1  0.90666217  0.84225514  0.86758343  1
  N  N63  1  0.77759298  0.76151265  0.61872756  1
  N  N64  1  0.52491988  0.89051934  0.38843421  1
  N  N65  1  0.47427643  0.74734566  0.05391719  1
  N  N66  1  0.22542934  0.87074440  0.83353451  1
  N  N67  1  0.11187932  0.75783692  0.62684877  1
  N  N68  1  0.91710583  0.84925935  0.38357690  1
  N  N69  1  0.77610121  0.75861086  0.08909164  1
  N  N70  1  0.55910254  0.87896875  0.85386497  1
  N  N71  1  0.44181913  0.75655216  0.58779183  1
