# generated using pymatgen
data_Gd5Al31N36
_symmetry_space_group_name_H-M   'P 1'
_cell_length_a   9.67432396
_cell_length_b   9.63790131
_cell_length_c   10.65346828
_cell_angle_alpha   91.06469274
_cell_angle_beta   91.36657301
_cell_angle_gamma   60.15334499
_symmetry_Int_Tables_number   1
_chemical_formula_structural   Gd5Al31N36
_chemical_formula_sum   'Gd5 Al31 N36'
_cell_volume   861.30545637
_cell_formula_units_Z   1
loop_
 _symmetry_equiv_pos_site_id
 _symmetry_equiv_pos_as_xyz
  1  'x, y, z'
loop_
 _atom_site_type_symbol
 _atom_site_label
 _atom_site_symmetry_multiplicity
 _atom_site_fract_x
 _atom_site_fract_y
 _atom_site_fract_z
 _atom_site_occupancy
  Al  Al0  1  0.11517782  0.08454402  0.41008013  1
  Al  Al1  1  0.22673137  0.21579867  0.05245422  1
  Al  Al2  1  0.89358799  0.21068785  0.63769637  1
  Al  Al3  1  0.43414794  0.08861943  0.32467434  1
  Al  Al4  1  0.55119759  0.20546905  0.07587436  1
  Al  Al5  1  0.10571791  0.09612486  0.88239173  1
  Al  Al6  1  0.22952261  0.20180191  0.58208546  1
  Al  Al7  1  0.89600497  0.22117075  0.13274802  1
  Al  Al8  1  0.43315633  0.09856013  0.81878027  1
  Al  Al9  1  0.54354925  0.21127844  0.55907828  1
  Al  Al10  1  0.22437581  0.54805755  0.13280203  1
  Al  Al11  1  0.77487254  0.42538728  0.88547409  1
  Al  Al12  1  0.88594419  0.53952147  0.58359755  1
  Al  Al13  1  0.44085589  0.43980711  0.36660514  1
  Al  Al14  1  0.56943942  0.53928932  0.13562623  1
  Al  Al15  1  0.10720647  0.42270619  0.81658062  1
  Al  Al16  1  0.22984027  0.53616275  0.64819329  1
  Al  Al17  1  0.77284598  0.42388450  0.40167373  1
  Al  Al18  1  0.89852434  0.54486632  0.04702934  1
  Al  Al19  1  0.43183015  0.43801127  0.90002617  1
  Al  Al20  1  0.55318817  0.53272865  0.64730140  1
  Al  Al21  1  0.13084267  0.74781565  0.40819838  1
  Al  Al22  1  0.77733171  0.75539738  0.81637234  1
  Al  Al23  1  0.89138754  0.86362704  0.57255263  1
  Al  Al24  1  0.43932314  0.75607962  0.41273700  1
  Al  Al25  1  0.56440344  0.87713627  0.05074378  1
  Al  Al26  1  0.11858260  0.75150686  0.88447407  1
  Al  Al27  1  0.22437632  0.86810129  0.64798616  1
  Al  Al28  1  0.88698611  0.87344261  0.05225581  1
  Al  Al29  1  0.44719904  0.75383501  0.88382847  1
  Al  Al30  1  0.55467956  0.87767900  0.58240120  1
  Gd  Gd31  1  0.75361501  0.09989382  0.81620135  1
  Gd  Gd32  1  0.78269063  0.09293197  0.33558061  1
  Gd  Gd33  1  0.10914434  0.41230697  0.32384005  1
  Gd  Gd34  1  0.23015085  0.87749041  0.14722547  1
  Gd  Gd35  1  0.76345654  0.75535696  0.31037863  1
  N  N36  1  0.24162770  0.17665329  0.40443658  1
  N  N37  1  0.09751865  0.11942764  0.06216949  1
  N  N38  1  0.89877501  0.21985238  0.81700654  1
  N  N39  1  0.77431488  0.09682094  0.59567881  1
  N  N40  1  0.52096647  0.21903198  0.37735089  1
  N  N41  1  0.44169369  0.08964901  0.13490701  1
  N  N42  1  0.22209209  0.20634211  0.87066425  1
  N  N43  1  0.10930753  0.08849340  0.59113923  1
  N  N44  1  0.91864828  0.22482212  0.31961657  1
  N  N45  1  0.78085603  0.09598596  0.11021286  1
  N  N46  1  0.51521050  0.21692705  0.90027956  1
  N  N47  1  0.44892037  0.09821557  0.63953110  1
  N  N48  1  0.23352373  0.56069783  0.31360709  1
  N  N49  1  0.11368277  0.43079896  0.10620753  1
  N  N50  1  0.88912511  0.53808754  0.86707978  1
  N  N51  1  0.76680464  0.42351550  0.58461700  1
  N  N52  1  0.56292996  0.54155682  0.32587989  1
  N  N53  1  0.44608865  0.43839003  0.08786911  1
  N  N54  1  0.22502122  0.53756536  0.82907671  1
  N  N55  1  0.10874159  0.42238757  0.63302332  1
  N  N56  1  0.87808168  0.53548390  0.40889680  1
  N  N57  1  0.77982544  0.43102176  0.07084275  1
  N  N58  1  0.55472448  0.53097847  0.83051548  1
  N  N59  1  0.43855333  0.43392743  0.58326765  1
  N  N60  1  0.22322604  0.86943160  0.36179979  1
  N  N61  1  0.11054590  0.75152058  0.06452980  1
  N  N62  1  0.89604144  0.85125333  0.87166309  1
  N  N63  1  0.77601182  0.76209380  0.63545465  1
  N  N64  1  0.53223941  0.88675153  0.40172520  1
  N  N65  1  0.47331819  0.74567037  0.06527291  1
  N  N66  1  0.22318355  0.87053533  0.83202703  1
  N  N67  1  0.12148068  0.75082947  0.59226212  1
  N  N68  1  0.91194163  0.84527984  0.39521432  1
  N  N69  1  0.78167047  0.76301140  0.09701591  1
  N  N70  1  0.55519473  0.87815079  0.86863744  1
  N  N71  1  0.44575814  0.75385057  0.59553869  1
