# generated using pymatgen
data_Gd5Al31N36
_symmetry_space_group_name_H-M   'P 1'
_cell_length_a   9.67796382
_cell_length_b   9.64001180
_cell_length_c   10.66571575
_cell_angle_alpha   90.83984302
_cell_angle_beta   91.23890902
_cell_angle_gamma   60.22697061
_symmetry_Int_Tables_number   1
_chemical_formula_structural   Gd5Al31N36
_chemical_formula_sum   'Gd5 Al31 N36'
_cell_volume   863.50522063
_cell_formula_units_Z   1
loop_
 _symmetry_equiv_pos_site_id
 _symmetry_equiv_pos_as_xyz
  1  'x, y, z'
loop_
 _atom_site_type_symbol
 _atom_site_label
 _atom_site_symmetry_multiplicity
 _atom_site_fract_x
 _atom_site_fract_y
 _atom_site_fract_z
 _atom_site_occupancy
  Al  Al0  1  0.11160364  0.08957771  0.40674011  1
  Al  Al1  1  0.22978761  0.21012218  0.05360373  1
  Al  Al2  1  0.89217038  0.21112260  0.63785828  1
  Al  Al3  1  0.43314049  0.09315054  0.32836476  1
  Al  Al4  1  0.54995152  0.20946119  0.07287487  1
  Al  Al5  1  0.10780772  0.09670485  0.88329525  1
  Al  Al6  1  0.22728787  0.20406669  0.57951627  1
  Al  Al7  1  0.89732791  0.21902081  0.13187100  1
  Al  Al8  1  0.43439938  0.09835344  0.81893691  1
  Al  Al9  1  0.54306756  0.21335935  0.56505637  1
  Al  Al10  1  0.23328578  0.52830980  0.05854821  1
  Al  Al11  1  0.77589904  0.42636844  0.88569720  1
  Al  Al12  1  0.88532538  0.53978965  0.58101456  1
  Al  Al13  1  0.43975588  0.43608904  0.31770595  1
  Al  Al14  1  0.57235321  0.53880242  0.13741034  1
  Al  Al15  1  0.10645625  0.42238305  0.81850737  1
  Al  Al16  1  0.22212509  0.53666143  0.61824066  1
  Al  Al17  1  0.77318047  0.42453356  0.39839769  1
  Al  Al18  1  0.89802104  0.54349464  0.04750378  1
  Al  Al19  1  0.43898702  0.42506515  0.82318696  1
  Al  Al20  1  0.55773015  0.53687085  0.64742275  1
  Al  Al21  1  0.12684307  0.75650451  0.41944450  1
  Al  Al22  1  0.77601397  0.75485660  0.81539307  1
  Al  Al23  1  0.88465573  0.86983169  0.57772487  1
  Al  Al24  1  0.43638704  0.75555022  0.41064633  1
  Al  Al25  1  0.56575784  0.87585327  0.05364599  1
  Al  Al26  1  0.11680607  0.75721157  0.87828432  1
  Al  Al27  1  0.22279148  0.87282782  0.64970667  1
  Al  Al28  1  0.88957015  0.86789181  0.05211643  1
  Al  Al29  1  0.44849331  0.75417941  0.88620488  1
  Al  Al30  1  0.55088533  0.87882524  0.58094220  1
  Gd  Gd31  1  0.76023213  0.09907358  0.82497494  1
  Gd  Gd32  1  0.77809269  0.09325667  0.33075404  1
  Gd  Gd33  1  0.11592171  0.42348901  0.31874660  1
  Gd  Gd34  1  0.22991872  0.87206574  0.14765738  1
  Gd  Gd35  1  0.76256411  0.75722808  0.31474232  1
  N  N36  1  0.23602807  0.18476255  0.40128431  1
  N  N37  1  0.09961178  0.11570266  0.06321994  1
  N  N38  1  0.90202766  0.22193504  0.81690733  1
  N  N39  1  0.77159346  0.09855649  0.60406707  1
  N  N40  1  0.52051462  0.22476738  0.38504332  1
  N  N41  1  0.44497152  0.08925605  0.13544923  1
  N  N42  1  0.22452909  0.20503954  0.87194774  1
  N  N43  1  0.10726595  0.09126174  0.58880813  1
  N  N44  1  0.91326866  0.22422414  0.31795547  1
  N  N45  1  0.78219924  0.09328884  0.10424080  1
  N  N46  1  0.51379033  0.22507539  0.89798313  1
  N  N47  1  0.44541455  0.09718826  0.63941485  1
  N  N48  1  0.24326645  0.54768641  0.38448870  1
  N  N49  1  0.11673378  0.42771164  0.09926036  1
  N  N50  1  0.88869238  0.53906288  0.86811094  1
  N  N51  1  0.76631864  0.42338159  0.58135267  1
  N  N52  1  0.56396449  0.54686931  0.32480125  1
  N  N53  1  0.44654191  0.42781545  0.13149001  1
  N  N54  1  0.22248605  0.53502415  0.85654391  1
  N  N55  1  0.10661301  0.42423023  0.63656909  1
  N  N56  1  0.88352068  0.53230717  0.40646077  1
  N  N57  1  0.78030741  0.42868271  0.07011605  1
  N  N58  1  0.55986089  0.53705130  0.82911036  1
  N  N59  1  0.44508904  0.41841444  0.64169322  1
  N  N60  1  0.21930196  0.87263634  0.36132435  1
  N  N61  1  0.11210966  0.74890475  0.06234791  1
  N  N62  1  0.89607559  0.84821233  0.87127122  1
  N  N63  1  0.77220384  0.76161949  0.63470595  1
  N  N64  1  0.52811112  0.88920342  0.40166908  1
  N  N65  1  0.47369688  0.74370611  0.06595407  1
  N  N66  1  0.22527803  0.87260594  0.83243547  1
  N  N67  1  0.11294373  0.76074812  0.60545000  1
  N  N68  1  0.90887260  0.85035194  0.40083794  1
  N  N69  1  0.78329322  0.75981744  0.10098607  1
  N  N70  1  0.55641936  0.87947331  0.87158534  1
  N  N71  1  0.44202153  0.75355869  0.59297409  1
