# generated using pymatgen
data_Gd5Al31N36
_symmetry_space_group_name_H-M   'P 1'
_cell_length_a   9.67831230
_cell_length_b   9.66498848
_cell_length_c   10.61859004
_cell_angle_alpha   90.80892821
_cell_angle_beta   90.37760959
_cell_angle_gamma   60.01507831
_symmetry_Int_Tables_number   1
_chemical_formula_structural   Gd5Al31N36
_chemical_formula_sum   'Gd5 Al31 N36'
_cell_volume   860.24285934
_cell_formula_units_Z   1
loop_
 _symmetry_equiv_pos_site_id
 _symmetry_equiv_pos_as_xyz
  1  'x, y, z'
loop_
 _atom_site_type_symbol
 _atom_site_label
 _atom_site_symmetry_multiplicity
 _atom_site_fract_x
 _atom_site_fract_y
 _atom_site_fract_z
 _atom_site_occupancy
  Al  Al0  1  0.11257489  0.08587090  0.41792679  1
  Al  Al1  1  0.22668458  0.21458216  0.06666067  1
  Al  Al2  1  0.89228700  0.20944664  0.65905175  1
  Al  Al3  1  0.43121950  0.08680882  0.33084685  1
  Al  Al4  1  0.54802907  0.21159300  0.15378577  1
  Al  Al5  1  0.11191560  0.09811955  0.89511413  1
  Al  Al6  1  0.22816784  0.19807548  0.58955399  1
  Al  Al7  1  0.89449080  0.21881797  0.15196933  1
  Al  Al8  1  0.43510292  0.09231838  0.82494788  1
  Al  Al9  1  0.54474928  0.21416095  0.65633053  1
  Al  Al10  1  0.22872301  0.54412195  0.14338735  1
  Al  Al11  1  0.77549194  0.43154981  0.89716424  1
  Al  Al12  1  0.88611249  0.53634352  0.59208024  1
  Al  Al13  1  0.43742474  0.43868871  0.39573374  1
  Al  Al14  1  0.56698658  0.53467681  0.14706135  1
  Al  Al15  1  0.11029205  0.42283990  0.82678185  1
  Al  Al16  1  0.22869080  0.53589164  0.65401623  1
  Al  Al17  1  0.77294986  0.42593707  0.40841730  1
  Al  Al18  1  0.90005713  0.54151050  0.06224641  1
  Al  Al19  1  0.43534400  0.43384058  0.90153226  1
  Al  Al20  1  0.55465307  0.53240173  0.65328568  1
  Al  Al21  1  0.12235975  0.75832291  0.41863131  1
  Al  Al22  1  0.77579746  0.75426405  0.82585944  1
  Al  Al23  1  0.89374843  0.86544657  0.63935931  1
  Al  Al24  1  0.43852351  0.75489871  0.41767722  1
  Al  Al25  1  0.56304202  0.87436375  0.06280763  1
  Al  Al26  1  0.11717434  0.75113194  0.89009313  1
  Al  Al27  1  0.22462370  0.86826401  0.65694474  1
  Al  Al28  1  0.89075254  0.86972678  0.09582283  1
  Al  Al29  1  0.44772949  0.75281647  0.89401747  1
  Al  Al30  1  0.55360799  0.87362166  0.58751263  1
  Gd  Gd31  1  0.77169608  0.10634738  0.88739753  1
  Gd  Gd32  1  0.76817025  0.11345070  0.40675288  1
  Gd  Gd33  1  0.11522219  0.41585853  0.33861578  1
  Gd  Gd34  1  0.22714151  0.87521574  0.15613153  1
  Gd  Gd35  1  0.76779298  0.76064630  0.32635281  1
  N  N36  1  0.23939791  0.17742695  0.41242425  1
  N  N37  1  0.09663536  0.11852439  0.07560651  1
  N  N38  1  0.90667517  0.22652384  0.83238421  1
  N  N39  1  0.77292196  0.09707021  0.62992029  1
  N  N40  1  0.51463146  0.22857612  0.33103023  1
  N  N41  1  0.43873545  0.08402734  0.13923067  1
  N  N42  1  0.22750888  0.20868056  0.88585842  1
  N  N43  1  0.10542107  0.08740045  0.60049562  1
  N  N44  1  0.91396875  0.22168522  0.33228419  1
  N  N45  1  0.77794941  0.09566841  0.11482486  1
  N  N46  1  0.51992858  0.22958266  0.83431076  1
  N  N47  1  0.44124610  0.08719915  0.64605018  1
  N  N48  1  0.23596069  0.56646114  0.32651386  1
  N  N49  1  0.11455347  0.43009047  0.12142112  1
  N  N50  1  0.89222964  0.54043854  0.88211327  1
  N  N51  1  0.76870598  0.41750559  0.59283481  1
  N  N52  1  0.56090607  0.53784824  0.33794383  1
  N  N53  1  0.44856439  0.42742128  0.08535453  1
  N  N54  1  0.22730972  0.53810599  0.83518852  1
  N  N55  1  0.10962706  0.42047925  0.64169534  1
  N  N56  1  0.87910300  0.53522162  0.41731107  1
  N  N57  1  0.77934867  0.42794864  0.08360936  1
  N  N58  1  0.55698631  0.53280076  0.83671247  1
  N  N59  1  0.44213503  0.42514565  0.58279346  1
  N  N60  1  0.22388924  0.87159880  0.36980130  1
  N  N61  1  0.10717047  0.74753348  0.07056998  1
  N  N62  1  0.90357319  0.84908707  0.84175910  1
  N  N63  1  0.77106005  0.75586432  0.64435208  1
  N  N64  1  0.52995494  0.88677463  0.40770777  1
  N  N65  1  0.47290963  0.74052724  0.07570586  1
  N  N66  1  0.22447970  0.87215967  0.84275544  1
  N  N67  1  0.12063928  0.75129366  0.60240344  1
  N  N68  1  0.90771887  0.86189751  0.39601754  1
  N  N69  1  0.78070563  0.76166197  0.10929179  1
  N  N70  1  0.55673794  0.87747033  0.88218112  1
  N  N71  1  0.44458359  0.75011255  0.60103047  1
