# generated using pymatgen
data_Gd5Al31N36
_symmetry_space_group_name_H-M   'P 1'
_cell_length_a   9.69662146
_cell_length_b   9.66089443
_cell_length_c   10.57821128
_cell_angle_alpha   90.67985213
_cell_angle_beta   90.56220211
_cell_angle_gamma   60.01048538
_symmetry_Int_Tables_number   1
_chemical_formula_structural   Gd5Al31N36
_chemical_formula_sum   'Gd5 Al31 N36'
_cell_volume   858.20608267
_cell_formula_units_Z   1
loop_
 _symmetry_equiv_pos_site_id
 _symmetry_equiv_pos_as_xyz
  1  'x, y, z'
loop_
 _atom_site_type_symbol
 _atom_site_label
 _atom_site_symmetry_multiplicity
 _atom_site_fract_x
 _atom_site_fract_y
 _atom_site_fract_z
 _atom_site_occupancy
  Al  Al0  1  0.12137716  0.07841469  0.39883024  1
  Al  Al1  1  0.22764677  0.21520337  0.04064140  1
  Al  Al2  1  0.88210875  0.21349900  0.55923761  1
  Al  Al3  1  0.43346672  0.09051266  0.31275782  1
  Al  Al4  1  0.54468114  0.21233807  0.05564273  1
  Al  Al5  1  0.11308650  0.09886187  0.86853569  1
  Al  Al6  1  0.22708333  0.20622044  0.56962464  1
  Al  Al7  1  0.88120335  0.22125868  0.04547256  1
  Al  Al8  1  0.43716843  0.09899243  0.80371881  1
  Al  Al9  1  0.54397646  0.21078976  0.55188965  1
  Al  Al10  1  0.22026682  0.53922661  0.05182073  1
  Al  Al11  1  0.78354409  0.43056152  0.80168221  1
  Al  Al12  1  0.88732136  0.53692595  0.56667281  1
  Al  Al13  1  0.43976565  0.43354607  0.31058063  1
  Al  Al14  1  0.56226478  0.54043738  0.12815838  1
  Al  Al15  1  0.11173062  0.43072848  0.80587628  1
  Al  Al16  1  0.22585831  0.54329829  0.56453638  1
  Al  Al17  1  0.78616443  0.42176947  0.31259691  1
  Al  Al18  1  0.89031020  0.53647839  0.04064233  1
  Al  Al19  1  0.43382545  0.42972652  0.80944049  1
  Al  Al20  1  0.55147456  0.54086485  0.63198556  1
  Al  Al21  1  0.11729866  0.75288625  0.31827941  1
  Al  Al22  1  0.78047426  0.75581260  0.80547264  1
  Al  Al23  1  0.89596468  0.86593391  0.56043240  1
  Al  Al24  1  0.43558186  0.75425039  0.39429949  1
  Al  Al25  1  0.56595199  0.87560466  0.04009307  1
  Al  Al26  1  0.11406013  0.75221128  0.80860340  1
  Al  Al27  1  0.22485016  0.87461894  0.63805083  1
  Al  Al28  1  0.89430036  0.86045831  0.04689681  1
  Al  Al29  1  0.45269210  0.75173834  0.87215558  1
  Al  Al30  1  0.55373132  0.87758831  0.56656101  1
  Gd  Gd31  1  0.76805570  0.09598213  0.80840986  1
  Gd  Gd32  1  0.77861653  0.09395230  0.30730776  1
  Gd  Gd33  1  0.11987489  0.42127198  0.30754383  1
  Gd  Gd34  1  0.23094691  0.87740465  0.11912447  1
  Gd  Gd35  1  0.76672147  0.75624673  0.30302519  1
  N  N36  1  0.23499435  0.18315052  0.38751616  1
  N  N37  1  0.10216605  0.12108869  0.05441899  1
  N  N38  1  0.89045223  0.22604545  0.86378775  1
  N  N39  1  0.77148888  0.09749345  0.58789454  1
  N  N40  1  0.52028715  0.22148348  0.37070193  1
  N  N41  1  0.44279823  0.09058586  0.11970558  1
  N  N42  1  0.22463373  0.21072147  0.85540220  1
  N  N43  1  0.11119742  0.09001883  0.58554826  1
  N  N44  1  0.90062486  0.21652016  0.37797523  1
  N  N45  1  0.77777589  0.09539383  0.08221160  1
  N  N46  1  0.51740618  0.22481107  0.87842706  1
  N  N47  1  0.44634083  0.09598948  0.62379157  1
  N  N48  1  0.24193356  0.55214555  0.38675670  1
  N  N49  1  0.11120429  0.42897162  0.08959515  1
  N  N50  1  0.88917625  0.53816187  0.85819241  1
  N  N51  1  0.77944490  0.42692446  0.62071095  1
  N  N52  1  0.55693504  0.54548360  0.31668531  1
  N  N53  1  0.43848939  0.42922643  0.12235445  1
  N  N54  1  0.22280534  0.54200637  0.86859306  1
  N  N55  1  0.11225260  0.43117310  0.61915091  1
  N  N56  1  0.88062044  0.52419495  0.39050400  1
  N  N57  1  0.78941574  0.42619132  0.12319319  1
  N  N58  1  0.55507475  0.53892723  0.81572409  1
  N  N59  1  0.44152463  0.42181826  0.62427485  1
  N  N60  1  0.22344554  0.87119835  0.33496808  1
  N  N61  1  0.09492072  0.74365516  0.13139706  1
  N  N62  1  0.90764388  0.84160819  0.86887512  1
  N  N63  1  0.77661751  0.76256036  0.62012354  1
  N  N64  1  0.52920895  0.88676988  0.38570152  1
  N  N65  1  0.48049907  0.73810922  0.05120181  1
  N  N66  1  0.22733307  0.87360193  0.82623816  1
  N  N67  1  0.11008634  0.75949163  0.62804808  1
  N  N68  1  0.91552619  0.84971057  0.38518312  1
  N  N69  1  0.77864067  0.75872797  0.08847416  1
  N  N70  1  0.55801996  0.88029409  0.85687873  1
  N  N71  1  0.44066050  0.75566554  0.57765459  1
