# generated using pymatgen
data_Gd5Al31N36
_symmetry_space_group_name_H-M   'P 1'
_cell_length_a   9.67235907
_cell_length_b   9.63897436
_cell_length_c   10.65152473
_cell_angle_alpha   91.07605099
_cell_angle_beta   91.35714355
_cell_angle_gamma   60.15274244
_symmetry_Int_Tables_number   1
_chemical_formula_structural   Gd5Al31N36
_chemical_formula_sum   'Gd5 Al31 N36'
_cell_volume   861.06525687
_cell_formula_units_Z   1
loop_
 _symmetry_equiv_pos_site_id
 _symmetry_equiv_pos_as_xyz
  1  'x, y, z'
loop_
 _atom_site_type_symbol
 _atom_site_label
 _atom_site_symmetry_multiplicity
 _atom_site_fract_x
 _atom_site_fract_y
 _atom_site_fract_z
 _atom_site_occupancy
  Al  Al0  1  0.11494972  0.08465997  0.40990276  1
  Al  Al1  1  0.22673274  0.21595730  0.05243359  1
  Al  Al2  1  0.89353044  0.21077695  0.63783728  1
  Al  Al3  1  0.43419041  0.08871159  0.32473056  1
  Al  Al4  1  0.55086707  0.20590114  0.07561795  1
  Al  Al5  1  0.10582378  0.09618791  0.88238701  1
  Al  Al6  1  0.22939165  0.20177868  0.58190199  1
  Al  Al7  1  0.89594377  0.22140707  0.13262961  1
  Al  Al8  1  0.43328467  0.09831063  0.81881604  1
  Al  Al9  1  0.54430846  0.20965178  0.55920180  1
  Al  Al10  1  0.22570571  0.54755303  0.13373697  1
  Al  Al11  1  0.77471590  0.42549532  0.88541894  1
  Al  Al12  1  0.88598177  0.53954045  0.58343781  1
  Al  Al13  1  0.43954216  0.44094786  0.37612588  1
  Al  Al14  1  0.56870780  0.53888693  0.13638108  1
  Al  Al15  1  0.10749891  0.42267416  0.81637453  1
  Al  Al16  1  0.22954235  0.53652290  0.64729921  1
  Al  Al17  1  0.77271482  0.42402370  0.40143108  1
  Al  Al18  1  0.89860144  0.54482440  0.04708215  1
  Al  Al19  1  0.43185696  0.43800310  0.90035336  1
  Al  Al20  1  0.55327825  0.53319305  0.64669926  1
  Al  Al21  1  0.13036996  0.74827570  0.40776896  1
  Al  Al22  1  0.77742943  0.75524082  0.81637239  1
  Al  Al23  1  0.89123057  0.86383570  0.57254895  1
  Al  Al24  1  0.43927047  0.75620235  0.41239998  1
  Al  Al25  1  0.56438714  0.87700578  0.05072640  1
  Al  Al26  1  0.11904892  0.75095254  0.88448623  1
  Al  Al27  1  0.22422021  0.86830012  0.64797002  1
  Al  Al28  1  0.88729171  0.87305316  0.05231602  1
  Al  Al29  1  0.44727176  0.75348922  0.88375792  1
  Al  Al30  1  0.55465684  0.87763609  0.58230738  1
  Gd  Gd31  1  0.75443861  0.09947218  0.81703149  1
  Gd  Gd32  1  0.78200952  0.09344959  0.33489160  1
  Gd  Gd33  1  0.10932354  0.41224128  0.32366971  1
  Gd  Gd34  1  0.23012090  0.87759092  0.14700377  1
  Gd  Gd35  1  0.76346676  0.75538114  0.31035647  1
  N  N36  1  0.24149522  0.17664103  0.40434496  1
  N  N37  1  0.09751978  0.11958087  0.06211649  1
  N  N38  1  0.89894563  0.22002121  0.81706128  1
  N  N39  1  0.77415386  0.09698032  0.59640460  1
  N  N40  1  0.52112769  0.21841464  0.37809764  1
  N  N41  1  0.44171558  0.08975814  0.13478952  1
  N  N42  1  0.22214735  0.20639440  0.87056545  1
  N  N43  1  0.10919863  0.08854878  0.59109679  1
  N  N44  1  0.91849727  0.22491407  0.31949854  1
  N  N45  1  0.78079952  0.09606351  0.10974183  1
  N  N46  1  0.51538150  0.21672430  0.89975060  1
  N  N47  1  0.44872975  0.09830374  0.63960806  1
  N  N48  1  0.23457493  0.55991236  0.31473526  1
  N  N49  1  0.11396816  0.43096727  0.10621115  1
  N  N50  1  0.88928255  0.53796500  0.86702584  1
  N  N51  1  0.76687371  0.42346051  0.58453423  1
  N  N52  1  0.56219899  0.54108382  0.32690376  1
  N  N53  1  0.44581866  0.43893877  0.08584908  1
  N  N54  1  0.22583773  0.53724431  0.82796209  1
  N  N55  1  0.10891912  0.42239786  0.63271873  1
  N  N56  1  0.87812901  0.53550666  0.40878962  1
  N  N57  1  0.77940437  0.43127983  0.07091549  1
  N  N58  1  0.55456385  0.53055697  0.82956305  1
  N  N59  1  0.43793955  0.43536926  0.57830269  1
  N  N60  1  0.22307083  0.86963075  0.36156412  1
  N  N61  1  0.11092013  0.75092221  0.06472483  1
  N  N62  1  0.89653917  0.85061497  0.87169364  1
  N  N63  1  0.77599469  0.76209933  0.63540770  1
  N  N64  1  0.53218283  0.88677639  0.40166447  1
  N  N65  1  0.47349615  0.74530922  0.06529132  1
  N  N66  1  0.22317605  0.87050216  0.83205483  1
  N  N67  1  0.12132511  0.75114343  0.59203057  1
  N  N68  1  0.91146957  0.84592278  0.39518146  1
  N  N69  1  0.78165237  0.76300765  0.09698655  1
  N  N70  1  0.55521237  0.87789077  0.86854612  1
  N  N71  1  0.44556554  0.75410783  0.59542719  1
