# generated using pymatgen
data_Gd5Al31N36
_symmetry_space_group_name_H-M   'P 1'
_cell_length_a   9.67522761
_cell_length_b   9.67391284
_cell_length_c   10.62468366
_cell_angle_alpha   91.00861697
_cell_angle_beta   90.39361077
_cell_angle_gamma   60.00927876
_symmetry_Int_Tables_number   1
_chemical_formula_structural   Gd5Al31N36
_chemical_formula_sum   'Gd5 Al31 N36'
_cell_volume   861.15678249
_cell_formula_units_Z   1
loop_
 _symmetry_equiv_pos_site_id
 _symmetry_equiv_pos_as_xyz
  1  'x, y, z'
loop_
 _atom_site_type_symbol
 _atom_site_label
 _atom_site_symmetry_multiplicity
 _atom_site_fract_x
 _atom_site_fract_y
 _atom_site_fract_z
 _atom_site_occupancy
  Al  Al0  1  0.11440301  0.08457395  0.40622897  1
  Al  Al1  1  0.22629036  0.21504880  0.05266577  1
  Al  Al2  1  0.89192204  0.20885943  0.64397176  1
  Al  Al3  1  0.43200200  0.08538487  0.31785389  1
  Al  Al4  1  0.54794313  0.21056604  0.14029739  1
  Al  Al5  1  0.11125125  0.09923648  0.88087917  1
  Al  Al6  1  0.22899445  0.19770752  0.57748582  1
  Al  Al7  1  0.89419036  0.21950761  0.13758115  1
  Al  Al8  1  0.43577864  0.09204412  0.81183015  1
  Al  Al9  1  0.54611444  0.21311229  0.64178507  1
  Al  Al10  1  0.22901314  0.54322254  0.13296912  1
  Al  Al11  1  0.77491239  0.43278887  0.88212776  1
  Al  Al12  1  0.88633448  0.53777518  0.58128087  1
  Al  Al13  1  0.43634527  0.43748083  0.38455040  1
  Al  Al14  1  0.56617154  0.53419495  0.13346641  1
  Al  Al15  1  0.10945192  0.42299015  0.81390498  1
  Al  Al16  1  0.22812763  0.53623405  0.64208365  1
  Al  Al17  1  0.77224732  0.42872197  0.39648056  1
  Al  Al18  1  0.89880031  0.54103344  0.04885705  1
  Al  Al19  1  0.43351251  0.43441755  0.88878774  1
  Al  Al20  1  0.55407290  0.53258398  0.64061809  1
  Al  Al21  1  0.12694080  0.75480980  0.40669534  1
  Al  Al22  1  0.77728874  0.75865837  0.81563338  1
  Al  Al23  1  0.89045893  0.86673966  0.58458807  1
  Al  Al24  1  0.43979837  0.75400059  0.40491304  1
  Al  Al25  1  0.56311242  0.87271049  0.05037096  1
  Al  Al26  1  0.11889334  0.75069907  0.88259009  1
  Al  Al27  1  0.22422531  0.86821882  0.64553194  1
  Al  Al28  1  0.88956308  0.86361494  0.05822325  1
  Al  Al29  1  0.44731836  0.75284556  0.88137939  1
  Al  Al30  1  0.55502089  0.87317621  0.57557875  1
  Gd  Gd31  1  0.76933894  0.11284139  0.87595130  1
  Gd  Gd32  1  0.76939676  0.11621230  0.38240604  1
  Gd  Gd33  1  0.11272473  0.41239037  0.32492895  1
  Gd  Gd34  1  0.22621437  0.87820809  0.14281880  1
  Gd  Gd35  1  0.77120809  0.76298997  0.31232517  1
  N  N36  1  0.24117227  0.17556090  0.40046457  1
  N  N37  1  0.09529823  0.12037424  0.06070326  1
  N  N38  1  0.90713168  0.22769805  0.81690243  1
  N  N39  1  0.77332540  0.09684360  0.61192183  1
  N  N40  1  0.51406006  0.22802781  0.31825702  1
  N  N41  1  0.43790958  0.08353825  0.12638635  1
  N  N42  1  0.22762366  0.20899742  0.87196096  1
  N  N43  1  0.10648860  0.08666119  0.58787055  1
  N  N44  1  0.91727477  0.22474794  0.31875794  1
  N  N45  1  0.77882485  0.09356551  0.10647575  1
  N  N46  1  0.51910694  0.23041818  0.82011762  1
  N  N47  1  0.44215340  0.08660747  0.63289292  1
  N  N48  1  0.23392882  0.56277822  0.31670406  1
  N  N49  1  0.11376469  0.43002227  0.10829236  1
  N  N50  1  0.89103862  0.54156557  0.86770691  1
  N  N51  1  0.76872109  0.41890919  0.58031298  1
  N  N52  1  0.56039295  0.53616631  0.32550843  1
  N  N53  1  0.44848307  0.42592252  0.07280320  1
  N  N54  1  0.22481017  0.53978687  0.82285584  1
  N  N55  1  0.10994848  0.42023840  0.62876094  1
  N  N56  1  0.87646412  0.54001650  0.40586843  1
  N  N57  1  0.77827304  0.42737271  0.06891363  1
  N  N58  1  0.55563965  0.53283329  0.82367310  1
  N  N59  1  0.44192592  0.42522038  0.57062868  1
  N  N60  1  0.22414136  0.87026539  0.35687257  1
  N  N61  1  0.11249942  0.74506629  0.06407822  1
  N  N62  1  0.89578408  0.85222840  0.87255027  1
  N  N63  1  0.77539725  0.75974177  0.63427709  1
  N  N64  1  0.53297989  0.88446493  0.39433688  1
  N  N65  1  0.47218927  0.73976509  0.06275327  1
  N  N66  1  0.22332047  0.87236105  0.83075272  1
  N  N67  1  0.12221328  0.75063904  0.59152172  1
  N  N68  1  0.90738456  0.86159540  0.40232083  1
  N  N69  1  0.77939565  0.75870111  0.09886334  1
  N  N70  1  0.55565678  0.87741257  0.86923640  1
  N  N71  1  0.44542114  0.75039163  0.58848448  1
