# generated using pymatgen
data_Gd5Al31N36
_symmetry_space_group_name_H-M   'P 1'
_cell_length_a   9.67712076
_cell_length_b   9.66917441
_cell_length_c   10.61776212
_cell_angle_alpha   90.84008256
_cell_angle_beta   90.33673303
_cell_angle_gamma   60.02095238
_symmetry_Int_Tables_number   1
_chemical_formula_structural   Gd5Al31N36
_chemical_formula_sum   'Gd5 Al31 N36'
_cell_volume   860.48546717
_cell_formula_units_Z   1
loop_
 _symmetry_equiv_pos_site_id
 _symmetry_equiv_pos_as_xyz
  1  'x, y, z'
loop_
 _atom_site_type_symbol
 _atom_site_label
 _atom_site_symmetry_multiplicity
 _atom_site_fract_x
 _atom_site_fract_y
 _atom_site_fract_z
 _atom_site_occupancy
  Al  Al0  1  0.11272711  0.08565656  0.41810355  1
  Al  Al1  1  0.22676916  0.21437204  0.06660702  1
  Al  Al2  1  0.89283258  0.20949816  0.65870659  1
  Al  Al3  1  0.43142557  0.08622474  0.33030636  1
  Al  Al4  1  0.54928877  0.21037483  0.15313624  1
  Al  Al5  1  0.11191773  0.09830297  0.89518329  1
  Al  Al6  1  0.22842648  0.19772285  0.58959562  1
  Al  Al7  1  0.89393174  0.21775645  0.15098779  1
  Al  Al8  1  0.43509034  0.09191111  0.82501558  1
  Al  Al9  1  0.54424366  0.21414831  0.65621825  1
  Al  Al10  1  0.22886990  0.54379599  0.14362529  1
  Al  Al11  1  0.77569239  0.43199408  0.89682469  1
  Al  Al12  1  0.88633616  0.53662653  0.59243900  1
  Al  Al13  1  0.43626575  0.43913946  0.39584424  1
  Al  Al14  1  0.56687830  0.53439759  0.14657983  1
  Al  Al15  1  0.10994568  0.42258201  0.82695816  1
  Al  Al16  1  0.22907165  0.53529774  0.65458982  1
  Al  Al17  1  0.77255802  0.42761488  0.40790330  1
  Al  Al18  1  0.89956593  0.54120694  0.06249341  1
  Al  Al19  1  0.43451396  0.43411212  0.90177829  1
  Al  Al20  1  0.55466932  0.53231067  0.65318681  1
  Al  Al21  1  0.12436582  0.75729454  0.42031345  1
  Al  Al22  1  0.77689018  0.75626092  0.82713379  1
  Al  Al23  1  0.89141289  0.86584508  0.60815638  1
  Al  Al24  1  0.43905812  0.75468745  0.41728020  1
  Al  Al25  1  0.56346340  0.87333224  0.06318000  1
  Al  Al26  1  0.11934660  0.75032787  0.89144134  1
  Al  Al27  1  0.22494118  0.86833320  0.65784973  1
  Al  Al28  1  0.88963153  0.86560838  0.07128392  1
  Al  Al29  1  0.44805641  0.75267218  0.89421541  1
  Al  Al30  1  0.55427211  0.87319404  0.58780414  1
  Gd  Gd31  1  0.76949148  0.11100070  0.88558573  1
  Gd  Gd32  1  0.76642140  0.11761881  0.40475148  1
  Gd  Gd33  1  0.11465077  0.41463992  0.33829278  1
  Gd  Gd34  1  0.22648362  0.87546664  0.15565417  1
  Gd  Gd35  1  0.77100575  0.76396289  0.32578824  1
  N  N36  1  0.23996505  0.17650897  0.41240739  1
  N  N37  1  0.09644322  0.11874193  0.07535652  1
  N  N38  1  0.90785386  0.22743739  0.83149968  1
  N  N39  1  0.77277649  0.09738680  0.63035175  1
  N  N40  1  0.51406049  0.22886233  0.33101821  1
  N  N41  1  0.43879470  0.08367086  0.13936112  1
  N  N42  1  0.22753504  0.20861101  0.88575462  1
  N  N43  1  0.10580252  0.08697591  0.60032454  1
  N  N44  1  0.91432930  0.22248164  0.33214847  1
  N  N45  1  0.77885951  0.09341338  0.11544844  1
  N  N46  1  0.51783387  0.23054786  0.83373381  1
  N  N47  1  0.44148816  0.08667349  0.64571430  1
  N  N48  1  0.23386465  0.56663680  0.32761760  1
  N  N49  1  0.11456440  0.42967790  0.12160629  1
  N  N50  1  0.89195744  0.54067234  0.88162878  1
  N  N51  1  0.76892827  0.41776356  0.59227274  1
  N  N52  1  0.56034637  0.53741595  0.33793999  1
  N  N53  1  0.44889023  0.42660382  0.08558219  1
  N  N54  1  0.22651968  0.53825975  0.83508359  1
  N  N55  1  0.10977723  0.42016974  0.64129080  1
  N  N56  1  0.87738085  0.53833140  0.41688321  1
  N  N57  1  0.77927183  0.42723945  0.08325820  1
  N  N58  1  0.55687435  0.53243983  0.83651616  1
  N  N59  1  0.44242182  0.42489155  0.58259655  1
  N  N60  1  0.22329408  0.87135971  0.36990489  1
  N  N61  1  0.11095267  0.74528598  0.07264633  1
  N  N62  1  0.89842803  0.85098679  0.87201359  1
  N  N63  1  0.77361720  0.75724929  0.64613945  1
  N  N64  1  0.53219264  0.88524414  0.40683760  1
  N  N65  1  0.47279127  0.74005713  0.07564908  1
  N  N66  1  0.22464593  0.87226110  0.84293706  1
  N  N67  1  0.12297798  0.75022022  0.60518573  1
  N  N68  1  0.90516116  0.86305816  0.41826363  1
  N  N69  1  0.78045707  0.76001059  0.11076309  1
  N  N70  1  0.55636972  0.87726960  0.88205079  1
  N  N71  1  0.44526350  0.75007800  0.60075821  1
