# generated using pymatgen
data_Sc2Al7N9
_symmetry_space_group_name_H-M   'P 1'
_cell_length_a   9.84959770
_cell_length_b   9.85449792
_cell_length_c   9.78511055
_cell_angle_alpha   90.02981453
_cell_angle_beta   90.04437925
_cell_angle_gamma   60.29077539
_symmetry_Int_Tables_number   1
_chemical_formula_structural   Sc2Al7N9
_chemical_formula_sum   'Sc8 Al28 N36'
_cell_volume   824.92466073
_cell_formula_units_Z   4
loop_
 _symmetry_equiv_pos_site_id
 _symmetry_equiv_pos_as_xyz
  1  'x, y, z'
loop_
 _atom_site_type_symbol
 _atom_site_label
 _atom_site_symmetry_multiplicity
 _atom_site_fract_x
 _atom_site_fract_y
 _atom_site_fract_z
 _atom_site_occupancy
  Al  Al0  1  0.11223824  0.09295140  0.37049138  1
  Al  Al1  1  0.22770937  0.20066765  0.13969967  1
  Al  Al2  1  0.45391968  0.08834839  0.37651347  1
  Al  Al3  1  0.55974084  0.20301029  0.13245883  1
  Al  Al4  1  0.77273780  0.08916207  0.38146266  1
  Al  Al5  1  0.88312969  0.20610360  0.14117847  1
  Al  Al6  1  0.44203995  0.09715934  0.88378319  1
  Al  Al7  1  0.55697770  0.20019718  0.62766845  1
  Al  Al8  1  0.10231385  0.43433144  0.37977651  1
  Al  Al9  1  0.77082397  0.43053295  0.88152386  1
  Al  Al10  1  0.87855391  0.54945976  0.63520942  1
  Al  Al11  1  0.45364014  0.42349206  0.38097071  1
  Al  Al12  1  0.55770903  0.53483841  0.12981390  1
  Al  Al13  1  0.11501402  0.42351121  0.88116594  1
  Al  Al14  1  0.77187603  0.44042968  0.37890971  1
  Al  Al15  1  0.44832922  0.42610578  0.87956531  1
  Al  Al16  1  0.56128251  0.54149945  0.63066957  1
  Al  Al17  1  0.10415399  0.76258215  0.37443731  1
  Al  Al18  1  0.22340282  0.87213375  0.13662764  1
  Al  Al19  1  0.77371372  0.76622163  0.87778824  1
  Al  Al20  1  0.88420245  0.86591287  0.62764978  1
  Al  Al21  1  0.45335109  0.75669496  0.37619038  1
  Al  Al22  1  0.55383900  0.87637943  0.12848722  1
  Al  Al23  1  0.11061975  0.75939809  0.88576341  1
  Al  Al24  1  0.77532428  0.76174627  0.38309928  1
  Al  Al25  1  0.88167926  0.88127442  0.13301491  1
  Al  Al26  1  0.44676967  0.75734038  0.88337581  1
  Al  Al27  1  0.56143883  0.86907742  0.63011914  1
  Sc  Sc28  1  0.77474996  0.09262815  0.87056881  1
  Sc  Sc29  1  0.87847973  0.21551488  0.60632433  1
  Sc  Sc30  1  0.11228671  0.09445418  0.88155576  1
  Sc  Sc31  1  0.22927620  0.20674126  0.61182426  1
  Sc  Sc32  1  0.22862616  0.53633022  0.11965103  1
  Sc  Sc33  1  0.22301762  0.53958602  0.62081073  1
  Sc  Sc34  1  0.88345032  0.54376914  0.11260246  1
  Sc  Sc35  1  0.22853409  0.86316973  0.61448954  1
  N  N36  1  0.22602473  0.20729754  0.33818357  1
  N  N37  1  0.11025028  0.09464398  0.10441168  1
  N  N38  1  0.87970169  0.22423079  0.82332177  1
  N  N39  1  0.76891244  0.07973627  0.57987557  1
  N  N40  1  0.55595161  0.20532846  0.32688957  1
  N  N41  1  0.44389284  0.09496115  0.08173262  1
  N  N42  1  0.23125092  0.21184703  0.82909759  1
  N  N43  1  0.11240920  0.09242742  0.56636501  1
  N  N44  1  0.88222819  0.20983277  0.34180409  1
  N  N45  1  0.77773538  0.09602956  0.08954259  1
  N  N46  1  0.53558882  0.21450336  0.82218468  1
  N  N47  1  0.46862595  0.07880892  0.56844193  1
  N  N48  1  0.22659518  0.53574338  0.34343037  1
  N  N49  1  0.12139849  0.40546923  0.07574249  1
  N  N50  1  0.88526530  0.54156391  0.83952342  1
  N  N51  1  0.76656413  0.45532677  0.57173571  1
  N  N52  1  0.55548236  0.53912905  0.32350568  1
  N  N53  1  0.46700031  0.41409294  0.07394879  1
  N  N54  1  0.22360786  0.53908763  0.84899144  1
  N  N55  1  0.08497069  0.44336491  0.57387647  1
  N  N56  1  0.88548068  0.54477279  0.32859111  1
  N  N57  1  0.76946141  0.41633103  0.07716068  1
  N  N58  1  0.55482202  0.54103491  0.82738312  1
  N  N59  1  0.47051994  0.41578990  0.57502827  1
  N  N60  1  0.22699129  0.86652599  0.33466467  1
  N  N61  1  0.09798259  0.78254719  0.08231482  1
  N  N62  1  0.90095582  0.85061604  0.82174614  1
  N  N63  1  0.77470693  0.76128123  0.57932793  1
  N  N64  1  0.55799514  0.87060302  0.32299405  1
  N  N65  1  0.44570031  0.75937523  0.08069627  1
  N  N66  1  0.23215089  0.85226723  0.83353504  1
  N  N67  1  0.08849456  0.76933597  0.56532933  1
  N  N68  1  0.88403178  0.87208003  0.32718412  1
  N  N69  1  0.76443403  0.78757931  0.07036705  1
  N  N70  1  0.55172927  0.87496465  0.82804592  1
  N  N71  1  0.46757237  0.75103097  0.56990740  1
