# generated using pymatgen
data_Sc2Al7N9
_symmetry_space_group_name_H-M   'P 1'
_cell_length_a   9.71234493
_cell_length_b   9.71867241
_cell_length_c   10.16843203
_cell_angle_alpha   90.02342530
_cell_angle_beta   90.02420425
_cell_angle_gamma   60.16203982
_symmetry_Int_Tables_number   1
_chemical_formula_structural   Sc2Al7N9
_chemical_formula_sum   'Sc8 Al28 N36'
_cell_volume   832.57319516
_cell_formula_units_Z   4
loop_
 _symmetry_equiv_pos_site_id
 _symmetry_equiv_pos_as_xyz
  1  'x, y, z'
loop_
 _atom_site_type_symbol
 _atom_site_label
 _atom_site_symmetry_multiplicity
 _atom_site_fract_x
 _atom_site_fract_y
 _atom_site_fract_z
 _atom_site_occupancy
  Al  Al0  1  0.11247483  0.09343570  0.38353304  1
  Al  Al1  1  0.22763293  0.20203987  0.15404741  1
  Al  Al2  1  0.45116994  0.09001930  0.39266247  1
  Al  Al3  1  0.55812062  0.20351954  0.14919975  1
  Al  Al4  1  0.77345790  0.09004169  0.39403304  1
  Al  Al5  1  0.88276432  0.20723309  0.15749214  1
  Al  Al6  1  0.44273610  0.09669720  0.89758337  1
  Al  Al7  1  0.55801934  0.19983387  0.64084394  1
  Al  Al8  1  0.10568233  0.43231178  0.39677665  1
  Al  Al9  1  0.77172584  0.43088927  0.89491773  1
  Al  Al10  1  0.88009730  0.54799079  0.64713202  1
  Al  Al11  1  0.45137732  0.42466969  0.39578824  1
  Al  Al12  1  0.55799747  0.53486103  0.14461604  1
  Al  Al13  1  0.11248144  0.42544815  0.89779258  1
  Al  Al14  1  0.77277502  0.43726932  0.39632010  1
  Al  Al15  1  0.44775993  0.42640151  0.89555973  1
  Al  Al16  1  0.56077790  0.54084807  0.64434881  1
  Al  Al17  1  0.10649862  0.76172013  0.39272107  1
  Al  Al18  1  0.22342771  0.87184588  0.15190471  1
  Al  Al19  1  0.77499394  0.76421567  0.89158206  1
  Al  Al20  1  0.88390947  0.86735478  0.64129583  1
  Al  Al21  1  0.45139701  0.75735345  0.39138481  1
  Al  Al22  1  0.55379342  0.87671328  0.14370024  1
  Al  Al23  1  0.10965866  0.76052090  0.90011336  1
  Al  Al24  1  0.77604305  0.76169148  0.39856825  1
  Al  Al25  1  0.88306518  0.88015004  0.14917339  1
  Al  Al26  1  0.44757938  0.75721313  0.89791540  1
  Al  Al27  1  0.56167965  0.86880805  0.64328198  1
  Sc  Sc28  1  0.77325412  0.09279543  0.89420072  1
  Sc  Sc29  1  0.88031889  0.21173121  0.62691978  1
  Sc  Sc30  1  0.11147171  0.09514673  0.90666435  1
  Sc  Sc31  1  0.22765554  0.20547257  0.63477461  1
  Sc  Sc32  1  0.22683675  0.53823158  0.13718103  1
  Sc  Sc33  1  0.22379834  0.53917091  0.64351415  1
  Sc  Sc34  1  0.88214209  0.54388203  0.13564489  1
  Sc  Sc35  1  0.22728289  0.86636975  0.63599048  1
  N  N36  1  0.22617493  0.20789846  0.34410351  1
  N  N37  1  0.10996831  0.09545012  0.11772548  1
  N  N38  1  0.88077651  0.22110670  0.83503345  1
  N  N39  1  0.76893113  0.07970470  0.58330361  1
  N  N40  1  0.55424305  0.20595746  0.33680085  1
  N  N41  1  0.44425429  0.09523471  0.08958450  1
  N  N42  1  0.22939543  0.21174244  0.84266765  1
  N  N43  1  0.11291640  0.09263768  0.56916269  1
  N  N44  1  0.88213926  0.21031812  0.34907359  1
  N  N45  1  0.77717082  0.09644494  0.10410760  1
  N  N46  1  0.53620823  0.21457420  0.82941968  1
  N  N47  1  0.46606286  0.08026260  0.57830766  1
  N  N48  1  0.22561163  0.53671159  0.35125659  1
  N  N49  1  0.11907176  0.40737703  0.08398169  1
  N  N50  1  0.88602139  0.54066621  0.84432404  1
  N  N51  1  0.76768237  0.45216551  0.58214017  1
  N  N52  1  0.55603828  0.53856471  0.33305848  1
  N  N53  1  0.46639111  0.41435177  0.08295889  1
  N  N54  1  0.22276238  0.53941180  0.86031837  1
  N  N55  1  0.08875196  0.44144898  0.58294004  1
  N  N56  1  0.88661098  0.54262536  0.34316331  1
  N  N57  1  0.76984049  0.41656213  0.08394362  1
  N  N58  1  0.55436914  0.54063617  0.83561194  1
  N  N59  1  0.46880680  0.41653815  0.58327129  1
  N  N60  1  0.22667307  0.86583895  0.34144358  1
  N  N61  1  0.09738725  0.78431101  0.08820599  1
  N  N62  1  0.89932711  0.85287049  0.82927177  1
  N  N63  1  0.77556898  0.76099182  0.58797437  1
  N  N64  1  0.55766653  0.87101003  0.33296043  1
  N  N65  1  0.44629664  0.75939273  0.08941585  1
  N  N66  1  0.23113305  0.85510109  0.84550031  1
  N  N67  1  0.09107006  0.76886957  0.57655088  1
  N  N68  1  0.88654850  0.87017363  0.33690003  1
  N  N69  1  0.76573691  0.78658636  0.07869271  1
  N  N70  1  0.55245977  0.87431716  0.83604048  1
  N  N71  1  0.46571059  0.75159537  0.57887762  1
