# generated using pymatgen
data_Sc2Al7N9
_symmetry_space_group_name_H-M   'P 1'
_cell_length_a   9.70936080
_cell_length_b   9.71234077
_cell_length_c   10.17187411
_cell_angle_alpha   89.97303366
_cell_angle_beta   89.82913070
_cell_angle_gamma   60.19677786
_symmetry_Int_Tables_number   1
_chemical_formula_structural   Sc2Al7N9
_chemical_formula_sum   'Sc8 Al28 N36'
_cell_volume   832.34173185
_cell_formula_units_Z   4
loop_
 _symmetry_equiv_pos_site_id
 _symmetry_equiv_pos_as_xyz
  1  'x, y, z'
loop_
 _atom_site_type_symbol
 _atom_site_label
 _atom_site_symmetry_multiplicity
 _atom_site_fract_x
 _atom_site_fract_y
 _atom_site_fract_z
 _atom_site_occupancy
  Al  Al0  1  0.11194462  0.09375467  0.28667880  1
  Al  Al1  1  0.22996786  0.20433585  0.05436873  1
  Al  Al2  1  0.44562736  0.09199269  0.29984375  1
  Al  Al3  1  0.55448930  0.20559382  0.05741889  1
  Al  Al4  1  0.77667618  0.09220099  0.29751609  1
  Al  Al5  1  0.87979877  0.21107863  0.05850566  1
  Al  Al6  1  0.44750737  0.09587154  0.80726363  1
  Al  Al7  1  0.56158767  0.19874998  0.55010908  1
  Al  Al8  1  0.11155837  0.42565096  0.30181065  1
  Al  Al9  1  0.77168586  0.43761378  0.80183134  1
  Al  Al10  1  0.88040193  0.54729081  0.55180810  1
  Al  Al11  1  0.44912941  0.42617485  0.30376111  1
  Al  Al12  1  0.55748039  0.53618024  0.05341309  1
  Al  Al13  1  0.10644471  0.43131198  0.80017576  1
  Al  Al14  1  0.77320757  0.42932225  0.30214607  1
  Al  Al15  1  0.45059395  0.42528991  0.80172096  1
  Al  Al16  1  0.56096942  0.54040237  0.55457722  1
  Al  Al17  1  0.10716289  0.76508608  0.29928928  1
  Al  Al18  1  0.22645024  0.86609965  0.05661402  1
  Al  Al19  1  0.77833286  0.75813850  0.79993315  1
  Al  Al20  1  0.88201796  0.87211513  0.55000604  1
  Al  Al21  1  0.44700628  0.76040103  0.29999510  1
  Al  Al22  1  0.55394452  0.87616706  0.05394059  1
  Al  Al23  1  0.10960073  0.75645702  0.80468115  1
  Al  Al24  1  0.77256875  0.76736239  0.30672907  1
  Al  Al25  1  0.88538461  0.87437413  0.05743562  1
  Al  Al26  1  0.45139213  0.75461779  0.80801982  1
  Al  Al27  1  0.56163974  0.86936746  0.55669708  1
  Sc  Sc28  1  0.77346153  0.09050917  0.81233108  1
  Sc  Sc29  1  0.88308212  0.20984039  0.55090932  1
  Sc  Sc30  1  0.11311221  0.09332478  0.82909732  1
  Sc  Sc31  1  0.22748967  0.20281052  0.55511401  1
  Sc  Sc32  1  0.22781835  0.53813050  0.05312051  1
  Sc  Sc33  1  0.22417942  0.53878827  0.56278405  1
  Sc  Sc34  1  0.88311929  0.54359668  0.05975145  1
  Sc  Sc35  1  0.22619490  0.86914336  0.55400764  1
  N  N36  1  0.22224627  0.20206564  0.34546787  1
  N  N37  1  0.11262461  0.09358524  0.09314118  1
  N  N38  1  0.87105977  0.22978545  0.87045681  1
  N  N39  1  0.77127493  0.08347906  0.60452196  1
  N  N40  1  0.55500633  0.20398462  0.35895983  1
  N  N41  1  0.44597056  0.09266957  0.11186685  1
  N  N42  1  0.23273866  0.21863475  0.86472188  1
  N  N43  1  0.10941804  0.09421903  0.62368566  1
  N  N44  1  0.89079052  0.20332192  0.34008687  1
  N  N45  1  0.77544903  0.09350903  0.10588662  1
  N  N46  1  0.53697013  0.21692150  0.87152872  1
  N  N47  1  0.46503379  0.08398886  0.61885884  1
  N  N48  1  0.22283551  0.54010670  0.34717596  1
  N  N49  1  0.11889338  0.41242746  0.11678653  1
  N  N50  1  0.88632626  0.54140118  0.85187435  1
  N  N51  1  0.76981857  0.44675180  0.61361874  1
  N  N52  1  0.55413142  0.54140827  0.36429622  1
  N  N53  1  0.46347016  0.41858186  0.11747746  1
  N  N54  1  0.22595563  0.53543296  0.83794007  1
  N  N55  1  0.08979658  0.43622061  0.61346406  1
  N  N56  1  0.88627020  0.54108797  0.35664492  1
  N  N57  1  0.76627185  0.42335057  0.11773991  1
  N  N58  1  0.55610561  0.53846744  0.86448012  1
  N  N59  1  0.47171350  0.41324253  0.61326786  1
  N  N60  1  0.22251293  0.87427352  0.34284007  1
  N  N61  1  0.09948226  0.77869473  0.11433380  1
  N  N62  1  0.89825461  0.84859995  0.87114212  1
  N  N63  1  0.77701279  0.76233340  0.60898617  1
  N  N64  1  0.55221392  0.87390855  0.36496809  1
  N  N65  1  0.44881164  0.75848618  0.11070492  1
  N  N66  1  0.23582011  0.84444182  0.86776254  1
  N  N67  1  0.08848092  0.77425298  0.61857881  1
  N  N68  1  0.88802165  0.87295085  0.36014227  1
  N  N69  1  0.76398093  0.78347763  0.12094528  1
  N  N70  1  0.55672076  0.87276377  0.86386361  1
  N  N71  1  0.46321681  0.75263928  0.61940163  1
