# generated using pymatgen
data_Sc2Al7N9
_symmetry_space_group_name_H-M   'P 1'
_cell_length_a   9.71017884
_cell_length_b   9.71334423
_cell_length_c   10.17009673
_cell_angle_alpha   89.97421006
_cell_angle_beta   89.83092762
_cell_angle_gamma   60.19119011
_symmetry_Int_Tables_number   1
_chemical_formula_structural   Sc2Al7N9
_chemical_formula_sum   'Sc8 Al28 N36'
_cell_volume   832.30596869
_cell_formula_units_Z   4
loop_
 _symmetry_equiv_pos_site_id
 _symmetry_equiv_pos_as_xyz
  1  'x, y, z'
loop_
 _atom_site_type_symbol
 _atom_site_label
 _atom_site_symmetry_multiplicity
 _atom_site_fract_x
 _atom_site_fract_y
 _atom_site_fract_z
 _atom_site_occupancy
  Al  Al0  1  0.11195813  0.09375637  0.28292215  1
  Al  Al1  1  0.22999144  0.20433784  0.05058152  1
  Al  Al2  1  0.44563599  0.09199817  0.29608053  1
  Al  Al3  1  0.55448849  0.20559708  0.05364663  1
  Al  Al4  1  0.77670436  0.09219445  0.29372821  1
  Al  Al5  1  0.87980409  0.21108274  0.05471112  1
  Al  Al6  1  0.44751703  0.09587583  0.80346203  1
  Al  Al7  1  0.56160229  0.19873183  0.54632933  1
  Al  Al8  1  0.11160198  0.42563951  0.29805387  1
  Al  Al9  1  0.77170709  0.43763171  0.79805684  1
  Al  Al10  1  0.88040641  0.54729809  0.54799462  1
  Al  Al11  1  0.44916181  0.42617350  0.29999561  1
  Al  Al12  1  0.55750264  0.53617717  0.04963757  1
  Al  Al13  1  0.10643912  0.43132974  0.79641216  1
  Al  Al14  1  0.77323056  0.42929833  0.29839172  1
  Al  Al15  1  0.45063814  0.42527811  0.79794227  1
  Al  Al16  1  0.56098974  0.54040967  0.55079293  1
  Al  Al17  1  0.10719337  0.76508575  0.29553499  1
  Al  Al18  1  0.22648073  0.86608272  0.05283457  1
  Al  Al19  1  0.77835009  0.75812053  0.79615907  1
  Al  Al20  1  0.88202133  0.87209816  0.54623591  1
  Al  Al21  1  0.44702836  0.76040664  0.29621998  1
  Al  Al22  1  0.55395889  0.87617621  0.05015450  1
  Al  Al23  1  0.10962190  0.75643927  0.80089542  1
  Al  Al24  1  0.77257841  0.76738541  0.30294202  1
  Al  Al25  1  0.88542290  0.87434656  0.05365695  1
  Al  Al26  1  0.45141480  0.75461709  0.80423386  1
  Al  Al27  1  0.56164314  0.86937252  0.55290353  1
  Sc  Sc28  1  0.77347460  0.09047807  0.80862301  1
  Sc  Sc29  1  0.88304327  0.20982198  0.54721097  1
  Sc  Sc30  1  0.11312235  0.09332044  0.82536888  1
  Sc  Sc31  1  0.22744513  0.20281585  0.55138983  1
  Sc  Sc32  1  0.22783927  0.53812781  0.04936059  1
  Sc  Sc33  1  0.22421550  0.53875529  0.55904535  1
  Sc  Sc34  1  0.88313549  0.54358647  0.05605334  1
  Sc  Sc35  1  0.22619504  0.86913761  0.55027012  1
  N  N36  1  0.22225637  0.20206147  0.34170483  1
  N  N37  1  0.11264617  0.09358687  0.08933193  1
  N  N38  1  0.87105404  0.22979064  0.86663087  1
  N  N39  1  0.77126810  0.08343747  0.60078575  1
  N  N40  1  0.55503645  0.20397392  0.35515374  1
  N  N41  1  0.44598516  0.09267446  0.10807615  1
  N  N42  1  0.23274399  0.21863470  0.86089941  1
  N  N43  1  0.10939813  0.09421208  0.61992657  1
  N  N44  1  0.89080497  0.20330378  0.33633752  1
  N  N45  1  0.77547769  0.09350055  0.10205871  1
  N  N46  1  0.53696095  0.21691981  0.86773244  1
  N  N47  1  0.46502457  0.08399996  0.61503360  1
  N  N48  1  0.22286659  0.54009871  0.34339406  1
  N  N49  1  0.11894208  0.41241591  0.11299790  1
  N  N50  1  0.88633297  0.54140044  0.84813470  1
  N  N51  1  0.76984433  0.44677028  0.60981147  1
  N  N52  1  0.55415018  0.54141199  0.36049648  1
  N  N53  1  0.46350053  0.41858415  0.11368200  1
  N  N54  1  0.22598799  0.53541529  0.83413408  1
  N  N55  1  0.08978481  0.43624870  0.60966809  1
  N  N56  1  0.88628475  0.54109368  0.35280657  1
  N  N57  1  0.76629430  0.42332750  0.11395662  1
  N  N58  1  0.55612541  0.53846961  0.86068199  1
  N  N59  1  0.47177411  0.41322828  0.60946305  1
  N  N60  1  0.22253599  0.87427440  0.33906532  1
  N  N61  1  0.09951860  0.77869650  0.11054838  1
  N  N62  1  0.89829020  0.84855035  0.86734609  1
  N  N63  1  0.77701895  0.76232508  0.60518297  1
  N  N64  1  0.55223164  0.87390921  0.36116075  1
  N  N65  1  0.44884347  0.75848863  0.10690445  1
  N  N66  1  0.23583615  0.84442359  0.86394882  1
  N  N67  1  0.08849774  0.77422802  0.61476667  1
  N  N68  1  0.88803546  0.87295258  0.35634410  1
  N  N69  1  0.76399697  0.78349754  0.11713964  1
  N  N70  1  0.55672461  0.87277248  0.86005649  1
  N  N71  1  0.46324029  0.75264552  0.61559367  1
