# generated using pymatgen
data_Sc2Al7N9
_symmetry_space_group_name_H-M   'P 1'
_cell_length_a   9.71259163
_cell_length_b   9.71894273
_cell_length_c   10.16767247
_cell_angle_alpha   90.02368034
_cell_angle_beta   90.02445665
_cell_angle_gamma   60.16297130
_symmetry_Int_Tables_number   1
_chemical_formula_structural   Sc2Al7N9
_chemical_formula_sum   'Sc8 Al28 N36'
_cell_volume   832.56306873
_cell_formula_units_Z   4
loop_
 _symmetry_equiv_pos_site_id
 _symmetry_equiv_pos_as_xyz
  1  'x, y, z'
loop_
 _atom_site_type_symbol
 _atom_site_label
 _atom_site_symmetry_multiplicity
 _atom_site_fract_x
 _atom_site_fract_y
 _atom_site_fract_z
 _atom_site_occupancy
  Al  Al0  1  0.11249069  0.09342805  0.37940863  1
  Al  Al1  1  0.22765265  0.20203014  0.14993299  1
  Al  Al2  1  0.45119572  0.09000998  0.38853588  1
  Al  Al3  1  0.55814403  0.20350999  0.14506909  1
  Al  Al4  1  0.77347217  0.09003406  0.38991778  1
  Al  Al5  1  0.88278053  0.20722586  0.15336720  1
  Al  Al6  1  0.44275267  0.09669284  0.89346140  1
  Al  Al7  1  0.55803644  0.19982894  0.63672859  1
  Al  Al8  1  0.10568632  0.43231651  0.39265314  1
  Al  Al9  1  0.77174168  0.43088227  0.89079805  1
  Al  Al10  1  0.88010761  0.54799562  0.64302205  1
  Al  Al11  1  0.45140174  0.42465943  0.39166897  1
  Al  Al12  1  0.55801457  0.53485541  0.14049618  1
  Al  Al13  1  0.11251155  0.42543455  0.89366447  1
  Al  Al14  1  0.77278736  0.43727898  0.39219331  1
  Al  Al15  1  0.44777952  0.42639506  0.89143988  1
  Al  Al16  1  0.56079453  0.54084704  0.64023224  1
  Al  Al17  1  0.10650929  0.76171767  0.38859089  1
  Al  Al18  1  0.22344316  0.87183942  0.14777846  1
  Al  Al19  1  0.77500617  0.76421877  0.88746326  1
  Al  Al20  1  0.88392699  0.86734600  0.63717414  1
  Al  Al21  1  0.45141446  0.75734822  0.38726283  1
  Al  Al22  1  0.55380897  0.87670628  0.13957656  1
  Al  Al23  1  0.10967923  0.76051066  0.89598791  1
  Al  Al24  1  0.77605755  0.76168674  0.39443964  1
  Al  Al25  1  0.88307904  0.88014816  0.14504398  1
  Al  Al26  1  0.44759434  0.75720880  0.89379415  1
  Al  Al27  1  0.56169540  0.86880468  0.63916135  1
  Sc  Sc28  1  0.77328252  0.09279119  0.89005249  1
  Sc  Sc29  1  0.88033227  0.21174107  0.62277153  1
  Sc  Sc30  1  0.11149243  0.09514524  0.90251993  1
  Sc  Sc31  1  0.22767622  0.20547180  0.63062219  1
  Sc  Sc32  1  0.22685924  0.53822065  0.13305896  1
  Sc  Sc33  1  0.22381565  0.53916670  0.63937383  1
  Sc  Sc34  1  0.88216680  0.54387392  0.13149219  1
  Sc  Sc35  1  0.22729856  0.86636177  0.63185618  1
  N  N36  1  0.22619177  0.20789484  0.34000322  1
  N  N37  1  0.10998522  0.09544298  0.11360578  1
  N  N38  1  0.88079714  0.22111341  0.83090297  1
  N  N39  1  0.76894917  0.07969872  0.57920524  1
  N  N40  1  0.55426622  0.20594971  0.33268352  1
  N  N41  1  0.44426914  0.09522641  0.08547331  1
  N  N42  1  0.22942100  0.21173728  0.83853319  1
  N  N43  1  0.11293303  0.09262973  0.56505308  1
  N  N44  1  0.88215226  0.21031630  0.34496803  1
  N  N45  1  0.77719123  0.09643776  0.09997576  1
  N  N46  1  0.53622777  0.21456889  0.82531439  1
  N  N47  1  0.46608951  0.08025334  0.57419212  1
  N  N48  1  0.22563126  0.53670430  0.34715092  1
  N  N49  1  0.11910329  0.40735915  0.07986776  1
  N  N50  1  0.88603766  0.54066579  0.84022851  1
  N  N51  1  0.76769258  0.45217811  0.57802538  1
  N  N52  1  0.55605246  0.53856294  0.32894692  1
  N  N53  1  0.46640938  0.41434487  0.07885023  1
  N  N54  1  0.22278540  0.53940473  0.85619726  1
  N  N55  1  0.08875285  0.44145427  0.57882894  1
  N  N56  1  0.88662497  0.54262747  0.33902852  1
  N  N57  1  0.76985572  0.41655284  0.07983495  1
  N  N58  1  0.55438746  0.54063255  0.83150373  1
  N  N59  1  0.46883222  0.41652734  0.57916224  1
  N  N60  1  0.22668940  0.86583441  0.33733266  1
  N  N61  1  0.09740544  0.78429745  0.08409602  1
  N  N62  1  0.89934895  0.85285861  0.82516033  1
  N  N63  1  0.77558229  0.76098848  0.58385926  1
  N  N64  1  0.55768136  0.87100513  0.32884579  1
  N  N65  1  0.44631165  0.75938527  0.08530342  1
  N  N66  1  0.23115105  0.85509360  0.84138253  1
  N  N67  1  0.09108012  0.76886507  0.57243305  1
  N  N68  1  0.88655951  0.87017532  0.33278321  1
  N  N69  1  0.76574772  0.78658543  0.07458230  1
  N  N70  1  0.55247610  0.87431363  0.83192899  1
  N  N71  1  0.46572735  0.75159040  0.57476666  1
