# generated using pymatgen
data_Sc2Al7N9
_symmetry_space_group_name_H-M   'P 1'
_cell_length_a   10.10219745
_cell_length_b   10.09525886
_cell_length_c   9.05639240
_cell_angle_alpha   90.03848382
_cell_angle_beta   90.04150442
_cell_angle_gamma   60.31788298
_symmetry_Int_Tables_number   1
_chemical_formula_structural   Sc2Al7N9
_chemical_formula_sum   'Sc8 Al28 N36'
_cell_volume   802.41912680
_cell_formula_units_Z   4
loop_
 _symmetry_equiv_pos_site_id
 _symmetry_equiv_pos_as_xyz
  1  'x, y, z'
loop_
 _atom_site_type_symbol
 _atom_site_label
 _atom_site_symmetry_multiplicity
 _atom_site_fract_x
 _atom_site_fract_y
 _atom_site_fract_z
 _atom_site_occupancy
  Al  Al0  1  0.11204138  0.09295369  0.35403923  1
  Al  Al1  1  0.22741330  0.20120936  0.12410209  1
  Al  Al2  1  0.45359325  0.08776346  0.36402414  1
  Al  Al3  1  0.55822767  0.20494229  0.12495404  1
  Al  Al4  1  0.77354700  0.09067045  0.36578828  1
  Al  Al5  1  0.88304757  0.20712549  0.12370725  1
  Al  Al6  1  0.44351619  0.09652143  0.87881972  1
  Al  Al7  1  0.55695754  0.19975264  0.61725252  1
  Al  Al8  1  0.10410099  0.43155619  0.36699444  1
  Al  Al9  1  0.77058340  0.43344364  0.87470897  1
  Al  Al10  1  0.87865805  0.54862461  0.62043940  1
  Al  Al11  1  0.45422031  0.42362383  0.37461305  1
  Al  Al12  1  0.55650347  0.53522332  0.12187431  1
  Al  Al13  1  0.11205491  0.42626961  0.86925136  1
  Al  Al14  1  0.77145622  0.43829055  0.36594633  1
  Al  Al15  1  0.44945616  0.42539541  0.86694337  1
  Al  Al16  1  0.56115536  0.54206622  0.62287683  1
  Al  Al17  1  0.10340754  0.76454320  0.35921065  1
  Al  Al18  1  0.22460120  0.87099250  0.12127226  1
  Al  Al19  1  0.77495478  0.76477459  0.86674782  1
  Al  Al20  1  0.88457765  0.86754896  0.61761486  1
  Al  Al21  1  0.45355333  0.75713540  0.36425649  1
  Al  Al22  1  0.55549805  0.87502998  0.11888225  1
  Al  Al23  1  0.10998541  0.75846203  0.87993904  1
  Al  Al24  1  0.77307266  0.76417792  0.37632531  1
  Al  Al25  1  0.88090348  0.87919862  0.12544891  1
  Al  Al26  1  0.44797186  0.75664603  0.87775876  1
  Al  Al27  1  0.55952272  0.87009905  0.62443321  1
  Sc  Sc28  1  0.77376781  0.09131007  0.85976415  1
  Sc  Sc29  1  0.87870643  0.21544887  0.59985959  1
  Sc  Sc30  1  0.11246037  0.09359558  0.86375703  1
  Sc  Sc31  1  0.23076394  0.20607291  0.60286951  1
  Sc  Sc32  1  0.23071911  0.53422680  0.11094553  1
  Sc  Sc33  1  0.22179431  0.54078029  0.60756550  1
  Sc  Sc34  1  0.88359861  0.54531442  0.10685956  1
  Sc  Sc35  1  0.22959201  0.86143979  0.60332728  1
  N  N36  1  0.22547584  0.20577265  0.34292376  1
  N  N37  1  0.11086420  0.09384147  0.11040307  1
  N  N38  1  0.87733655  0.22449877  0.84334562  1
  N  N39  1  0.76945240  0.08210385  0.58926129  1
  N  N40  1  0.55525971  0.20680482  0.33724903  1
  N  N41  1  0.44559859  0.09447491  0.09434771  1
  N  N42  1  0.23218342  0.21194302  0.84540119  1
  N  N43  1  0.11198796  0.09249722  0.59026073  1
  N  N44  1  0.88469243  0.20858686  0.34380055  1
  N  N45  1  0.77638520  0.09481448  0.10144847  1
  N  N46  1  0.53694859  0.21251183  0.83264436  1
  N  N47  1  0.46737322  0.07897776  0.57619798  1
  N  N48  1  0.22831513  0.53415552  0.35033202  1
  N  N49  1  0.11862234  0.40992400  0.08995343  1
  N  N50  1  0.88481561  0.54160559  0.84406173  1
  N  N51  1  0.76685523  0.45173243  0.58013204  1
  N  N52  1  0.55420115  0.53916509  0.33269645  1
  N  N53  1  0.46639903  0.41480232  0.08167740  1
  N  N54  1  0.22336668  0.53963909  0.85290734  1
  N  N55  1  0.08767642  0.44050064  0.58648270  1
  N  N56  1  0.88475889  0.54639609  0.34255687  1
  N  N57  1  0.76876614  0.42110452  0.09171356  1
  N  N58  1  0.55567632  0.54171467  0.83765488  1
  N  N59  1  0.46859375  0.41722906  0.58833841  1
  N  N60  1  0.22755803  0.86814127  0.34005513  1
  N  N61  1  0.09822811  0.77903187  0.09880356  1
  N  N62  1  0.90130493  0.85165800  0.83280284  1
  N  N63  1  0.77309055  0.76322927  0.59124872  1
  N  N64  1  0.55884438  0.86993828  0.33019744  1
  N  N65  1  0.44729666  0.75857657  0.09201612  1
  N  N66  1  0.23296203  0.85033366  0.85003279  1
  N  N67  1  0.08929953  0.77011473  0.57228353  1
  N  N68  1  0.88196074  0.87244816  0.33711107  1
  N  N69  1  0.76557731  0.78461757  0.07852175  1
  N  N70  1  0.55074122  0.87558058  0.83998045  1
  N  N71  1  0.46698886  0.75161917  0.57912524  1
