# generated using pymatgen
data_Sc2Al7N9
_symmetry_space_group_name_H-M   'P 1'
_cell_length_a   9.90420466
_cell_length_b   9.90694892
_cell_length_c   9.63069142
_cell_angle_alpha   90.03089442
_cell_angle_beta   90.04504522
_cell_angle_gamma   60.30643092
_symmetry_Int_Tables_number   1
_chemical_formula_structural   Sc2Al7N9
_chemical_formula_sum   'Sc8 Al28 N36'
_cell_volume   820.88106705
_cell_formula_units_Z   4
loop_
 _symmetry_equiv_pos_site_id
 _symmetry_equiv_pos_as_xyz
  1  'x, y, z'
loop_
 _atom_site_type_symbol
 _atom_site_label
 _atom_site_symmetry_multiplicity
 _atom_site_fract_x
 _atom_site_fract_y
 _atom_site_fract_z
 _atom_site_occupancy
  Al  Al0  1  0.11215834  0.09290298  0.36912029  1
  Al  Al1  1  0.22755005  0.20052674  0.13791785  1
  Al  Al2  1  0.45442105  0.08794244  0.37443595  1
  Al  Al3  1  0.55985010  0.20325100  0.13101166  1
  Al  Al4  1  0.77268063  0.08919353  0.37991435  1
  Al  Al5  1  0.88325881  0.20595788  0.13880495  1
  Al  Al6  1  0.44200834  0.09723126  0.88319355  1
  Al  Al7  1  0.55667634  0.20020711  0.62646222  1
  Al  Al8  1  0.10187222  0.43438967  0.37777995  1
  Al  Al9  1  0.77061156  0.43078972  0.88085674  1
  Al  Al10  1  0.87835993  0.54945777  0.63397905  1
  Al  Al11  1  0.45411036  0.42334262  0.37999656  1
  Al  Al12  1  0.55750929  0.53483671  0.12854585  1
  Al  Al13  1  0.11507802  0.42350441  0.87946030  1
  Al  Al14  1  0.77168195  0.44072107  0.37672922  1
  Al  Al15  1  0.44852373  0.42598107  0.87752302  1
  Al  Al16  1  0.56139184  0.54167854  0.62972366  1
  Al  Al17  1  0.10363767  0.76296566  0.37146650  1
  Al  Al18  1  0.22355433  0.87222304  0.13471911  1
  Al  Al19  1  0.77368384  0.76638540  0.87621514  1
  Al  Al20  1  0.88440652  0.86582272  0.62642164  1
  Al  Al21  1  0.45388407  0.75656432  0.37440252  1
  Al  Al22  1  0.55412652  0.87616140  0.12691370  1
  Al  Al23  1  0.11071267  0.75917008  0.88508700  1
  Al  Al24  1  0.77493922  0.76200199  0.38208072  1
  Al  Al25  1  0.88119461  0.88129680  0.13165137  1
  Al  Al26  1  0.44671222  0.75730457  0.88252375  1
  Al  Al27  1  0.56110008  0.86926351  0.62946454  1
  Sc  Sc28  1  0.77474913  0.09240821  0.86735252  1
  Sc  Sc29  1  0.87811934  0.21610994  0.60441161  1
  Sc  Sc30  1  0.11243919  0.09415219  0.87679620  1
  Sc  Sc31  1  0.22980577  0.20689477  0.60904421  1
  Sc  Sc32  1  0.22922986  0.53570085  0.11761025  1
  Sc  Sc33  1  0.22261383  0.53990950  0.61720251  1
  Sc  Sc34  1  0.88357356  0.54405251  0.11030656  1
  Sc  Sc35  1  0.22898725  0.86225021  0.61144070  1
  N  N36  1  0.22589546  0.20702950  0.33997270  1
  N  N37  1  0.11036057  0.09445228  0.10480538  1
  N  N38  1  0.87904406  0.22473588  0.82566357  1
  N  N39  1  0.76892449  0.08005613  0.58255976  1
  N  N40  1  0.55611473  0.20548603  0.32847782  1
  N  N41  1  0.44399271  0.09495801  0.08403248  1
  N  N42  1  0.23166334  0.21192852  0.83067244  1
  N  N43  1  0.11227287  0.09244835  0.57095657  1
  N  N44  1  0.88258277  0.20953108  0.34297880  1
  N  N45  1  0.77763017  0.09585642  0.09047612  1
  N  N46  1  0.53557005  0.21422048  0.82415835  1
  N  N47  1  0.46888488  0.07854921  0.56957779  1
  N  N48  1  0.22698983  0.53533737  0.34524187  1
  N  N49  1  0.12124608  0.40582784  0.07808356  1
  N  N50  1  0.88509471  0.54165639  0.84123647  1
  N  N51  1  0.76646108  0.45530166  0.57293012  1
  N  N52  1  0.55526220  0.53916132  0.32495201  1
  N  N53  1  0.46709098  0.41411070  0.07529549  1
  N  N54  1  0.22365064  0.53913496  0.84994399  1
  N  N55  1  0.08472763  0.44327189  0.57573371  1
  N  N56  1  0.88515725  0.54536557  0.32978821  1
  N  N57  1  0.76938387  0.41690352  0.07977782  1
  N  N58  1  0.55500921  0.54122155  0.82926278  1
  N  N59  1  0.47048747  0.41593757  0.57728966  1
  N  N60  1  0.22718986  0.86686970  0.33648596  1
  N  N61  1  0.09811857  0.78188305  0.08564917  1
  N  N62  1  0.90139840  0.85036143  0.82376267  1
  N  N63  1  0.77438885  0.76152392  0.58141421  1
  N  N64  1  0.55829304  0.87037392  0.32411298  1
  N  N65  1  0.44576214  0.75933127  0.08264126  1
  N  N66  1  0.23247872  0.85139226  0.83526740  1
  N  N67  1  0.08814983  0.76958171  0.56599704  1
  N  N68  1  0.88321423  0.87244142  0.32873132  1
  N  N69  1  0.76441347  0.78737620  0.07176636  1
  N  N70  1  0.55138967  0.87519738  0.83014177  1
  N  N71  1  0.46793232  0.75094912  0.57138978  1
