# generated using pymatgen
data_Sc2Al7N9
_symmetry_space_group_name_H-M   'P 1'
_cell_length_a   9.70976631
_cell_length_b   9.71281850
_cell_length_c   10.17076541
_cell_angle_alpha   89.97343858
_cell_angle_beta   89.83009094
_cell_angle_gamma   60.19665846
_symmetry_Int_Tables_number   1
_chemical_formula_structural   Sc2Al7N9
_chemical_formula_sum   'Sc8 Al28 N36'
_cell_volume   832.32575585
_cell_formula_units_Z   4
loop_
 _symmetry_equiv_pos_site_id
 _symmetry_equiv_pos_as_xyz
  1  'x, y, z'
loop_
 _atom_site_type_symbol
 _atom_site_label
 _atom_site_symmetry_multiplicity
 _atom_site_fract_x
 _atom_site_fract_y
 _atom_site_fract_z
 _atom_site_occupancy
  Al  Al0  1  0.11189631  0.09376842  0.29867058  1
  Al  Al1  1  0.22992365  0.20434919  0.06633858  1
  Al  Al2  1  0.44557341  0.09200779  0.31183132  1
  Al  Al3  1  0.55442837  0.20561002  0.06939880  1
  Al  Al4  1  0.77663176  0.09221389  0.30948749  1
  Al  Al5  1  0.87974228  0.21110000  0.07047686  1
  Al  Al6  1  0.44745538  0.09588393  0.81922680  1
  Al  Al7  1  0.56153931  0.19875552  0.56208663  1
  Al  Al8  1  0.11152187  0.42565401  0.31380286  1
  Al  Al9  1  0.77163446  0.43764202  0.81381331  1
  Al  Al10  1  0.88034454  0.54731398  0.56376856  1
  Al  Al11  1  0.44909087  0.42618473  0.31574651  1
  Al  Al12  1  0.55743320  0.53619254  0.06539406  1
  Al  Al13  1  0.10638056  0.43134051  0.81216442  1
  Al  Al14  1  0.77315951  0.42932636  0.31413821  1
  Al  Al15  1  0.45054877  0.42530142  0.81370350  1
  Al  Al16  1  0.56092012  0.54041816  0.56655426  1
  Al  Al17  1  0.10711611  0.76510703  0.31127884  1
  Al  Al18  1  0.22640796  0.86610589  0.06858675  1
  Al  Al19  1  0.77828345  0.75814700  0.81191210  1
  Al  Al20  1  0.88196139  0.87212739  0.56198861  1
  Al  Al21  1  0.44695783  0.76041633  0.31197596  1
  Al  Al22  1  0.55389291  0.87618493  0.06591606  1
  Al  Al23  1  0.10955231  0.75646270  0.81665776  1
  Al  Al24  1  0.77251468  0.76739088  0.31870044  1
  Al  Al25  1  0.88534307  0.87437983  0.06940957  1
  Al  Al26  1  0.45134782  0.75463038  0.81999281  1
  Al  Al27  1  0.56158659  0.86938135  0.56866374  1
  Sc  Sc28  1  0.77340274  0.09051566  0.82434737  1
  Sc  Sc29  1  0.88301045  0.20984962  0.56292780  1
  Sc  Sc30  1  0.11305335  0.09333812  0.84110322  1
  Sc  Sc31  1  0.22741417  0.20283398  0.56713166  1
  Sc  Sc32  1  0.22776970  0.53814540  0.06512716  1
  Sc  Sc33  1  0.22413644  0.53879420  0.57477594  1
  Sc  Sc34  1  0.88307082  0.54360906  0.07177531  1
  Sc  Sc35  1  0.22613903  0.86915983  0.56601460  1
  N  N36  1  0.22219777  0.20207672  0.35746097  1
  N  N37  1  0.11257706  0.09359771  0.10509888  1
  N  N38  1  0.87099775  0.22980977  0.88240784  1
  N  N39  1  0.77121343  0.08347719  0.61651929  1
  N  N40  1  0.55496725  0.20399287  0.37092122  1
  N  N41  1  0.44591647  0.09268336  0.12383663  1
  N  N42  1  0.23268452  0.21864918  0.87666716  1
  N  N43  1  0.10935025  0.09423273  0.63567267  1
  N  N44  1  0.89074313  0.20332939  0.35207504  1
  N  N45  1  0.77540140  0.09352107  0.11783313  1
  N  N46  1  0.53690363  0.21693796  0.88349422  1
  N  N47  1  0.46497708  0.08400014  0.63080826  1
  N  N48  1  0.22279383  0.54011956  0.35914021  1
  N  N49  1  0.11885822  0.41242660  0.12875845  1
  N  N50  1  0.88627077  0.54142138  0.86387299  1
  N  N51  1  0.76976959  0.44677752  0.62557957  1
  N  N52  1  0.55408460  0.54142369  0.37626213  1
  N  N53  1  0.46342876  0.41859178  0.12944556  1
  N  N54  1  0.22591031  0.53544436  0.84991600  1
  N  N55  1  0.08972785  0.43625683  0.62543052  1
  N  N56  1  0.88622075  0.54110853  0.36858770  1
  N  N57  1  0.76622173  0.42335529  0.12971395  1
  N  N58  1  0.55605664  0.53848461  0.87644690  1
  N  N59  1  0.47167564  0.41324914  0.62523148  1
  N  N60  1  0.22246875  0.87428957  0.35482297  1
  N  N61  1  0.09943544  0.77871555  0.12630425  1
  N  N62  1  0.89821417  0.84859845  0.88310471  1
  N  N63  1  0.77695666  0.76234532  0.62094746  1
  N  N64  1  0.55216809  0.87392152  0.37692642  1
  N  N65  1  0.44876520  0.75849879  0.12267005  1
  N  N66  1  0.23577456  0.84444976  0.87971439  1
  N  N67  1  0.08842961  0.77425477  0.63053660  1
  N  N68  1  0.88797048  0.87297132  0.37210715  1
  N  N69  1  0.76392748  0.78350428  0.13290497  1
  N  N70  1  0.55666811  0.87278288  0.87582540  1
  N  N71  1  0.46317294  0.75265126  0.63136064  1
