# generated using pymatgen
data_Sc2Al7N9
_symmetry_space_group_name_H-M   'P 1'
_cell_length_a   10.14684386
_cell_length_b   10.13769619
_cell_length_c   8.92653024
_cell_angle_alpha   90.04098484
_cell_angle_beta   90.03963861
_cell_angle_gamma   60.31502235
_symmetry_Int_Tables_number   1
_chemical_formula_structural   Sc2Al7N9
_chemical_formula_sum   'Sc8 Al28 N36'
_cell_volume   797.72517350
_cell_formula_units_Z   4
loop_
 _symmetry_equiv_pos_site_id
 _symmetry_equiv_pos_as_xyz
  1  'x, y, z'
loop_
 _atom_site_type_symbol
 _atom_site_label
 _atom_site_symmetry_multiplicity
 _atom_site_fract_x
 _atom_site_fract_y
 _atom_site_fract_z
 _atom_site_occupancy
  Al  Al0  1  0.11205503  0.09298129  0.35062575  1
  Al  Al1  1  0.22749867  0.20147845  0.11950050  1
  Al  Al2  1  0.45295343  0.08799117  0.36125955  1
  Al  Al3  1  0.55763282  0.20517139  0.12281543  1
  Al  Al4  1  0.77388346  0.09109157  0.36144030  1
  Al  Al5  1  0.88289213  0.20767133  0.11908969  1
  Al  Al6  1  0.44409759  0.09617228  0.87673390  1
  Al  Al7  1  0.55722701  0.19977692  0.61398658  1
  Al  Al8  1  0.10529737  0.43036071  0.36298401  1
  Al  Al9  1  0.77071024  0.43424553  0.87157205  1
  Al  Al10  1  0.87885838  0.54852470  0.61498210  1
  Al  Al11  1  0.45401870  0.42373492  0.37214080  1
  Al  Al12  1  0.55635686  0.53550507  0.11962550  1
  Al  Al13  1  0.11085272  0.42732304  0.86500283  1
  Al  Al14  1  0.77151158  0.43713256  0.36278250  1
  Al  Al15  1  0.44969573  0.42529922  0.86418864  1
  Al  Al16  1  0.56089697  0.54199407  0.62010910  1
  Al  Al17  1  0.10353664  0.76494419  0.35683354  1
  Al  Al18  1  0.22478582  0.87048188  0.11745121  1
  Al  Al19  1  0.77532848  0.76410740  0.86420664  1
  Al  Al20  1  0.88428999  0.86818503  0.61451035  1
  Al  Al21  1  0.45305607  0.75746297  0.36127938  1
  Al  Al22  1  0.55555810  0.87488594  0.11649619  1
  Al  Al23  1  0.10971338  0.75836318  0.87742717  1
  Al  Al24  1  0.77265730  0.76489537  0.37361590  1
  Al  Al25  1  0.88137694  0.87842252  0.12318593  1
  Al  Al26  1  0.44845923  0.75644825  0.87568593  1
  Al  Al27  1  0.55944471  0.87016941  0.62227683  1
  Sc  Sc28  1  0.77347613  0.09106452  0.85859317  1
  Sc  Sc29  1  0.87909567  0.21491359  0.59905293  1
  Sc  Sc30  1  0.11239619  0.09355369  0.86256137  1
  Sc  Sc31  1  0.23072478  0.20576375  0.60195098  1
  Sc  Sc32  1  0.23063745  0.53430124  0.10950791  1
  Sc  Sc33  1  0.22192340  0.54073068  0.60604758  1
  Sc  Sc34  1  0.88363088  0.54529250  0.10644806  1
  Sc  Sc35  1  0.22957460  0.86171056  0.60213309  1
  N  N36  1  0.22549861  0.20531944  0.34325454  1
  N  N37  1  0.11108405  0.09362749  0.11144322  1
  N  N38  1  0.87718804  0.22423686  0.84878189  1
  N  N39  1  0.76964708  0.08267549  0.59056664  1
  N  N40  1  0.55503404  0.20688630  0.33995513  1
  N  N41  1  0.44606027  0.09423080  0.09694450  1
  N  N42  1  0.23208673  0.21199490  0.85023777  1
  N  N43  1  0.11190363  0.09254321  0.59366130  1
  N  N44  1  0.88523907  0.20837626  0.34357671  1
  N  N45  1  0.77606803  0.09453558  0.10482051  1
  N  N46  1  0.53749008  0.21224773  0.83557599  1
  N  N47  1  0.46665640  0.07943754  0.57902638  1
  N  N48  1  0.22835014  0.53416977  0.35117507  1
  N  N49  1  0.11788214  0.41103260  0.09412225  1
  N  N50  1  0.88469753  0.54171987  0.84463356  1
  N  N51  1  0.76710760  0.45047243  0.58320347  1
  N  N52  1  0.55403941  0.53930833  0.33543513  1
  N  N53  1  0.46593761  0.41519513  0.08442826  1
  N  N54  1  0.22336151  0.53969301  0.85334663  1
  N  N55  1  0.08881415  0.43959961  0.59072064  1
  N  N56  1  0.88490035  0.54623087  0.34733822  1
  N  N57  1  0.76857908  0.42219617  0.09516465  1
  N  N58  1  0.55572279  0.54163636  0.84021480  1
  N  N59  1  0.46802078  0.41746323  0.59116877  1
  N  N60  1  0.22748060  0.86835791  0.34052359  1
  N  N61  1  0.09828429  0.77845130  0.10131698  1
  N  N62  1  0.90072485  0.85228323  0.83583903  1
  N  N63  1  0.77287591  0.76369711  0.59364478  1
  N  N64  1  0.55858061  0.87008863  0.33252707  1
  N  N65  1  0.44769202  0.75841851  0.09454871  1
  N  N66  1  0.23297451  0.85048904  0.85416254  1
  N  N67  1  0.08982327  0.77017024  0.57542162  1
  N  N68  1  0.88220777  0.87235272  0.33971577  1
  N  N69  1  0.76596526  0.78361945  0.08154656  1
  N  N70  1  0.55096618  0.87547046  0.84281136  1
  N  N71  1  0.46639290  0.75193640  0.58207855  1
