# generated using pymatgen
data_Sc2Al7N9
_symmetry_space_group_name_H-M   'P 1'
_cell_length_a   10.00762506
_cell_length_b   10.00549612
_cell_length_c   9.33266279
_cell_angle_alpha   90.03429308
_cell_angle_beta   90.04413789
_cell_angle_gamma   60.31856282
_symmetry_Int_Tables_number   1
_chemical_formula_structural   Sc2Al7N9
_chemical_formula_sum   'Sc8 Al28 N36'
_cell_volume   811.87822426
_cell_formula_units_Z   4
loop_
 _symmetry_equiv_pos_site_id
 _symmetry_equiv_pos_as_xyz
  1  'x, y, z'
loop_
 _atom_site_type_symbol
 _atom_site_label
 _atom_site_symmetry_multiplicity
 _atom_site_fract_x
 _atom_site_fract_y
 _atom_site_fract_z
 _atom_site_occupancy
  Al  Al0  1  0.11207302  0.09289483  0.36284144  1
  Al  Al1  1  0.22736508  0.20071266  0.13230186  1
  Al  Al2  1  0.45447150  0.08760322  0.36950396  1
  Al  Al3  1  0.55932631  0.20410080  0.12819608  1
  Al  Al4  1  0.77294276  0.08976686  0.37414355  1
  Al  Al5  1  0.88326904  0.20625873  0.13237424  1
  Al  Al6  1  0.44250650  0.09704667  0.88154233  1
  Al  Al7  1  0.55658181  0.19998027  0.62265576  1
  Al  Al8  1  0.10232027  0.43347907  0.37311724  1
  Al  Al9  1  0.77046523  0.43188612  0.87864232  1
  Al  Al10  1  0.87837502  0.54906160  0.62897857  1
  Al  Al11  1  0.45443054  0.42337950  0.37779767  1
  Al  Al12  1  0.55699906  0.53491094  0.12553922  1
  Al  Al13  1  0.11407052  0.42445991  0.87527408  1
  Al  Al14  1  0.77147412  0.44009629  0.37173170  1
  Al  Al15  1  0.44896610  0.42568648  0.87252074  1
  Al  Al16  1  0.56141404  0.54196737  0.62694573  1
  Al  Al17  1  0.10327446  0.76373388  0.36505522  1
  Al  Al18  1  0.22406738  0.87188781  0.12895929  1
  Al  Al19  1  0.77415767  0.76591523  0.87185415  1
  Al  Al20  1  0.88470558  0.86638801  0.62272648  1
  Al  Al21  1  0.45414191  0.75666028  0.36981070  1
  Al  Al22  1  0.55489954  0.87557252  0.12319954  1
  Al  Al23  1  0.11049212  0.75879007  0.88322299  1
  Al  Al24  1  0.77403323  0.76288640  0.37979114  1
  Al  Al25  1  0.88064450  0.88058625  0.12886334  1
  Al  Al26  1  0.44711581  0.75704918  0.88056486  1
  Al  Al27  1  0.56021555  0.86971958  0.62747201  1
  Sc  Sc28  1  0.77436910  0.09187826  0.86277061  1
  Sc  Sc29  1  0.87809196  0.21623701  0.60174171  1
  Sc  Sc30  1  0.11252969  0.09377425  0.86877142  1
  Sc  Sc31  1  0.23052398  0.20669558  0.60523456  1
  Sc  Sc32  1  0.23023658  0.53468050  0.11398491  1
  Sc  Sc33  1  0.22198718  0.54049840  0.61146826  1
  Sc  Sc34  1  0.88361760  0.54478310  0.10782491  1
  Sc  Sc35  1  0.22949375  0.86133019  0.60668291  1
  N  N36  1  0.22564517  0.20648885  0.34205591  1
  N  N37  1  0.11055945  0.09416985  0.10731952  1
  N  N38  1  0.87796889  0.22491346  0.83309233  1
  N  N39  1  0.76910582  0.08097965  0.58640498  1
  N  N40  1  0.55583648  0.20617189  0.33241129  1
  N  N41  1  0.44463047  0.09481888  0.08906062  1
  N  N42  1  0.23212150  0.21196218  0.83662241  1
  N  N43  1  0.11212328  0.09246382  0.58071231  1
  N  N44  1  0.88353035  0.20902581  0.34395906  1
  N  N45  1  0.77709065  0.09538359  0.09487853  1
  N  N46  1  0.53604864  0.21336013  0.82809708  1
  N  N47  1  0.46850554  0.07849178  0.57227476  1
  N  N48  1  0.22777219  0.53458451  0.34820120  1
  N  N49  1  0.12015047  0.40757366  0.08336416  1
  N  N50  1  0.88493489  0.54163427  0.84310280  1
  N  N51  1  0.76653920  0.45400648  0.57586557  1
  N  N52  1  0.55472519  0.53912038  0.32835938  1
  N  N53  1  0.46695656  0.41431892  0.07802918  1
  N  N54  1  0.22353343  0.53937929  0.85167491  1
  N  N55  1  0.08564810  0.44221211  0.58024810  1
  N  N56  1  0.88478122  0.54616470  0.33470364  1
  N  N57  1  0.76914070  0.41877410  0.08541165  1
  N  N58  1  0.55539396  0.54156844  0.83322813  1
  N  N59  1  0.46972932  0.41655732  0.58256983  1
  N  N60  1  0.22752065  0.86751746  0.33883256  1
  N  N61  1  0.09822003  0.78041531  0.09259319  1
  N  N62  1  0.90175525  0.85068124  0.82793480  1
  N  N63  1  0.77372205  0.76226600  0.58619530  1
  N  N64  1  0.55878984  0.87000508  0.32672816  1
  N  N65  1  0.44638806  0.75900953  0.08708184  1
  N  N66  1  0.23284440  0.85045316  0.84153164  1
  N  N67  1  0.08838936  0.76992667  0.56815843  1
  N  N68  1  0.88215422  0.87262937  0.33250258  1
  N  N69  1  0.76484379  0.78628899  0.07458359  1
  N  N70  1  0.55085788  0.87551644  0.83477526  1
  N  N71  1  0.46783461  0.75112420  0.57472856  1
