# generated using pymatgen
data_Sc2Al7N9
_symmetry_space_group_name_H-M   'P 1'
_cell_length_a   10.05547704
_cell_length_b   10.04890094
_cell_length_c   9.19690023
_cell_angle_alpha   90.03503617
_cell_angle_beta   89.93125296
_cell_angle_gamma   60.29218050
_symmetry_Int_Tables_number   1
_chemical_formula_structural   Sc2Al7N9
_chemical_formula_sum   'Sc8 Al28 N36'
_cell_volume   807.16766650
_cell_formula_units_Z   4
loop_
 _symmetry_equiv_pos_site_id
 _symmetry_equiv_pos_as_xyz
  1  'x, y, z'
loop_
 _atom_site_type_symbol
 _atom_site_label
 _atom_site_symmetry_multiplicity
 _atom_site_fract_x
 _atom_site_fract_y
 _atom_site_fract_z
 _atom_site_occupancy
  Al  Al0  1  0.11304239  0.09253280  0.32810047  1
  Al  Al1  1  0.23041463  0.20215659  0.08945029  1
  Al  Al2  1  0.44646439  0.08981095  0.33102122  1
  Al  Al3  1  0.55251993  0.20657103  0.09145368  1
  Al  Al4  1  0.77725657  0.09144702  0.33006150  1
  Al  Al5  1  0.88072439  0.21119478  0.09662060  1
  Al  Al6  1  0.44939977  0.09496842  0.83523113  1
  Al  Al7  1  0.56199174  0.19799151  0.57550071  1
  Al  Al8  1  0.11106216  0.42444775  0.33450400  1
  Al  Al9  1  0.77078741  0.44016947  0.82849801  1
  Al  Al10  1  0.87959959  0.54985267  0.57901779  1
  Al  Al11  1  0.45207544  0.42573697  0.33659429  1
  Al  Al12  1  0.55819963  0.53495223  0.08234051  1
  Al  Al13  1  0.10488086  0.43296923  0.83474322  1
  Al  Al14  1  0.77182838  0.43064521  0.33679921  1
  Al  Al15  1  0.45126660  0.42433831  0.83025843  1
  Al  Al16  1  0.55947253  0.54247803  0.58099300  1
  Al  Al17  1  0.10635956  0.76670354  0.33254543  1
  Al  Al18  1  0.22614868  0.86653206  0.09055777  1
  Al  Al19  1  0.77779107  0.75928109  0.82853515  1
  Al  Al20  1  0.88051273  0.87260205  0.57720492  1
  Al  Al21  1  0.44800252  0.76045820  0.32732209  1
  Al  Al22  1  0.55442821  0.87627111  0.08097768  1
  Al  Al23  1  0.10749064  0.75674214  0.83599035  1
  Al  Al24  1  0.77013982  0.76946397  0.33595567  1
  Al  Al25  1  0.88583082  0.87254180  0.08927469  1
  Al  Al26  1  0.45304858  0.75417189  0.83958131  1
  Al  Al27  1  0.56091798  0.86929399  0.58451893  1
  Sc  Sc28  1  0.77148990  0.09062829  0.85173993  1
  Sc  Sc29  1  0.88054406  0.21036347  0.59284448  1
  Sc  Sc30  1  0.11154622  0.09420561  0.85907708  1
  Sc  Sc31  1  0.22812846  0.20547819  0.59552594  1
  Sc  Sc32  1  0.22858834  0.53756375  0.09596686  1
  Sc  Sc33  1  0.22344483  0.53853974  0.59512615  1
  Sc  Sc34  1  0.88219846  0.54369579  0.09884583  1
  Sc  Sc35  1  0.22929301  0.86455723  0.59528611  1
  N  N36  1  0.22457646  0.20215842  0.35881121  1
  N  N37  1  0.11287660  0.09279646  0.11105104  1
  N  N38  1  0.87288463  0.22918062  0.86993668  1
  N  N39  1  0.76958409  0.08242986  0.61516158  1
  N  N40  1  0.55625894  0.20258539  0.36506675  1
  N  N41  1  0.44579434  0.09129488  0.12307451  1
  N  N42  1  0.23269227  0.21547952  0.86805282  1
  N  N43  1  0.11069474  0.09302902  0.62327808  1
  N  N44  1  0.88955140  0.20363318  0.35297752  1
  N  N45  1  0.77598761  0.09298832  0.11549021  1
  N  N46  1  0.53588825  0.21712827  0.88318898  1
  N  N47  1  0.46692877  0.08286655  0.62508741  1
  N  N48  1  0.22376476  0.53927830  0.35655786  1
  N  N49  1  0.11834787  0.41104107  0.12368666  1
  N  N50  1  0.88402270  0.54348009  0.86549337  1
  N  N51  1  0.76853649  0.44959466  0.61631092  1
  N  N52  1  0.55290264  0.54404285  0.37323170  1
  N  N53  1  0.46460167  0.41865552  0.12931292  1
  N  N54  1  0.22655468  0.53621816  0.85485928  1
  N  N55  1  0.08764017  0.43992985  0.62016925  1
  N  N56  1  0.88579073  0.54330882  0.36369752  1
  N  N57  1  0.76612649  0.42296697  0.12960133  1
  N  N58  1  0.55661593  0.53758366  0.87426769  1
  N  N59  1  0.47081665  0.41353737  0.61850924  1
  N  N60  1  0.22591623  0.87107082  0.35591901  1
  N  N61  1  0.09978056  0.77891864  0.12442322  1
  N  N62  1  0.89714690  0.84947490  0.88109371  1
  N  N63  1  0.77552121  0.76347057  0.61709585  1
  N  N64  1  0.55205706  0.87305998  0.37469584  1
  N  N65  1  0.44908830  0.75851250  0.11801686  1
  N  N66  1  0.23446511  0.84790024  0.87159955  1
  N  N67  1  0.08743352  0.77161237  0.62313940  1
  N  N68  1  0.88696824  0.87327266  0.36755952  1
  N  N69  1  0.76276056  0.78363954  0.13034055  1
  N  N70  1  0.55751470  0.87333143  0.87325618  1
  N  N71  1  0.46653709  0.75146579  0.63020162  1
