# generated using pymatgen
data_Sc2Al7N9
_symmetry_space_group_name_H-M   'P 1'
_cell_length_a   9.95642193
_cell_length_b   9.95452474
_cell_length_c   9.48431242
_cell_angle_alpha   90.02261364
_cell_angle_beta   89.91682389
_cell_angle_gamma   60.29364047
_symmetry_Int_Tables_number   1
_chemical_formula_structural   Sc2Al7N9
_chemical_formula_sum   'Sc8 Al28 N36'
_cell_volume   816.46381661
_cell_formula_units_Z   4
loop_
 _symmetry_equiv_pos_site_id
 _symmetry_equiv_pos_as_xyz
  1  'x, y, z'
loop_
 _atom_site_type_symbol
 _atom_site_label
 _atom_site_symmetry_multiplicity
 _atom_site_fract_x
 _atom_site_fract_y
 _atom_site_fract_z
 _atom_site_occupancy
  Al  Al0  1  0.11288112  0.09290568  0.31957404  1
  Al  Al1  1  0.23119418  0.20287241  0.08038644  1
  Al  Al2  1  0.44540634  0.09072475  0.32765194  1
  Al  Al3  1  0.55210062  0.20661796  0.08606050  1
  Al  Al4  1  0.77757427  0.09191649  0.32357013  1
  Al  Al5  1  0.87975899  0.21223231  0.08668558  1
  Al  Al6  1  0.44959726  0.09482988  0.83088378  1
  Al  Al7  1  0.56277398  0.19756520  0.57355401  1
  Al  Al8  1  0.11256080  0.42291848  0.33004070  1
  Al  Al9  1  0.77099764  0.44083714  0.82573943  1
  Al  Al10  1  0.87938109  0.54966936  0.57351144  1
  Al  Al11  1  0.45189058  0.42547273  0.33213409  1
  Al  Al12  1  0.55796121  0.53529411  0.07860014  1
  Al  Al13  1  0.10380079  0.43413166  0.82938374  1
  Al  Al14  1  0.77215751  0.42884835  0.33156354  1
  Al  Al15  1  0.45093899  0.42467899  0.82693091  1
  Al  Al16  1  0.56023421  0.54179712  0.57825449  1
  Al  Al17  1  0.10649336  0.76741959  0.32849884  1
  Al  Al18  1  0.22693054  0.86540796  0.08318914  1
  Al  Al19  1  0.77839666  0.75808803  0.82523877  1
  Al  Al20  1  0.88028962  0.87308182  0.57505643  1
  Al  Al21  1  0.44710789  0.76078898  0.32505765  1
  Al  Al22  1  0.55412161  0.87640003  0.07815693  1
  Al  Al23  1  0.10795597  0.75587945  0.83102033  1
  Al  Al24  1  0.77017971  0.77037115  0.33226432  1
  Al  Al25  1  0.88620507  0.87232184  0.08412871  1
  Al  Al26  1  0.45336424  0.75391548  0.83440458  1
  Al  Al27  1  0.56137901  0.86917426  0.58094837  1
  Sc  Sc28  1  0.77144378  0.09025085  0.84819960  1
  Sc  Sc29  1  0.88080688  0.20978749  0.58844166  1
  Sc  Sc30  1  0.11174265  0.09380262  0.85730555  1
  Sc  Sc31  1  0.22719194  0.20502311  0.59213537  1
  Sc  Sc32  1  0.22827631  0.53786057  0.09136560  1
  Sc  Sc33  1  0.22375932  0.53839136  0.59159576  1
  Sc  Sc34  1  0.88247252  0.54374644  0.09631123  1
  Sc  Sc35  1  0.22821039  0.86621545  0.59060001  1
  N  N36  1  0.22377158  0.20153897  0.36493096  1
  N  N37  1  0.11327972  0.09282375  0.11006640  1
  N  N38  1  0.87154349  0.23051946  0.87657406  1
  N  N39  1  0.76960316  0.08205750  0.62257988  1
  N  N40  1  0.55682657  0.20247813  0.37021485  1
  N  N41  1  0.44534313  0.09179559  0.12691501  1
  N  N42  1  0.23289560  0.21679372  0.87169901  1
  N  N43  1  0.10978230  0.09342675  0.63437539  1
  N  N44  1  0.89035867  0.20288195  0.35805966  1
  N  N45  1  0.77592047  0.09309797  0.11670724  1
  N  N46  1  0.53485090  0.21769366  0.88660482  1
  N  N47  1  0.46709989  0.08260464  0.62963134  1
  N  N48  1  0.22366558  0.53953493  0.35885562  1
  N  N49  1  0.11955671  0.40970560  0.12917253  1
  N  N50  1  0.88440591  0.54325154  0.87151739  1
  N  N51  1  0.76902828  0.44977746  0.62263399  1
  N  N52  1  0.55338221  0.54324170  0.37744343  1
  N  N53  1  0.46502741  0.41820953  0.13268632  1
  N  N54  1  0.22640359  0.53589567  0.85657938  1
  N  N55  1  0.08653803  0.44047367  0.62545549  1
  N  N56  1  0.88584216  0.54278507  0.36558888  1
  N  N57  1  0.76569102  0.42249455  0.13303268  1
  N  N58  1  0.55650112  0.53802940  0.87803274  1
  N  N59  1  0.47167282  0.41311207  0.62384290  1
  N  N60  1  0.22469250  0.87277814  0.36128270  1
  N  N61  1  0.09945552  0.77998355  0.12885031  1
  N  N62  1  0.89812938  0.84790161  0.88482547  1
  N  N63  1  0.77601057  0.76272821  0.62131708  1
  N  N64  1  0.55203316  0.87340879  0.37840213  1
  N  N65  1  0.44877484  0.75844499  0.12312496  1
  N  N66  1  0.23547187  0.84594242  0.87576307  1
  N  N67  1  0.08717052  0.77193183  0.62866182  1
  N  N68  1  0.88684535  0.87419755  0.37268870  1
  N  N69  1  0.76247995  0.78490810  0.13438318  1
  N  N70  1  0.55736735  0.87321216  0.87729184  1
  N  N71  1  0.46656292  0.75139360  0.63338260  1
