# generated using pymatgen
data_Sc2Al7N9
_symmetry_space_group_name_H-M   'P 1'
_cell_length_a   10.26518909
_cell_length_b   10.25070131
_cell_length_c   8.59868181
_cell_angle_alpha   90.04013880
_cell_angle_beta   90.01752121
_cell_angle_gamma   60.29689235
_symmetry_Int_Tables_number   1
_chemical_formula_structural   Sc2Al7N9
_chemical_formula_sum   'Sc8 Al28 N36'
_cell_volume   785.91295736
_cell_formula_units_Z   4
loop_
 _symmetry_equiv_pos_site_id
 _symmetry_equiv_pos_as_xyz
  1  'x, y, z'
loop_
 _atom_site_type_symbol
 _atom_site_label
 _atom_site_symmetry_multiplicity
 _atom_site_fract_x
 _atom_site_fract_y
 _atom_site_fract_z
 _atom_site_occupancy
  Al  Al0  1  0.11225900  0.09294305  0.34725710  1
  Al  Al1  1  0.22834035  0.20212182  0.10956695  1
  Al  Al2  1  0.45061619  0.08945821  0.35289940  1
  Al  Al3  1  0.55589490  0.20482450  0.11121830  1
  Al  Al4  1  0.77469347  0.09140212  0.35186202  1
  Al  Al5  1  0.88189583  0.20956279  0.10999784  1
  Al  Al6  1  0.44609449  0.09466011  0.86388071  1
  Al  Al7  1  0.55824144  0.20073653  0.60052086  1
  Al  Al8  1  0.10736391  0.42795677  0.35274648  1
  Al  Al9  1  0.77081920  0.43619567  0.85369152  1
  Al  Al10  1  0.87979246  0.54896600  0.60256257  1
  Al  Al11  1  0.45332773  0.42376869  0.35661837  1
  Al  Al12  1  0.55682000  0.53685968  0.10747798  1
  Al  Al13  1  0.10866579  0.42910212  0.85385295  1
  Al  Al14  1  0.77217740  0.43415668  0.35266066  1
  Al  Al15  1  0.45027705  0.42549969  0.85501619  1
  Al  Al16  1  0.55969098  0.54110201  0.60403247  1
  Al  Al17  1  0.10398012  0.76566262  0.35180912  1
  Al  Al18  1  0.22521577  0.86879959  0.10890092  1
  Al  Al19  1  0.77536190  0.76281450  0.85596586  1
  Al  Al20  1  0.88251327  0.86966620  0.60186292  1
  Al  Al21  1  0.45088045  0.75861256  0.35107806  1
  Al  Al22  1  0.55417247  0.87532452  0.10735693  1
  Al  Al23  1  0.10880633  0.75854495  0.86410345  1
  Al  Al24  1  0.77258050  0.76600269  0.35749459  1
  Al  Al25  1  0.88404728  0.87617194  0.11196582  1
  Al  Al26  1  0.45032777  0.75593989  0.86265671  1
  Al  Al27  1  0.56093144  0.86963469  0.60891971  1
  Sc  Sc28  1  0.77301333  0.09095988  0.85626906  1
  Sc  Sc29  1  0.88018467  0.21327637  0.59734206  1
  Sc  Sc30  1  0.11208159  0.09382855  0.86224410  1
  Sc  Sc31  1  0.22985617  0.20577733  0.60047967  1
  Sc  Sc32  1  0.22860199  0.53625181  0.10561791  1
  Sc  Sc33  1  0.22335749  0.53926147  0.60268397  1
  Sc  Sc34  1  0.88380735  0.54322981  0.10400810  1
  Sc  Sc35  1  0.22941245  0.86276882  0.60084698  1
  N  N36  1  0.22609216  0.20443923  0.34449385  1
  N  N37  1  0.11185620  0.09305976  0.11378034  1
  N  N38  1  0.87709289  0.22408892  0.86002852  1
  N  N39  1  0.77005490  0.08390478  0.59385625  1
  N  N40  1  0.55481798  0.20543966  0.34902338  1
  N  N41  1  0.44663397  0.09295858  0.10430565  1
  N  N42  1  0.23186200  0.21207744  0.86031321  1
  N  N43  1  0.11163721  0.09281827  0.59662243  1
  N  N44  1  0.88599930  0.20798159  0.34358197  1
  N  N45  1  0.77558121  0.09377971  0.11210597  1
  N  N46  1  0.53923257  0.21289866  0.85204894  1
  N  N47  1  0.46457761  0.08202517  0.59464495  1
  N  N48  1  0.22623574  0.53599612  0.35294178  1
  N  N49  1  0.11653427  0.41293451  0.10442816  1
  N  N50  1  0.88446891  0.54289243  0.84677908  1
  N  N51  1  0.76820968  0.44783524  0.59823707  1
  N  N52  1  0.55441043  0.54069444  0.34930490  1
  N  N53  1  0.46368524  0.41748861  0.10168279  1
  N  N54  1  0.22447846  0.53879801  0.85388931  1
  N  N55  1  0.09100761  0.43790909  0.60233841  1
  N  N56  1  0.88537612  0.54447548  0.35853686  1
  N  N57  1  0.76805802  0.42401770  0.10684455  1
  N  N58  1  0.55548120  0.54020925  0.85258553  1
  N  N59  1  0.46685703  0.41708389  0.59984102  1
  N  N60  1  0.22730548  0.86786154  0.34250452  1
  N  N61  1  0.09916937  0.77724105  0.10638552  1
  N  N62  1  0.89735060  0.85425230  0.85087013  1
  N  N63  1  0.77354906  0.76420845  0.60030653  1
  N  N64  1  0.55605423  0.87154759  0.34586252  1
  N  N65  1  0.44851058  0.75847136  0.10242223  1
  N  N66  1  0.23296067  0.85165263  0.86258377  1
  N  N67  1  0.09081668  0.77015478  0.59171304  1
  N  N68  1  0.88466343  0.87198148  0.34877969  1
  N  N69  1  0.76652554  0.78036171  0.09921684  1
  N  N70  1  0.55375942  0.87420211  0.85296223  1
  N  N71  1  0.46443201  0.75272911  0.59833885  1
