# generated using pymatgen
data_Sc2Al7N9
_symmetry_space_group_name_H-M   'P 1'
_cell_length_a   10.23053196
_cell_length_b   10.21576056
_cell_length_c   8.69357328
_cell_angle_alpha   90.03184031
_cell_angle_beta   89.95636188
_cell_angle_gamma   60.28487341
_symmetry_Int_Tables_number   1
_chemical_formula_structural   Sc2Al7N9
_chemical_formula_sum   'Sc8 Al28 N36'
_cell_volume   789.10905431
_cell_formula_units_Z   4
loop_
 _symmetry_equiv_pos_site_id
 _symmetry_equiv_pos_as_xyz
  1  'x, y, z'
loop_
 _atom_site_type_symbol
 _atom_site_label
 _atom_site_symmetry_multiplicity
 _atom_site_fract_x
 _atom_site_fract_y
 _atom_site_fract_z
 _atom_site_occupancy
  Al  Al0  1  0.11242573  0.09277107  0.34538764  1
  Al  Al1  1  0.22888089  0.20169540  0.10630999  1
  Al  Al2  1  0.44861991  0.08963964  0.34197927  1
  Al  Al3  1  0.55443775  0.20551953  0.10266374  1
  Al  Al4  1  0.77589696  0.09130475  0.34569814  1
  Al  Al5  1  0.88168202  0.20984892  0.10896743  1
  Al  Al6  1  0.44794083  0.09452983  0.84918703  1
  Al  Al7  1  0.55959992  0.20000695  0.58584626  1
  Al  Al8  1  0.10754976  0.42784008  0.34859529  1
  Al  Al9  1  0.77051296  0.43735511  0.84163434  1
  Al  Al10  1  0.88005801  0.54929172  0.59657638  1
  Al  Al11  1  0.45255905  0.42500169  0.34657412  1
  Al  Al12  1  0.55762762  0.53600118  0.09488081  1
  Al  Al13  1  0.10847957  0.42945459  0.85083741  1
  Al  Al14  1  0.77220257  0.43341674  0.34725799  1
  Al  Al15  1  0.45105596  0.42481320  0.84317089  1
  Al  Al16  1  0.55914945  0.54190455  0.59059736  1
  Al  Al17  1  0.10535458  0.76531152  0.34568215  1
  Al  Al18  1  0.22502042  0.86852453  0.10482904  1
  Al  Al19  1  0.77580373  0.76206921  0.84215658  1
  Al  Al20  1  0.88134438  0.87085943  0.58796964  1
  Al  Al21  1  0.44944087  0.75948767  0.33758923  1
  Al  Al22  1  0.55398315  0.87596469  0.09293538  1
  Al  Al23  1  0.10810664  0.75837087  0.85385423  1
  Al  Al24  1  0.77168218  0.76661843  0.34536638  1
  Al  Al25  1  0.88497972  0.87464616  0.10290781  1
  Al  Al26  1  0.45181303  0.75516375  0.85111629  1
  Al  Al27  1  0.56092258  0.86934764  0.59428145  1
  Sc  Sc28  1  0.77231319  0.09097898  0.85548163  1
  Sc  Sc29  1  0.88040912  0.21223235  0.59673707  1
  Sc  Sc30  1  0.11183915  0.09414812  0.86219767  1
  Sc  Sc31  1  0.22932969  0.20610416  0.59964565  1
  Sc  Sc32  1  0.22861836  0.53701770  0.10305027  1
  Sc  Sc33  1  0.22333326  0.53874913  0.60072439  1
  Sc  Sc34  1  0.88283608  0.54304414  0.10202512  1
  Sc  Sc35  1  0.23000017  0.86283049  0.60039888  1
  N  N36  1  0.22570524  0.20414570  0.34678740  1
  N  N37  1  0.11190955  0.09305311  0.11369067  1
  N  N38  1  0.87606442  0.22550111  0.86140657  1
  N  N39  1  0.76990461  0.08363039  0.59789867  1
  N  N40  1  0.55482272  0.20399668  0.35494408  1
  N  N41  1  0.44618923  0.09179302  0.11223609  1
  N  N42  1  0.23227934  0.21242030  0.86179783  1
  N  N43  1  0.11167979  0.09271014  0.59972000  1
  N  N44  1  0.88698301  0.20661532  0.34556835  1
  N  N45  1  0.77586583  0.09353184  0.11411236  1
  N  N46  1  0.53876713  0.21468082  0.86913621  1
  N  N47  1  0.46523832  0.08315901  0.61052705  1
  N  N48  1  0.22457158  0.53782499  0.35371700  1
  N  N49  1  0.11662006  0.41287848  0.10823996  1
  N  N50  1  0.88442119  0.54310458  0.85001368  1
  N  N51  1  0.76806992  0.44814591  0.60472499  1
  N  N52  1  0.55351591  0.54312489  0.36071212  1
  N  N53  1  0.46339273  0.41876573  0.11641725  1
  N  N54  1  0.22596741  0.53744278  0.85356235  1
  N  N55  1  0.09060762  0.43817272  0.60570325  1
  N  N56  1  0.88529890  0.54406773  0.36066378  1
  N  N57  1  0.76769051  0.42354799  0.11651911  1
  N  N58  1  0.55609847  0.53824092  0.86403027  1
  N  N59  1  0.46822676  0.41547605  0.60731276  1
  N  N60  1  0.22747779  0.86809806  0.34524724  1
  N  N61  1  0.10021615  0.77709287  0.11190662  1
  N  N62  1  0.89612503  0.85343704  0.86638633  1
  N  N63  1  0.77434539  0.76442064  0.60755906  1
  N  N64  1  0.55356649  0.87229839  0.36127110  1
  N  N65  1  0.44893695  0.75871754  0.10797053  1
  N  N66  1  0.23303718  0.85144405  0.86504909  1
  N  N67  1  0.08963238  0.77076828  0.60429638  1
  N  N68  1  0.88628227  0.87182199  0.35518858  1
  N  N69  1  0.76495093  0.78052024  0.11528154  1
  N  N70  1  0.55621659  0.87362031  0.86322494  1
  N  N71  1  0.46502345  0.75216276  0.61655735  1
