# generated using pymatgen
data_Sc2Al7N9
_symmetry_space_group_name_H-M   'P 1'
_cell_length_a   9.79079666
_cell_length_b   9.79540622
_cell_length_c   9.94766883
_cell_angle_alpha   89.99420249
_cell_angle_beta   89.88078133
_cell_angle_gamma   60.26799318
_symmetry_Int_Tables_number   1
_chemical_formula_structural   Sc2Al7N9
_chemical_formula_sum   'Sc8 Al28 N36'
_cell_volume   828.43363285
_cell_formula_units_Z   4
loop_
 _symmetry_equiv_pos_site_id
 _symmetry_equiv_pos_as_xyz
  1  'x, y, z'
loop_
 _atom_site_type_symbol
 _atom_site_label
 _atom_site_symmetry_multiplicity
 _atom_site_fract_x
 _atom_site_fract_y
 _atom_site_fract_z
 _atom_site_occupancy
  Al  Al0  1  0.11227352  0.09356103  0.31056860  1
  Al  Al1  1  0.23097756  0.20380265  0.07449543  1
  Al  Al2  1  0.44514725  0.09177575  0.32292267  1
  Al  Al3  1  0.55303745  0.20605029  0.07978206  1
  Al  Al4  1  0.77719884  0.09228225  0.31855472  1
  Al  Al5  1  0.87924671  0.21215195  0.07932751  1
  Al  Al6  1  0.44837231  0.09525456  0.82754974  1
  Al  Al7  1  0.56236621  0.19798361  0.57164911  1
  Al  Al8  1  0.11274928  0.42361522  0.32463514  1
  Al  Al9  1  0.77133690  0.43965753  0.82324793  1
  Al  Al10  1  0.87968155  0.54855458  0.57102162  1
  Al  Al11  1  0.45058309  0.42554930  0.32631547  1
  Al  Al12  1  0.55760812  0.53590496  0.07481383  1
  Al  Al13  1  0.10463926  0.43333644  0.82348949  1
  Al  Al14  1  0.77285001  0.42828069  0.32514896  1
  Al  Al15  1  0.45041887  0.42525520  0.82359973  1
  Al  Al16  1  0.56093086  0.54071004  0.57566832  1
  Al  Al17  1  0.10677810  0.76663131  0.32272808  1
  Al  Al18  1  0.22708728  0.86526326  0.07768457  1
  Al  Al19  1  0.77857020  0.75761968  0.82186318  1
  Al  Al20  1  0.88102511  0.87268390  0.57233246  1
  Al  Al21  1  0.44682152  0.76060942  0.32204334  1
  Al  Al22  1  0.55378829  0.87642245  0.07522708  1
  Al  Al23  1  0.10925220  0.75560446  0.82646821  1
  Al  Al24  1  0.77145839  0.76935761  0.32816370  1
  Al  Al25  1  0.88599597  0.87343197  0.07902961  1
  Al  Al26  1  0.45239560  0.75422518  0.82937703  1
  Al  Al27  1  0.56172506  0.86915898  0.57757792  1
  Sc  Sc28  1  0.77229410  0.09018002  0.83940360  1
  Sc  Sc29  1  0.88177574  0.20956018  0.57830011  1
  Sc  Sc30  1  0.11233215  0.09328407  0.85349109  1
  Sc  Sc31  1  0.22637371  0.20398886  0.58281132  1
  Sc  Sc32  1  0.22781434  0.53826357  0.08060900  1
  Sc  Sc33  1  0.22419655  0.53848264  0.58542196  1
  Sc  Sc34  1  0.88295665  0.54369141  0.08760105  1
  Sc  Sc35  1  0.22652549  0.86866767  0.58045942  1
  N  N36  1  0.22268113  0.20156984  0.36796136  1
  N  N37  1  0.11302381  0.09323459  0.11126629  1
  N  N38  1  0.87047554  0.23101158  0.88609757  1
  N  N39  1  0.77027206  0.08244164  0.62690653  1
  N  N40  1  0.55622877  0.20323759  0.37697803  1
  N  N41  1  0.44538193  0.09244424  0.13114091  1
  N  N42  1  0.23281614  0.21821488  0.87967017  1
  N  N43  1  0.10881435  0.09398487  0.64370793  1
  N  N44  1  0.89090148  0.20281383  0.36147565  1
  N  N45  1  0.77560100  0.09345932  0.12198413  1
  N  N46  1  0.53515405  0.21755791  0.89040979  1
  N  N47  1  0.46592918  0.08305905  0.63595730  1
  N  N48  1  0.22330428  0.53992330  0.36425483  1
  N  N49  1  0.12005182  0.41004638  0.13530742  1
  N  N50  1  0.88545316  0.54234693  0.87461100  1
  N  N51  1  0.76961298  0.44849089  0.63085355  1
  N  N52  1  0.55406938  0.54181563  0.38270629  1
  N  N53  1  0.46455477  0.41801916  0.13646145  1
  N  N54  1  0.22609758  0.53554482  0.85909574  1
  N  N55  1  0.08746125  0.43905774  0.63187177  1
  N  N56  1  0.88607153  0.54185008  0.37197747  1
  N  N57  1  0.76578806  0.42247521  0.13686361  1
  N  N58  1  0.55617215  0.53860165  0.88289622  1
  N  N59  1  0.47198300  0.41298782  0.63104405  1
  N  N60  1  0.22314071  0.87428548  0.36426180  1
  N  N61  1  0.09920433  0.78004187  0.13364141  1
  N  N62  1  0.89887063  0.84743167  0.88953919  1
  N  N63  1  0.77658728  0.76217786  0.62714984  1
  N  N64  1  0.55230971  0.87373004  0.38322157  1
  N  N65  1  0.44873268  0.75832925  0.12920409  1
  N  N66  1  0.23623854  0.84419024  0.88388431  1
  N  N67  1  0.08792634  0.77293165  0.63594675  1
  N  N68  1  0.88732583  0.87408708  0.37878636  1
  N  N69  1  0.76306016  0.78503822  0.13926320  1
  N  N70  1  0.55684294  0.87305444  0.88229013  1
  N  N71  1  0.46480632  0.75195162  0.63759454  1
