
#======================================================================
# CRYSTAL DATA
#----------------------------------------------------------------------
data_VESTA_phase_1

_chemical_name_common                  'Al   Mg   Hf   N                      '
_cell_length_a                         10.119308
_cell_length_b                         10.179102
_cell_length_c                         8.515462
_cell_angle_alpha                      89.938492
_cell_angle_beta                       90.034340
_cell_angle_gamma                      60.074661
_cell_volume                           760.194570
_space_group_name_H-M_alt              'P 1'
_space_group_IT_number                 1

loop_
_space_group_symop_operation_xyz
   'x, y, z'

loop_
   _atom_site_label
   _atom_site_occupancy
   _atom_site_fract_x
   _atom_site_fract_y
   _atom_site_fract_z
   _atom_site_adp_type
   _atom_site_U_iso_or_equiv
   _atom_site_type_symbol
   Al1        1.0     0.106370     0.100599     0.361636    Uiso  ? Al
   Al2        1.0     0.211546     0.214952     0.113972    Uiso  ? Al
   Al3        1.0     0.883270     0.210003     0.603905    Uiso  ? Al
   Al4        1.0     0.441272     0.101416     0.345973    Uiso  ? Al
   Al5        1.0     0.562142     0.213191     0.109516    Uiso  ? Al
   Al6        1.0     0.106273     0.103245     0.839453    Uiso  ? Al
   Al7        1.0     0.215859     0.213875     0.594638    Uiso  ? Al
   Al8        1.0     0.781683     0.093156     0.355065    Uiso  ? Al
   Al9        1.0     0.884113     0.211055     0.099933    Uiso  ? Al
   Al10       1.0     0.557653     0.214927     0.591215    Uiso  ? Al
   Al11       1.0     0.110583     0.431377     0.354446    Uiso  ? Al
   Al12       1.0     0.221251     0.536502     0.100771    Uiso  ? Al
   Al13       1.0     0.779745     0.427672     0.852632    Uiso  ? Al
   Al14       1.0     0.893104     0.531285     0.602685    Uiso  ? Al
   Al15       1.0     0.439906     0.431264     0.351132    Uiso  ? Al
   Al16       1.0     0.561273     0.532069     0.105322    Uiso  ? Al
   Al17       1.0     0.107196     0.431876     0.854866    Uiso  ? Al
   Al18       1.0     0.224214     0.537979     0.607369    Uiso  ? Al
   Al19       1.0     0.779799     0.425635     0.354522    Uiso  ? Al
   Al20       1.0     0.889388     0.534042     0.107564    Uiso  ? Al
   Al21       1.0     0.441885     0.432501     0.855222    Uiso  ? Al
   Al22       1.0     0.558181     0.530269     0.601616    Uiso  ? Al
   Al23       1.0     0.107266     0.756652     0.362689    Uiso  ? Al
   Al24       1.0     0.786837     0.751226     0.866205    Uiso  ? Al
   Al25       1.0     0.445609     0.752203     0.353502    Uiso  ? Al
   Al26       1.0     0.562381     0.862994     0.112899    Uiso  ? Al
   Al27       1.0     0.221002     0.869578     0.603765    Uiso  ? Al
   Al28       1.0     0.791301     0.752750     0.349165    Uiso  ? Al
   Al29       1.0     0.884165     0.874182     0.099856    Uiso  ? Al
   Al30       1.0     0.448840     0.751532     0.852765    Uiso  ? Al
   Mg1        1.0     0.780557     0.095186     0.851014    Uiso  ? Mg
   Mg2        1.0     0.889270     0.874700     0.609560    Uiso  ? Mg
   Mg3        1.0     0.106262     0.756794     0.845526    Uiso  ? Mg
   Hf1        1.0     0.442160     0.101220     0.861702    Uiso  ? Hf
   Hf2        1.0     0.217758     0.875577     0.101930    Uiso  ? Hf
   Hf3        1.0     0.561430     0.865272     0.596819    Uiso  ? Hf
   N1         1.0     0.220882     0.208830     0.354848    Uiso  ? N
   N2         1.0     0.101468     0.111309     0.109956    Uiso  ? N
   N3         1.0     0.894850     0.214186     0.851930    Uiso  ? N
   N4         1.0     0.769516     0.109337     0.591190    Uiso  ? N
   N5         1.0     0.550141     0.210090     0.349378    Uiso  ? N
   N6         1.0     0.441680     0.092372     0.112970    Uiso  ? N
   N7         1.0     0.207068     0.216706     0.853662    Uiso  ? N
   N8         1.0     0.112743     0.095874     0.600875    Uiso  ? N
   N9         1.0     0.890203     0.209266     0.356957    Uiso  ? N
   N10        1.0     0.779308     0.098778     0.116818    Uiso  ? N
   N11        1.0     0.549554     0.222861     0.864396    Uiso  ? N
   N12        1.0     0.439644     0.108310     0.599674    Uiso  ? N
   N13        1.0     0.221939     0.536346     0.352181    Uiso  ? N
   N14        1.0     0.109724     0.428381     0.105462    Uiso  ? N
   N15        1.0     0.889330     0.536677     0.855307    Uiso  ? N
   N16        1.0     0.777057     0.429306     0.602934    Uiso  ? N
   N17        1.0     0.557451     0.535935     0.354053    Uiso  ? N
   N18        1.0     0.443362     0.432605     0.108315    Uiso  ? N
   N19        1.0     0.228441     0.524332     0.854658    Uiso  ? N
   N20        1.0     0.110891     0.428099     0.601363    Uiso  ? N
   N21        1.0     0.891896     0.533237     0.350400    Uiso  ? N
   N22        1.0     0.776948     0.427690     0.104342    Uiso  ? N
   N23        1.0     0.556595     0.537060     0.853449    Uiso  ? N
   N24        1.0     0.444143     0.428362     0.600928    Uiso  ? N
   N25        1.0     0.224132     0.875378     0.359173    Uiso  ? N
   N26        1.0     0.107429     0.752883     0.111314    Uiso  ? N
   N27        1.0     0.876733     0.868133     0.867136    Uiso  ? N
   N28        1.0     0.789669     0.741381     0.593779    Uiso  ? N
   N29        1.0     0.552857     0.872516     0.345967    Uiso  ? N
   N30        1.0     0.458051     0.749784     0.105789    Uiso  ? N
   N31        1.0     0.230543     0.882449     0.846985    Uiso  ? N
   N32        1.0     0.125089     0.752743     0.594096    Uiso  ? N
   N33        1.0     0.888017     0.871582     0.342916    Uiso  ? N
   N34        1.0     0.777557     0.753394     0.109537    Uiso  ? N
   N35        1.0     0.563181     0.856848     0.857556    Uiso  ? N
   N36        1.0     0.442686     0.747999     0.600957    Uiso  ? N
