
#======================================================================
# CRYSTAL DATA
#----------------------------------------------------------------------
data_VESTA_phase_1

_chemical_name_common                  'Al   Mg   Hf   N                      '
_cell_length_a                         9.973122
_cell_length_b                         10.030033
_cell_length_c                         8.935888
_cell_angle_alpha                      89.911697
_cell_angle_beta                       90.034828
_cell_angle_gamma                      60.068760
_cell_volume                           774.642418
_space_group_name_H-M_alt              'P 1'
_space_group_IT_number                 1

loop_
_space_group_symop_operation_xyz
   'x, y, z'

loop_
   _atom_site_label
   _atom_site_occupancy
   _atom_site_fract_x
   _atom_site_fract_y
   _atom_site_fract_z
   _atom_site_adp_type
   _atom_site_U_iso_or_equiv
   _atom_site_type_symbol
   Al1        1.0     0.105046     0.102223     0.351291    Uiso  ? Al
   Al2        1.0     0.208084     0.216297     0.099205    Uiso  ? Al
   Al3        1.0     0.882337     0.210960     0.591690    Uiso  ? Al
   Al4        1.0     0.441933     0.098784     0.330223    Uiso  ? Al
   Al5        1.0     0.562838     0.214985     0.103957    Uiso  ? Al
   Al6        1.0     0.108146     0.101706     0.826592    Uiso  ? Al
   Al7        1.0     0.219115     0.213031     0.578662    Uiso  ? Al
   Al8        1.0     0.783376     0.092525     0.351324    Uiso  ? Al
   Al9        1.0     0.884562     0.210570     0.080906    Uiso  ? Al
   Al10       1.0     0.555079     0.214590     0.574606    Uiso  ? Al
   Al11       1.0     0.111736     0.431710     0.337171    Uiso  ? Al
   Al12       1.0     0.221703     0.535447     0.080555    Uiso  ? Al
   Al13       1.0     0.780352     0.428609     0.836045    Uiso  ? Al
   Al14       1.0     0.893172     0.529534     0.581175    Uiso  ? Al
   Al15       1.0     0.438304     0.433888     0.337437    Uiso  ? Al
   Al16       1.0     0.560408     0.532180     0.085699    Uiso  ? Al
   Al17       1.0     0.105743     0.431044     0.835358    Uiso  ? Al
   Al18       1.0     0.223992     0.537343     0.593464    Uiso  ? Al
   Al19       1.0     0.778985     0.424489     0.335600    Uiso  ? Al
   Al20       1.0     0.889406     0.535476     0.091200    Uiso  ? Al
   Al21       1.0     0.443373     0.430419     0.835019    Uiso  ? Al
   Al22       1.0     0.559160     0.529647     0.586521    Uiso  ? Al
   Al23       1.0     0.107678     0.756213     0.362920    Uiso  ? Al
   Al24       1.0     0.788217     0.749234     0.845725    Uiso  ? Al
   Al25       1.0     0.448685     0.751745     0.342936    Uiso  ? Al
   Al26       1.0     0.563883     0.861571     0.105224    Uiso  ? Al
   Al27       1.0     0.221340     0.870159     0.590986    Uiso  ? Al
   Al28       1.0     0.788746     0.755174     0.337273    Uiso  ? Al
   Al29       1.0     0.884111     0.872992     0.092966    Uiso  ? Al
   Al30       1.0     0.446083     0.752609     0.838940    Uiso  ? Al
   Mg1        1.0     0.778415     0.096352     0.840953    Uiso  ? Mg
   Mg2        1.0     0.889288     0.874737     0.604069    Uiso  ? Mg
   Mg3        1.0     0.107832     0.758679     0.838161    Uiso  ? Mg
   Hf1        1.0     0.442576     0.101978     0.863403    Uiso  ? Hf
   Hf2        1.0     0.217744     0.875058     0.102032    Uiso  ? Hf
   Hf3        1.0     0.559498     0.868847     0.596522    Uiso  ? Hf
   N1         1.0     0.223610     0.208267     0.362438    Uiso  ? N
   N2         1.0     0.097883     0.112808     0.129625    Uiso  ? N
   N3         1.0     0.896588     0.213372     0.862989    Uiso  ? N
   N4         1.0     0.766766     0.110070     0.596972    Uiso  ? N
   N5         1.0     0.549353     0.209572     0.354158    Uiso  ? N
   N6         1.0     0.442468     0.089754     0.112836    Uiso  ? N
   N7         1.0     0.203805     0.217315     0.876117    Uiso  ? N
   N8         1.0     0.115641     0.095187     0.607557    Uiso  ? N
   N9         1.0     0.888770     0.210692     0.374762    Uiso  ? N
   N10        1.0     0.782174     0.097594     0.125476    Uiso  ? N
   N11        1.0     0.550240     0.225087     0.885577    Uiso  ? N
   N12        1.0     0.437825     0.112604     0.616258    Uiso  ? N
   N13        1.0     0.222746     0.534985     0.373325    Uiso  ? N
   N14        1.0     0.110047     0.430606     0.122189    Uiso  ? N
   N15        1.0     0.890212     0.534949     0.874100    Uiso  ? N
   N16        1.0     0.777153     0.429895     0.619195    Uiso  ? N
   N17        1.0     0.557970     0.535266     0.370412    Uiso  ? N
   N18        1.0     0.440570     0.436007     0.123312    Uiso  ? N
   N19        1.0     0.228437     0.523462     0.863586    Uiso  ? N
   N20        1.0     0.110159     0.425524     0.616791    Uiso  ? N
   N21        1.0     0.890581     0.534632     0.364222    Uiso  ? N
   N22        1.0     0.776710     0.426655     0.118938    Uiso  ? N
   N23        1.0     0.556074     0.537531     0.867675    Uiso  ? N
   N24        1.0     0.445968     0.426286     0.616325    Uiso  ? N
   N25        1.0     0.225258     0.874195     0.361076    Uiso  ? N
   N26        1.0     0.106979     0.750019     0.119441    Uiso  ? N
   N27        1.0     0.877246     0.868205     0.872876    Uiso  ? N
   N28        1.0     0.790035     0.739113     0.615868    Uiso  ? N
   N29        1.0     0.554900     0.873243     0.355570    Uiso  ? N
   N30        1.0     0.460313     0.748383     0.120690    Uiso  ? N
   N31        1.0     0.229369     0.884045     0.860741    Uiso  ? N
   N32        1.0     0.124940     0.754181     0.597453    Uiso  ? N
   N33        1.0     0.887687     0.871277     0.352785    Uiso  ? N
   N34        1.0     0.778383     0.754340     0.119430    Uiso  ? N
   N35        1.0     0.563123     0.855360     0.860020    Uiso  ? N
   N36        1.0     0.441392     0.748515     0.613241    Uiso  ? N
