
#======================================================================
# CRYSTAL DATA
#----------------------------------------------------------------------
data_VESTA_phase_1

_chemical_name_common                  'Al   Mg   Hf   N                      '
_cell_length_a                         9.564890
_cell_length_b                         9.621719
_cell_length_c                         10.114400
_cell_angle_alpha                      90.097412
_cell_angle_beta                       90.141914
_cell_angle_gamma                      60.015087
_cell_volume                           806.246839
_space_group_name_H-M_alt              'P 1'
_space_group_IT_number                 1

loop_
_space_group_symop_operation_xyz
   'x, y, z'

loop_
   _atom_site_label
   _atom_site_occupancy
   _atom_site_fract_x
   _atom_site_fract_y
   _atom_site_fract_z
   _atom_site_adp_type
   _atom_site_U_iso_or_equiv
   _atom_site_type_symbol
   Al1        1.0     0.109117     0.097244     0.406256    Uiso  ? Al
   Al2        1.0     0.215670     0.214503     0.156733    Uiso  ? Al
   Al3        1.0     0.886739     0.208288     0.650507    Uiso  ? Al
   Al4        1.0     0.440993     0.102184     0.399005    Uiso  ? Al
   Al5        1.0     0.559055     0.208897     0.158907    Uiso  ? Al
   Al6        1.0     0.104148     0.104522     0.894721    Uiso  ? Al
   Al7        1.0     0.214971     0.213177     0.648369    Uiso  ? Al
   Al8        1.0     0.778130     0.096473     0.400950    Uiso  ? Al
   Al9        1.0     0.882230     0.212093     0.154318    Uiso  ? Al
   Al10       1.0     0.558312     0.216428     0.647085    Uiso  ? Al
   Al11       1.0     0.109780     0.429189     0.402754    Uiso  ? Al
   Al12       1.0     0.220809     0.535206     0.153815    Uiso  ? Al
   Al13       1.0     0.779736     0.425987     0.899716    Uiso  ? Al
   Al14       1.0     0.894326     0.532021     0.653147    Uiso  ? Al
   Al15       1.0     0.442818     0.429245     0.402646    Uiso  ? Al
   Al16       1.0     0.561472     0.531335     0.151615    Uiso  ? Al
   Al17       1.0     0.108637     0.433129     0.900233    Uiso  ? Al
   Al18       1.0     0.224394     0.537651     0.652241    Uiso  ? Al
   Al19       1.0     0.779249     0.427384     0.402926    Uiso  ? Al
   Al20       1.0     0.889363     0.535615     0.150707    Uiso  ? Al
   Al21       1.0     0.440373     0.433033     0.900443    Uiso  ? Al
   Al22       1.0     0.557214     0.531169     0.651314    Uiso  ? Al
   Al23       1.0     0.110613     0.758151     0.407028    Uiso  ? Al
   Al24       1.0     0.786090     0.752798     0.907300    Uiso  ? Al
   Al25       1.0     0.443344     0.754238     0.401234    Uiso  ? Al
   Al26       1.0     0.561923     0.867003     0.161630    Uiso  ? Al
   Al27       1.0     0.219417     0.870943     0.656157    Uiso  ? Al
   Al28       1.0     0.787865     0.752740     0.395929    Uiso  ? Al
   Al29       1.0     0.883180     0.873741     0.153175    Uiso  ? Al
   Al30       1.0     0.448606     0.751745     0.899988    Uiso  ? Al
   Mg1        1.0     0.783055     0.095903     0.902140    Uiso  ? Mg
   Mg2        1.0     0.890894     0.874553     0.651856    Uiso  ? Mg
   Mg3        1.0     0.102217     0.759444     0.893012    Uiso  ? Mg
   Hf1        1.0     0.449770     0.094219     0.900284    Uiso  ? Hf
   Hf2        1.0     0.218212     0.874566     0.140728    Uiso  ? Hf
   Hf3        1.0     0.562627     0.866003     0.637447    Uiso  ? Hf
   N1         1.0     0.219721     0.206999     0.345328    Uiso  ? N
   N2         1.0     0.100079     0.116135     0.087999    Uiso  ? N
   N3         1.0     0.893853     0.216206     0.836102    Uiso  ? N
   N4         1.0     0.771219     0.110910     0.586693    Uiso  ? N
   N5         1.0     0.552518     0.209316     0.346017    Uiso  ? N
   N6         1.0     0.444440     0.093044     0.108538    Uiso  ? N
   N7         1.0     0.211795     0.214729     0.838379    Uiso  ? N
   N8         1.0     0.114120     0.092599     0.594494    Uiso  ? N
   N9         1.0     0.891120     0.207608     0.344253    Uiso  ? N
   N10        1.0     0.777500     0.096226     0.110348    Uiso  ? N
   N11        1.0     0.548706     0.223473     0.834736    Uiso  ? N
   N12        1.0     0.437171     0.111924     0.592671    Uiso  ? N
   N13        1.0     0.221881     0.537149     0.344134    Uiso  ? N
   N14        1.0     0.111312     0.427277     0.092350    Uiso  ? N
   N15        1.0     0.888757     0.536950     0.844682    Uiso  ? N
   N16        1.0     0.777832     0.429226     0.592242    Uiso  ? N
   N17        1.0     0.556418     0.537087     0.341346    Uiso  ? N
   N18        1.0     0.443610     0.427922     0.093984    Uiso  ? N
   N19        1.0     0.228611     0.524430     0.838990    Uiso  ? N
   N20        1.0     0.111201     0.427607     0.591244    Uiso  ? N
   N21        1.0     0.891252     0.533906     0.339076    Uiso  ? N
   N22        1.0     0.777306     0.427433     0.091689    Uiso  ? N
   N23        1.0     0.555942     0.537163     0.842116    Uiso  ? N
   N24        1.0     0.443346     0.430774     0.589725    Uiso  ? N
   N25        1.0     0.221151     0.874265     0.347995    Uiso  ? N
   N26        1.0     0.102631     0.751457     0.102538    Uiso  ? N
   N27        1.0     0.869454     0.870755     0.849057    Uiso  ? N
   N28        1.0     0.793783     0.737808     0.579802    Uiso  ? N
   N29        1.0     0.553806     0.872249     0.354539    Uiso  ? N
   N30        1.0     0.462619     0.750469     0.092351    Uiso  ? N
   N31        1.0     0.229962     0.882027     0.850032    Uiso  ? N
   N32        1.0     0.127139     0.752627     0.593191    Uiso  ? N
   N33        1.0     0.889055     0.872172     0.346071    Uiso  ? N
   N34        1.0     0.775976     0.757974     0.100930    Uiso  ? N
   N35        1.0     0.564684     0.851687     0.844125    Uiso  ? N
   N36        1.0     0.438518     0.749254     0.589559    Uiso  ? N
