
#======================================================================
# CRYSTAL DATA
#----------------------------------------------------------------------
data_VESTA_phase_1

_chemical_name_common                  'Al   Mg   Hf   N                      '
_cell_length_a                         9.568957
_cell_length_b                         9.612846
_cell_length_c                         10.117938
_cell_angle_alpha                      90.017731
_cell_angle_beta                       90.089714
_cell_angle_gamma                      60.055386
_cell_volume                           806.456191
_space_group_name_H-M_alt              'P 1'
_space_group_IT_number                 1

loop_
_space_group_symop_operation_xyz
   'x, y, z'

loop_
   _atom_site_label
   _atom_site_occupancy
   _atom_site_fract_x
   _atom_site_fract_y
   _atom_site_fract_z
   _atom_site_adp_type
   _atom_site_U_iso_or_equiv
   _atom_site_type_symbol
   Al1        1.0     0.106960     0.101198     0.314601    Uiso  ? Al
   Al2        1.0     0.211963     0.216151     0.061956    Uiso  ? Al
   Al3        1.0     0.884448     0.207085     0.558094    Uiso  ? Al
   Al4        1.0     0.442509     0.098349     0.300589    Uiso  ? Al
   Al5        1.0     0.559781     0.211934     0.065103    Uiso  ? Al
   Al6        1.0     0.104784     0.100790     0.805307    Uiso  ? Al
   Al7        1.0     0.215541     0.213183     0.556408    Uiso  ? Al
   Al8        1.0     0.779736     0.092620     0.310929    Uiso  ? Al
   Al9        1.0     0.883311     0.212633     0.057786    Uiso  ? Al
   Al10       1.0     0.557633     0.214773     0.553605    Uiso  ? Al
   Al11       1.0     0.110655     0.429066     0.310159    Uiso  ? Al
   Al12       1.0     0.222216     0.532642     0.057466    Uiso  ? Al
   Al13       1.0     0.780509     0.425879     0.809329    Uiso  ? Al
   Al14       1.0     0.893065     0.532448     0.559832    Uiso  ? Al
   Al15       1.0     0.442518     0.429319     0.309400    Uiso  ? Al
   Al16       1.0     0.560989     0.531597     0.057642    Uiso  ? Al
   Al17       1.0     0.106525     0.433966     0.809558    Uiso  ? Al
   Al18       1.0     0.223459     0.539884     0.558602    Uiso  ? Al
   Al19       1.0     0.778260     0.427074     0.309715    Uiso  ? Al
   Al20       1.0     0.889276     0.536058     0.059042    Uiso  ? Al
   Al21       1.0     0.441474     0.432736     0.809399    Uiso  ? Al
   Al22       1.0     0.557657     0.531225     0.560532    Uiso  ? Al
   Al23       1.0     0.106845     0.756794     0.316021    Uiso  ? Al
   Al24       1.0     0.788583     0.750594     0.815574    Uiso  ? Al
   Al25       1.0     0.448902     0.753862     0.309101    Uiso  ? Al
   Al26       1.0     0.564784     0.862317     0.060662    Uiso  ? Al
   Al27       1.0     0.218456     0.870423     0.554844    Uiso  ? Al
   Al28       1.0     0.784793     0.756937     0.303526    Uiso  ? Al
   Al29       1.0     0.882633     0.871130     0.059291    Uiso  ? Al
   Al30       1.0     0.444846     0.753477     0.809087    Uiso  ? Al
   Mg1        1.0     0.782922     0.094860     0.808689    Uiso  ? Mg
   Mg2        1.0     0.892495     0.873925     0.559162    Uiso  ? Mg
   Mg3        1.0     0.107628     0.759351     0.804664    Uiso  ? Mg
   Hf1        1.0     0.445138     0.099829     0.826580    Uiso  ? Hf
   Hf2        1.0     0.218842     0.874446     0.067622    Uiso  ? Hf
   Hf3        1.0     0.559234     0.871505     0.560634    Uiso  ? Hf
   N1         1.0     0.224272     0.206009     0.366379    Uiso  ? N
   N2         1.0     0.100696     0.113584     0.125819    Uiso  ? N
   N3         1.0     0.896450     0.214167     0.872379    Uiso  ? N
   N4         1.0     0.768318     0.109715     0.606111    Uiso  ? N
   N5         1.0     0.552143     0.206752     0.361080    Uiso  ? N
   N6         1.0     0.443552     0.092669     0.105770    Uiso  ? N
   N7         1.0     0.203665     0.217356     0.872931    Uiso  ? N
   N8         1.0     0.113026     0.094584     0.612767    Uiso  ? N
   N9         1.0     0.888134     0.208220     0.367498    Uiso  ? N
   N10        1.0     0.780163     0.095652     0.119239    Uiso  ? N
   N11        1.0     0.551935     0.225743     0.880675    Uiso  ? N
   N12        1.0     0.436204     0.113407     0.617945    Uiso  ? N
   N13        1.0     0.223644     0.534699     0.367319    Uiso  ? N
   N14        1.0     0.109031     0.428990     0.121418    Uiso  ? N
   N15        1.0     0.889992     0.534518     0.870597    Uiso  ? N
   N16        1.0     0.778773     0.427321     0.617754    Uiso  ? N
   N17        1.0     0.556482     0.537321     0.370037    Uiso  ? N
   N18        1.0     0.443331     0.431647     0.121261    Uiso  ? N
   N19        1.0     0.228538     0.524507     0.871469    Uiso  ? N
   N20        1.0     0.111798     0.427371     0.617744    Uiso  ? N
   N21        1.0     0.888813     0.538203     0.368402    Uiso  ? N
   N22        1.0     0.776529     0.428826     0.119859    Uiso  ? N
   N23        1.0     0.555982     0.538281     0.867689    Uiso  ? N
   N24        1.0     0.443671     0.428164     0.617570    Uiso  ? N
   N25        1.0     0.223851     0.873214     0.356557    Uiso  ? N
   N26        1.0     0.104400     0.749243     0.122071    Uiso  ? N
   N27        1.0     0.878766     0.867123     0.876447    Uiso  ? N
   N28        1.0     0.787583     0.742372     0.626840    Uiso  ? N
   N29        1.0     0.555982     0.872851     0.354169    Uiso  ? N
   N30        1.0     0.461287     0.748941     0.120675    Uiso  ? N
   N31        1.0     0.229469     0.883748     0.865159    Uiso  ? N
   N32        1.0     0.126716     0.752835     0.603397    Uiso  ? N
   N33        1.0     0.885469     0.872046     0.353600    Uiso  ? N
   N34        1.0     0.778859     0.754700     0.117069    Uiso  ? N
   N35        1.0     0.564058     0.852531     0.867767    Uiso  ? N
   N36        1.0     0.440146     0.752550     0.617981    Uiso  ? N
