
#======================================================================
# CRYSTAL DATA
#----------------------------------------------------------------------
data_VESTA_phase_1

_chemical_name_common                  'Al   Mg   Hf   N                      '
_cell_length_a                         9.564870
_cell_length_b                         9.621709
_cell_length_c                         10.114436
_cell_angle_alpha                      90.097443
_cell_angle_beta                       90.142021
_cell_angle_gamma                      60.015148
_cell_volume                           806.247652
_space_group_name_H-M_alt              'P 1'
_space_group_IT_number                 1

loop_
_space_group_symop_operation_xyz
   'x, y, z'

loop_
   _atom_site_label
   _atom_site_occupancy
   _atom_site_fract_x
   _atom_site_fract_y
   _atom_site_fract_z
   _atom_site_adp_type
   _atom_site_U_iso_or_equiv
   _atom_site_type_symbol
   Al1        1.0     0.109125     0.097244     0.412973    Uiso  ? Al
   Al2        1.0     0.215678     0.214502     0.163451    Uiso  ? Al
   Al3        1.0     0.886748     0.208287     0.657225    Uiso  ? Al
   Al4        1.0     0.441001     0.102183     0.405723    Uiso  ? Al
   Al5        1.0     0.559063     0.208897     0.165628    Uiso  ? Al
   Al6        1.0     0.104156     0.104520     0.901440    Uiso  ? Al
   Al7        1.0     0.214980     0.213175     0.655087    Uiso  ? Al
   Al8        1.0     0.778138     0.096473     0.407670    Uiso  ? Al
   Al9        1.0     0.882237     0.212092     0.161037    Uiso  ? Al
   Al10       1.0     0.558321     0.216427     0.653805    Uiso  ? Al
   Al11       1.0     0.109788     0.429188     0.409475    Uiso  ? Al
   Al12       1.0     0.220816     0.535205     0.160535    Uiso  ? Al
   Al13       1.0     0.779744     0.425986     0.906436    Uiso  ? Al
   Al14       1.0     0.894334     0.532020     0.659868    Uiso  ? Al
   Al15       1.0     0.442826     0.429244     0.409368    Uiso  ? Al
   Al16       1.0     0.561479     0.531334     0.158337    Uiso  ? Al
   Al17       1.0     0.108644     0.433128     0.906953    Uiso  ? Al
   Al18       1.0     0.224402     0.537651     0.658963    Uiso  ? Al
   Al19       1.0     0.779257     0.427383     0.409647    Uiso  ? Al
   Al20       1.0     0.889370     0.535614     0.157427    Uiso  ? Al
   Al21       1.0     0.440381     0.433032     0.907164    Uiso  ? Al
   Al22       1.0     0.557222     0.531169     0.658035    Uiso  ? Al
   Al23       1.0     0.110621     0.758150     0.413746    Uiso  ? Al
   Al24       1.0     0.786098     0.752798     0.914020    Uiso  ? Al
   Al25       1.0     0.443352     0.754238     0.407955    Uiso  ? Al
   Al26       1.0     0.561931     0.867002     0.168349    Uiso  ? Al
   Al27       1.0     0.219424     0.870943     0.662874    Uiso  ? Al
   Al28       1.0     0.787872     0.752739     0.402651    Uiso  ? Al
   Al29       1.0     0.883187     0.873740     0.159896    Uiso  ? Al
   Al30       1.0     0.448611     0.751745     0.906709    Uiso  ? Al
   Mg1        1.0     0.783063     0.095903     0.908859    Uiso  ? Mg
   Mg2        1.0     0.890902     0.874552     0.658575    Uiso  ? Mg
   Mg3        1.0     0.102223     0.759445     0.899733    Uiso  ? Mg
   Hf1        1.0     0.449778     0.094220     0.907006    Uiso  ? Hf
   Hf2        1.0     0.218219     0.874566     0.147450    Uiso  ? Hf
   Hf3        1.0     0.562635     0.866004     0.644171    Uiso  ? Hf
   N1         1.0     0.219729     0.206999     0.352046    Uiso  ? N
   N2         1.0     0.100086     0.116134     0.094718    Uiso  ? N
   N3         1.0     0.893861     0.216206     0.842820    Uiso  ? N
   N4         1.0     0.771227     0.110909     0.593411    Uiso  ? N
   N5         1.0     0.552526     0.209316     0.352736    Uiso  ? N
   N6         1.0     0.444448     0.093044     0.115258    Uiso  ? N
   N7         1.0     0.211804     0.214728     0.845098    Uiso  ? N
   N8         1.0     0.114128     0.092599     0.601211    Uiso  ? N
   N9         1.0     0.891128     0.207607     0.350971    Uiso  ? N
   N10        1.0     0.777507     0.096225     0.117067    Uiso  ? N
   N11        1.0     0.548714     0.223473     0.841454    Uiso  ? N
   N12        1.0     0.437180     0.111923     0.599388    Uiso  ? N
   N13        1.0     0.221889     0.537148     0.350854    Uiso  ? N
   N14        1.0     0.111319     0.427276     0.099069    Uiso  ? N
   N15        1.0     0.888765     0.536950     0.851402    Uiso  ? N
   N16        1.0     0.777840     0.429225     0.598962    Uiso  ? N
   N17        1.0     0.556426     0.537086     0.348067    Uiso  ? N
   N18        1.0     0.443618     0.427921     0.100705    Uiso  ? N
   N19        1.0     0.228618     0.524431     0.845711    Uiso  ? N
   N20        1.0     0.111209     0.427606     0.597964    Uiso  ? N
   N21        1.0     0.891259     0.533905     0.345797    Uiso  ? N
   N22        1.0     0.777313     0.427433     0.098408    Uiso  ? N
   N23        1.0     0.555949     0.537164     0.848836    Uiso  ? N
   N24        1.0     0.443354     0.430774     0.596446    Uiso  ? N
   N25        1.0     0.221159     0.874264     0.354715    Uiso  ? N
   N26        1.0     0.102638     0.751456     0.109258    Uiso  ? N
   N27        1.0     0.869460     0.870755     0.855775    Uiso  ? N
   N28        1.0     0.793790     0.737807     0.586523    Uiso  ? N
   N29        1.0     0.553814     0.872247     0.361256    Uiso  ? N
   N30        1.0     0.462625     0.750469     0.099071    Uiso  ? N
   N31        1.0     0.229968     0.882027     0.856749    Uiso  ? N
   N32        1.0     0.127147     0.752625     0.599908    Uiso  ? N
   N33        1.0     0.889062     0.872170     0.352791    Uiso  ? N
   N34        1.0     0.775983     0.757973     0.107650    Uiso  ? N
   N35        1.0     0.564690     0.851688     0.850848    Uiso  ? N
   N36        1.0     0.438527     0.749254     0.596279    Uiso  ? N
