
#======================================================================
# CRYSTAL DATA
#----------------------------------------------------------------------
data_VESTA_phase_1

_chemical_name_common                  'Al   Mg   Hf   N                      '
_cell_length_a                         9.591530
_cell_length_b                         9.649389
_cell_length_c                         10.039648
_cell_angle_alpha                      90.061249
_cell_angle_beta                       90.087593
_cell_angle_gamma                      60.024994
_cell_volume                           804.906842
_space_group_name_H-M_alt              'P 1'
_space_group_IT_number                 1

loop_
_space_group_symop_operation_xyz
   'x, y, z'

loop_
   _atom_site_label
   _atom_site_occupancy
   _atom_site_fract_x
   _atom_site_fract_y
   _atom_site_fract_z
   _atom_site_adp_type
   _atom_site_U_iso_or_equiv
   _atom_site_type_symbol
   Al1        1.0     0.109396     0.096629     0.387041    Uiso  ? Al
   Al2        1.0     0.216060     0.214295     0.137919    Uiso  ? Al
   Al3        1.0     0.886602     0.208340     0.631667    Uiso  ? Al
   Al4        1.0     0.440402     0.103263     0.381173    Uiso  ? Al
   Al5        1.0     0.558937     0.208764     0.139492    Uiso  ? Al
   Al6        1.0     0.103672     0.105688     0.876627    Uiso  ? Al
   Al7        1.0     0.214236     0.213505     0.629768    Uiso  ? Al
   Al8        1.0     0.778150     0.096288     0.381686    Uiso  ? Al
   Al9        1.0     0.882217     0.212279     0.136028    Uiso  ? Al
   Al10       1.0     0.558356     0.216895     0.628851    Uiso  ? Al
   Al11       1.0     0.109675     0.429317     0.384082    Uiso  ? Al
   Al12       1.0     0.220644     0.535437     0.135256    Uiso  ? Al
   Al13       1.0     0.779762     0.426001     0.881256    Uiso  ? Al
   Al14       1.0     0.894286     0.532047     0.634903    Uiso  ? Al
   Al15       1.0     0.442674     0.429245     0.383695    Uiso  ? Al
   Al16       1.0     0.561728     0.531277     0.133096    Uiso  ? Al
   Al17       1.0     0.108746     0.433036     0.882120    Uiso  ? Al
   Al18       1.0     0.224421     0.537443     0.633567    Uiso  ? Al
   Al19       1.0     0.779223     0.427493     0.384507    Uiso  ? Al
   Al20       1.0     0.889357     0.535426     0.131996    Uiso  ? Al
   Al21       1.0     0.440309     0.433084     0.882510    Uiso  ? Al
   Al22       1.0     0.556928     0.531048     0.632779    Uiso  ? Al
   Al23       1.0     0.110371     0.758802     0.388214    Uiso  ? Al
   Al24       1.0     0.785487     0.752784     0.888516    Uiso  ? Al
   Al25       1.0     0.441832     0.753979     0.381871    Uiso  ? Al
   Al26       1.0     0.561731     0.867287     0.143931    Uiso  ? Al
   Al27       1.0     0.219330     0.870948     0.638766    Uiso  ? Al
   Al28       1.0     0.789283     0.752269     0.376851    Uiso  ? Al
   Al29       1.0     0.883266     0.873785     0.132618    Uiso  ? Al
   Al30       1.0     0.450344     0.751328     0.881149    Uiso  ? Al
   Mg1        1.0     0.782847     0.096451     0.883407    Uiso  ? Mg
   Mg2        1.0     0.890128     0.874955     0.634028    Uiso  ? Mg
   Mg3        1.0     0.102459     0.758428     0.873298    Uiso  ? Mg
   Hf1        1.0     0.449989     0.093343     0.879119    Uiso  ? Hf
   Hf2        1.0     0.218272     0.874315     0.118447    Uiso  ? Hf
   Hf3        1.0     0.562338     0.865260     0.614911    Uiso  ? Hf
   N1         1.0     0.219944     0.207021     0.327793    Uiso  ? N
   N2         1.0     0.099622     0.116933     0.070730    Uiso  ? N
   N3         1.0     0.893885     0.216387     0.818392    Uiso  ? N
   N4         1.0     0.771017     0.110961     0.568971    Uiso  ? N
   N5         1.0     0.552170     0.209301     0.327998    Uiso  ? N
   N6         1.0     0.444689     0.092421     0.089203    Uiso  ? N
   N7         1.0     0.211175     0.215288     0.820816    Uiso  ? N
   N8         1.0     0.114378     0.092041     0.576797    Uiso  ? N
   N9         1.0     0.891115     0.207845     0.326919    Uiso  ? N
   N10        1.0     0.777502     0.096743     0.092696    Uiso  ? N
   N11        1.0     0.548847     0.223871     0.817746    Uiso  ? N
   N12        1.0     0.436902     0.112508     0.576632    Uiso  ? N
   N13        1.0     0.221636     0.537528     0.326663    Uiso  ? N
   N14        1.0     0.111436     0.427227     0.075026    Uiso  ? N
   N15        1.0     0.888976     0.536889     0.827418    Uiso  ? N
   N16        1.0     0.777616     0.429480     0.574784    Uiso  ? N
   N17        1.0     0.556530     0.536894     0.323688    Uiso  ? N
   N18        1.0     0.443554     0.428212     0.076702    Uiso  ? N
   N19        1.0     0.229002     0.523770     0.821384    Uiso  ? N
   N20        1.0     0.110979     0.427643     0.573547    Uiso  ? N
   N21        1.0     0.891408     0.533670     0.321323    Uiso  ? N
   N22        1.0     0.777359     0.427357     0.074082    Uiso  ? N
   N23        1.0     0.556020     0.536950     0.824598    Uiso  ? N
   N24        1.0     0.443268     0.430712     0.571860    Uiso  ? N
   N25        1.0     0.220787     0.874385     0.328027    Uiso  ? N
   N26        1.0     0.102774     0.750915     0.083977    Uiso  ? N
   N27        1.0     0.869499     0.871005     0.833158    Uiso  ? N
   N28        1.0     0.794851     0.737444     0.562133    Uiso  ? N
   N29        1.0     0.553468     0.872597     0.338933    Uiso  ? N
   N30        1.0     0.463776     0.750184     0.074889    Uiso  ? N
   N31        1.0     0.230396     0.882228     0.834894    Uiso  ? N
   N32        1.0     0.126688     0.753104     0.576343    Uiso  ? N
   N33        1.0     0.889290     0.872253     0.327403    Uiso  ? N
   N34        1.0     0.775440     0.757914     0.083605    Uiso  ? N
   N35        1.0     0.565567     0.850743     0.823424    Uiso  ? N
   N36        1.0     0.437320     0.748628     0.571643    Uiso  ? N
