
#======================================================================
# CRYSTAL DATA
#----------------------------------------------------------------------
data_VESTA_phase_1

_chemical_name_common                  'Al   Mg   Hf   N                      '
_cell_length_a                         9.641748
_cell_length_b                         9.699285
_cell_length_c                         9.900465
_cell_angle_alpha                      90.034058
_cell_angle_beta                       90.047508
_cell_angle_gamma                      60.040588
_cell_volume                           802.156380
_space_group_name_H-M_alt              'P 1'
_space_group_IT_number                 1

loop_
_space_group_symop_operation_xyz
   'x, y, z'

loop_
   _atom_site_label
   _atom_site_occupancy
   _atom_site_fract_x
   _atom_site_fract_y
   _atom_site_fract_z
   _atom_site_adp_type
   _atom_site_U_iso_or_equiv
   _atom_site_type_symbol
   Al1        1.0     0.109687     0.095805     0.385207    Uiso  ? Al
   Al2        1.0     0.216369     0.213993     0.136585    Uiso  ? Al
   Al3        1.0     0.886354     0.208428     0.630093    Uiso  ? Al
   Al4        1.0     0.439724     0.104472     0.380717    Uiso  ? Al
   Al5        1.0     0.558780     0.208617     0.137221    Uiso  ? Al
   Al6        1.0     0.103033     0.107241     0.875782    Uiso  ? Al
   Al7        1.0     0.213240     0.214023     0.628192    Uiso  ? Al
   Al8        1.0     0.778519     0.095600     0.379097    Uiso  ? Al
   Al9        1.0     0.882245     0.212478     0.135010    Uiso  ? Al
   Al10       1.0     0.558580     0.217463     0.627887    Uiso  ? Al
   Al11       1.0     0.109619     0.429586     0.382662    Uiso  ? Al
   Al12       1.0     0.220467     0.535820     0.133806    Uiso  ? Al
   Al13       1.0     0.779702     0.426126     0.880156    Uiso  ? Al
   Al14       1.0     0.894202     0.532215     0.633978    Uiso  ? Al
   Al15       1.0     0.442492     0.429263     0.381807    Uiso  ? Al
   Al16       1.0     0.562045     0.531212     0.132062    Uiso  ? Al
   Al17       1.0     0.108659     0.432985     0.881532    Uiso  ? Al
   Al18       1.0     0.224767     0.536926     0.632394    Uiso  ? Al
   Al19       1.0     0.779332     0.427484     0.383480    Uiso  ? Al
   Al20       1.0     0.889400     0.534903     0.130719    Uiso  ? Al
   Al21       1.0     0.440428     0.433093     0.882284    Uiso  ? Al
   Al22       1.0     0.556668     0.530981     0.631585    Uiso  ? Al
   Al23       1.0     0.109970     0.759620     0.386788    Uiso  ? Al
   Al24       1.0     0.784437     0.752707     0.887688    Uiso  ? Al
   Al25       1.0     0.440041     0.753600     0.379686    Uiso  ? Al
   Al26       1.0     0.561231     0.867693     0.143662    Uiso  ? Al
   Al27       1.0     0.219598     0.871015     0.638840    Uiso  ? Al
   Al28       1.0     0.791387     0.751704     0.374365    Uiso  ? Al
   Al29       1.0     0.883547     0.873791     0.127072    Uiso  ? Al
   Al30       1.0     0.452531     0.750970     0.879800    Uiso  ? Al
   Mg1        1.0     0.782317     0.097354     0.881624    Uiso  ? Mg
   Mg2        1.0     0.889142     0.875317     0.634289    Uiso  ? Mg
   Mg3        1.0     0.103435     0.756907     0.869750    Uiso  ? Mg
   Hf1        1.0     0.449504     0.093057     0.874254    Uiso  ? Hf
   Hf2        1.0     0.218306     0.874086     0.112456    Uiso  ? Hf
   Hf3        1.0     0.562346     0.864293     0.608820    Uiso  ? Hf
   N1         1.0     0.220207     0.207001     0.328931    Uiso  ? N
   N2         1.0     0.099096     0.117729     0.071914    Uiso  ? N
   N3         1.0     0.893783     0.216656     0.819088    Uiso  ? N
   N4         1.0     0.770964     0.110685     0.569545    Uiso  ? N
   N5         1.0     0.551721     0.209186     0.328336    Uiso  ? N
   N6         1.0     0.444750     0.091756     0.087786    Uiso  ? N
   N7         1.0     0.209887     0.216326     0.821425    Uiso  ? N
   N8         1.0     0.114578     0.091460     0.577576    Uiso  ? N
   N9         1.0     0.891244     0.208056     0.327990    Uiso  ? N
   N10        1.0     0.777272     0.097689     0.093395    Uiso  ? N
   N11        1.0     0.549038     0.224381     0.819342    Uiso  ? N
   N12        1.0     0.436804     0.112779     0.579854    Uiso  ? N
   N13        1.0     0.221359     0.538033     0.327470    Uiso  ? N
   N14        1.0     0.111522     0.427114     0.076223    Uiso  ? N
   N15        1.0     0.889032     0.537032     0.828581    Uiso  ? N
   N16        1.0     0.777384     0.429789     0.575735    Uiso  ? N
   N17        1.0     0.556786     0.536599     0.324518    Uiso  ? N
   N18        1.0     0.443582     0.428514     0.078036    Uiso  ? N
   N19        1.0     0.229714     0.522579     0.822389    Uiso  ? N
   N20        1.0     0.110721     0.427862     0.574144    Uiso  ? N
   N21        1.0     0.891755     0.533144     0.321971    Uiso  ? N
   N22        1.0     0.777328     0.427288     0.074825    Uiso  ? N
   N23        1.0     0.556039     0.536870     0.825499    Uiso  ? N
   N24        1.0     0.443288     0.430646     0.572185    Uiso  ? N
   N25        1.0     0.220389     0.874488     0.326336    Uiso  ? N
   N26        1.0     0.103514     0.750224     0.083182    Uiso  ? N
   N27        1.0     0.869942     0.870974     0.837679    Uiso  ? N
   N28        1.0     0.796036     0.737251     0.562661    Uiso  ? N
   N29        1.0     0.552913     0.873087     0.341926    Uiso  ? N
   N30        1.0     0.464825     0.749817     0.076149    Uiso  ? N
   N31        1.0     0.231158     0.882588     0.838560    Uiso  ? N
   N32        1.0     0.126192     0.753619     0.578642    Uiso  ? N
   N33        1.0     0.889912     0.872168     0.326051    Uiso  ? N
   N34        1.0     0.774692     0.757481     0.085227    Uiso  ? N
   N35        1.0     0.566527     0.850091     0.821179    Uiso  ? N
   N36        1.0     0.436276     0.748007     0.572249    Uiso  ? N
