
#======================================================================
# CRYSTAL DATA
#----------------------------------------------------------------------
data_VESTA_phase_1

_chemical_name_common                  'Al   Mg   Hf   N                      '
_cell_length_a                         9.794578
_cell_length_b                         9.850192
_cell_length_c                         9.468781
_cell_angle_alpha                      89.992134
_cell_angle_beta                       90.014145
_cell_angle_gamma                      60.059338
_cell_volume                           791.615746
_space_group_name_H-M_alt              'P 1'
_space_group_IT_number                 1

loop_
_space_group_symop_operation_xyz
   'x, y, z'

loop_
   _atom_site_label
   _atom_site_occupancy
   _atom_site_fract_x
   _atom_site_fract_y
   _atom_site_fract_z
   _atom_site_adp_type
   _atom_site_U_iso_or_equiv
   _atom_site_type_symbol
   Al1        1.0     0.109295     0.095120     0.382274    Uiso  ? Al
   Al2        1.0     0.215551     0.213608     0.134294    Uiso  ? Al
   Al3        1.0     0.885446     0.208870     0.626442    Uiso  ? Al
   Al4        1.0     0.439575     0.104799     0.374663    Uiso  ? Al
   Al5        1.0     0.558946     0.209111     0.132137    Uiso  ? Al
   Al6        1.0     0.103071     0.108515     0.870520    Uiso  ? Al
   Al7        1.0     0.212670     0.214690     0.621636    Uiso  ? Al
   Al8        1.0     0.779822     0.093860     0.370984    Uiso  ? Al
   Al9        1.0     0.882902     0.212627     0.130721    Uiso  ? Al
   Al10       1.0     0.558629     0.217960     0.623744    Uiso  ? Al
   Al11       1.0     0.109494     0.430892     0.378679    Uiso  ? Al
   Al12       1.0     0.220218     0.536668     0.128137    Uiso  ? Al
   Al13       1.0     0.779271     0.426610     0.876591    Uiso  ? Al
   Al14       1.0     0.893806     0.532704     0.630555    Uiso  ? Al
   Al15       1.0     0.441661     0.429575     0.376278    Uiso  ? Al
   Al16       1.0     0.562580     0.531229     0.129381    Uiso  ? Al
   Al17       1.0     0.108444     0.432292     0.878935    Uiso  ? Al
   Al18       1.0     0.225827     0.535701     0.630046    Uiso  ? Al
   Al19       1.0     0.780004     0.427077     0.380295    Uiso  ? Al
   Al20       1.0     0.889779     0.533053     0.127248    Uiso  ? Al
   Al21       1.0     0.441072     0.433163     0.881066    Uiso  ? Al
   Al22       1.0     0.556503     0.530826     0.627396    Uiso  ? Al
   Al23       1.0     0.108944     0.760244     0.382148    Uiso  ? Al
   Al24       1.0     0.782457     0.752039     0.886921    Uiso  ? Al
   Al25       1.0     0.438572     0.752991     0.374355    Uiso  ? Al
   Al26       1.0     0.559834     0.867866     0.140064    Uiso  ? Al
   Al27       1.0     0.220888     0.870798     0.635046    Uiso  ? Al
   Al28       1.0     0.794389     0.751068     0.365487    Uiso  ? Al
   Al29       1.0     0.884220     0.873951     0.109680    Uiso  ? Al
   Al30       1.0     0.454532     0.750720     0.876171    Uiso  ? Al
   Mg1        1.0     0.780919     0.098767     0.874782    Uiso  ? Mg
   Mg2        1.0     0.887554     0.875384     0.630881    Uiso  ? Mg
   Mg3        1.0     0.106040     0.755073     0.859798    Uiso  ? Mg
   Hf1        1.0     0.446601     0.094960     0.865826    Uiso  ? Hf
   Hf2        1.0     0.217993     0.874233     0.103888    Uiso  ? Hf
   Hf3        1.0     0.562815     0.863014     0.599961    Uiso  ? Hf
   N1         1.0     0.220019     0.207201     0.335587    Uiso  ? N
   N2         1.0     0.099260     0.117497     0.076270    Uiso  ? N
   N3         1.0     0.893428     0.216883     0.824175    Uiso  ? N
   N4         1.0     0.771016     0.109979     0.573673    Uiso  ? N
   N5         1.0     0.550888     0.209283     0.332165    Uiso  ? N
   N6         1.0     0.443799     0.091644     0.091006    Uiso  ? N
   N7         1.0     0.207699     0.218111     0.824352    Uiso  ? N
   N8         1.0     0.114178     0.091277     0.582974    Uiso  ? N
   N9         1.0     0.891882     0.208493     0.332497    Uiso  ? N
   N10        1.0     0.776806     0.099701     0.098804    Uiso  ? N
   N11        1.0     0.548847     0.224904     0.826045    Uiso  ? N
   N12        1.0     0.437872     0.111294     0.587651    Uiso  ? N
   N13        1.0     0.220930     0.538681     0.330593    Uiso  ? N
   N14        1.0     0.111504     0.426537     0.081291    Uiso  ? N
   N15        1.0     0.888845     0.537651     0.833624    Uiso  ? N
   N16        1.0     0.777226     0.430076     0.580497    Uiso  ? N
   N17        1.0     0.557530     0.536044     0.329539    Uiso  ? N
   N18        1.0     0.444090     0.429196     0.083968    Uiso  ? N
   N19        1.0     0.230705     0.520962     0.828893    Uiso  ? N
   N20        1.0     0.110325     0.429035     0.578291    Uiso  ? N
   N21        1.0     0.892687     0.531632     0.326138    Uiso  ? N
   N22        1.0     0.777000     0.427409     0.078899    Uiso  ? N
   N23        1.0     0.555925     0.536992     0.829652    Uiso  ? N
   N24        1.0     0.443108     0.430613     0.575385    Uiso  ? N
   N25        1.0     0.220001     0.874935     0.330180    Uiso  ? N
   N26        1.0     0.106029     0.750077     0.085680    Uiso  ? N
   N27        1.0     0.871868     0.869907     0.853738    Uiso  ? N
   N28        1.0     0.795911     0.737806     0.565878    Uiso  ? N
   N29        1.0     0.551179     0.873995     0.345963    Uiso  ? N
   N30        1.0     0.464268     0.749392     0.082060    Uiso  ? N
   N31        1.0     0.232620     0.882862     0.843797    Uiso  ? N
   N32        1.0     0.125658     0.753609     0.586259    Uiso  ? N
   N33        1.0     0.891160     0.871807     0.326415    Uiso  ? N
   N34        1.0     0.773929     0.755729     0.093398    Uiso  ? N
   N35        1.0     0.567133     0.851041     0.825446    Uiso  ? N
   N36        1.0     0.436678     0.747483     0.576707    Uiso  ? N
