
#======================================================================
# CRYSTAL DATA
#----------------------------------------------------------------------
data_VESTA_phase_1

_chemical_name_common                  'Al   Mg   Hf   N                      '
_cell_length_a                         9.795068
_cell_length_b                         9.847506
_cell_length_c                         9.472110
_cell_angle_alpha                      89.930481
_cell_angle_beta                       90.037506
_cell_angle_gamma                      60.063972
_cell_volume                           791.753251
_space_group_name_H-M_alt              'P 1'
_space_group_IT_number                 1

loop_
_space_group_symop_operation_xyz
   'x, y, z'

loop_
   _atom_site_label
   _atom_site_occupancy
   _atom_site_fract_x
   _atom_site_fract_y
   _atom_site_fract_z
   _atom_site_adp_type
   _atom_site_U_iso_or_equiv
   _atom_site_type_symbol
   Al1        1.0     0.105345     0.104203     0.339203    Uiso  ? Al
   Al2        1.0     0.206786     0.217511     0.085559    Uiso  ? Al
   Al3        1.0     0.883451     0.209706     0.580855    Uiso  ? Al
   Al4        1.0     0.442936     0.096546     0.319136    Uiso  ? Al
   Al5        1.0     0.562898     0.214643     0.092804    Uiso  ? Al
   Al6        1.0     0.107194     0.099859     0.822999    Uiso  ? Al
   Al7        1.0     0.219327     0.212403     0.574824    Uiso  ? Al
   Al8        1.0     0.781880     0.091969     0.340937    Uiso  ? Al
   Al9        1.0     0.883869     0.211295     0.075215    Uiso  ? Al
   Al10       1.0     0.554552     0.214716     0.570164    Uiso  ? Al
   Al11       1.0     0.111539     0.430259     0.329825    Uiso  ? Al
   Al12       1.0     0.221210     0.535029     0.074941    Uiso  ? Al
   Al13       1.0     0.780733     0.427235     0.828730    Uiso  ? Al
   Al14       1.0     0.893246     0.530126     0.575625    Uiso  ? Al
   Al15       1.0     0.439943     0.432255     0.329721    Uiso  ? Al
   Al16       1.0     0.560842     0.532024     0.077154    Uiso  ? Al
   Al17       1.0     0.105695     0.432265     0.827876    Uiso  ? Al
   Al18       1.0     0.224447     0.537138     0.581925    Uiso  ? Al
   Al19       1.0     0.778577     0.425858     0.328339    Uiso  ? Al
   Al20       1.0     0.889177     0.536069     0.081283    Uiso  ? Al
   Al21       1.0     0.442814     0.431120     0.828138    Uiso  ? Al
   Al22       1.0     0.558578     0.529906     0.579956    Uiso  ? Al
   Al23       1.0     0.106245     0.755804     0.351648    Uiso  ? Al
   Al24       1.0     0.790460     0.747841     0.833650    Uiso  ? Al
   Al25       1.0     0.452662     0.752414     0.332635    Uiso  ? Al
   Al26       1.0     0.565858     0.858955     0.081706    Uiso  ? Al
   Al27       1.0     0.220819     0.870599     0.573645    Uiso  ? Al
   Al28       1.0     0.785384     0.757514     0.327149    Uiso  ? Al
   Al29       1.0     0.883692     0.872084     0.080775    Uiso  ? Al
   Al30       1.0     0.442811     0.752951     0.829739    Uiso  ? Al
   Mg1        1.0     0.779421     0.096917     0.829546    Uiso  ? Mg
   Mg2        1.0     0.889676     0.874587     0.590162    Uiso  ? Mg
   Mg3        1.0     0.109447     0.759813     0.826926    Uiso  ? Mg
   Hf1        1.0     0.442892     0.102861     0.858730    Uiso  ? Hf
   Hf2        1.0     0.218464     0.874198     0.099044    Uiso  ? Hf
   Hf3        1.0     0.558085     0.871410     0.592341    Uiso  ? Hf
   N1         1.0     0.225499     0.206828     0.373093    Uiso  ? N
   N2         1.0     0.097600     0.114731     0.137205    Uiso  ? N
   N3         1.0     0.896754     0.213606     0.875960    Uiso  ? N
   N4         1.0     0.766267     0.111422     0.608070    Uiso  ? N
   N5         1.0     0.549592     0.208031     0.364570    Uiso  ? N
   N6         1.0     0.443143     0.089795     0.112384    Uiso  ? N
   N7         1.0     0.201394     0.218475     0.883107    Uiso  ? N
   N8         1.0     0.115436     0.093731     0.618326    Uiso  ? N
   N9         1.0     0.888506     0.210421     0.379907    Uiso  ? N
   N10        1.0     0.782483     0.095723     0.132491    Uiso  ? N
   N11        1.0     0.551999     0.226868     0.893403    Uiso  ? N
   N12        1.0     0.436439     0.115104     0.631190    Uiso  ? N
   N13        1.0     0.223929     0.533071     0.379399    Uiso  ? N
   N14        1.0     0.109330     0.430304     0.130309    Uiso  ? N
   N15        1.0     0.890349     0.534328     0.881196    Uiso  ? N
   N16        1.0     0.778038     0.428595     0.627022    Uiso  ? N
   N17        1.0     0.557615     0.535944     0.379248    Uiso  ? N
   N18        1.0     0.441268     0.435369     0.130851    Uiso  ? N
   N19        1.0     0.228317     0.523856     0.875341    Uiso  ? N
   N20        1.0     0.110710     0.425945     0.625391    Uiso  ? N
   N21        1.0     0.889597     0.536558     0.374313    Uiso  ? N
   N22        1.0     0.776505     0.427571     0.127495    Uiso  ? N
   N23        1.0     0.555878     0.538048     0.875787    Uiso  ? N
   N24        1.0     0.445076     0.426791     0.625425    Uiso  ? N
   N25        1.0     0.225805     0.874248     0.362798    Uiso  ? N
   N26        1.0     0.104355     0.749191     0.132104    Uiso  ? N
   N27        1.0     0.878163     0.867590     0.880882    Uiso  ? N
   N28        1.0     0.789819     0.738363     0.631265    Uiso  ? N
   N29        1.0     0.555538     0.874174     0.369391    Uiso  ? N
   N30        1.0     0.463376     0.747439     0.130514    Uiso  ? N
   N31        1.0     0.229271     0.884333     0.877828    Uiso  ? N
   N32        1.0     0.126484     0.753569     0.603628    Uiso  ? N
   N33        1.0     0.885346     0.871631     0.366192    Uiso  ? N
   N34        1.0     0.778401     0.755162     0.127065    Uiso  ? N
   N35        1.0     0.563985     0.853056     0.868394    Uiso  ? N
   N36        1.0     0.439096     0.749838     0.624752    Uiso  ? N
