
#======================================================================
# CRYSTAL DATA
#----------------------------------------------------------------------
data_VESTA_phase_1

_chemical_name_common                  'Al   Mg   Hf   N                      '
_cell_length_a                         10.054138
_cell_length_b                         10.112990
_cell_length_c                         8.695003
_cell_angle_alpha                      89.915283
_cell_angle_beta                       90.038063
_cell_angle_gamma                      60.073105
_cell_volume                           766.201856
_space_group_name_H-M_alt              'P 1'
_space_group_IT_number                 1

loop_
_space_group_symop_operation_xyz
   'x, y, z'

loop_
   _atom_site_label
   _atom_site_occupancy
   _atom_site_fract_x
   _atom_site_fract_y
   _atom_site_fract_z
   _atom_site_adp_type
   _atom_site_U_iso_or_equiv
   _atom_site_type_symbol
   Al1        1.0     0.105444     0.101172     0.356614    Uiso  ? Al
   Al2        1.0     0.209737     0.215504     0.106251    Uiso  ? Al
   Al3        1.0     0.882445     0.210603     0.597259    Uiso  ? Al
   Al4        1.0     0.441594     0.100019     0.338317    Uiso  ? Al
   Al5        1.0     0.562429     0.214502     0.107155    Uiso  ? Al
   Al6        1.0     0.107605     0.102571     0.831126    Uiso  ? Al
   Al7        1.0     0.217917     0.213302     0.584024    Uiso  ? Al
   Al8        1.0     0.783158     0.092808     0.353727    Uiso  ? Al
   Al9        1.0     0.884478     0.210636     0.087461    Uiso  ? Al
   Al10       1.0     0.556324     0.214503     0.580332    Uiso  ? Al
   Al11       1.0     0.111552     0.431627     0.343286    Uiso  ? Al
   Al12       1.0     0.221773     0.535778     0.087760    Uiso  ? Al
   Al13       1.0     0.780091     0.428591     0.841824    Uiso  ? Al
   Al14       1.0     0.893119     0.530046     0.587969    Uiso  ? Al
   Al15       1.0     0.438641     0.433194     0.342932    Uiso  ? Al
   Al16       1.0     0.560572     0.532069     0.093416    Uiso  ? Al
   Al17       1.0     0.106116     0.431374     0.842127    Uiso  ? Al
   Al18       1.0     0.223725     0.537997     0.599007    Uiso  ? Al
   Al19       1.0     0.779264     0.424413     0.342510    Uiso  ? Al
   Al20       1.0     0.889567     0.534632     0.098758    Uiso  ? Al
   Al21       1.0     0.442813     0.431142     0.841604    Uiso  ? Al
   Al22       1.0     0.558873     0.530040     0.592050    Uiso  ? Al
   Al23       1.0     0.107766     0.756583     0.363776    Uiso  ? Al
   Al24       1.0     0.787075     0.750548     0.859071    Uiso  ? Al
   Al25       1.0     0.446733     0.751979     0.349164    Uiso  ? Al
   Al26       1.0     0.562939     0.862656     0.112341    Uiso  ? Al
   Al27       1.0     0.221374     0.869778     0.599795    Uiso  ? Al
   Al28       1.0     0.790015     0.754047     0.345160    Uiso  ? Al
   Al29       1.0     0.884339     0.873588     0.098286    Uiso  ? Al
   Al30       1.0     0.447800     0.752210     0.846730    Uiso  ? Al
   Mg1        1.0     0.778982     0.095758     0.846671    Uiso  ? Mg
   Mg2        1.0     0.889247     0.874706     0.608708    Uiso  ? Mg
   Mg3        1.0     0.106930     0.757674     0.842602    Uiso  ? Mg
   Hf1        1.0     0.442335     0.101706     0.863398    Uiso  ? Hf
   Hf2        1.0     0.217640     0.875427     0.102439    Uiso  ? Hf
   Hf3        1.0     0.560624     0.867000     0.597424    Uiso  ? Hf
   N1         1.0     0.222334     0.208645     0.357831    Uiso  ? N
   N2         1.0     0.099154     0.111822     0.122199    Uiso  ? N
   N3         1.0     0.895991     0.213579     0.857147    Uiso  ? N
   N4         1.0     0.767790     0.109347     0.593809    Uiso  ? N
   N5         1.0     0.549688     0.210013     0.351132    Uiso  ? N
   N6         1.0     0.442321     0.090420     0.113361    Uiso  ? N
   N7         1.0     0.205408     0.216855     0.868323    Uiso  ? N
   N8         1.0     0.114891     0.095654     0.603471    Uiso  ? N
   N9         1.0     0.889267     0.209892     0.368669    Uiso  ? N
   N10        1.0     0.781040     0.098492     0.120948    Uiso  ? N
   N11        1.0     0.549655     0.223958     0.877538    Uiso  ? N
   N12        1.0     0.438651     0.110690     0.607130    Uiso  ? N
   N13        1.0     0.222176     0.536083     0.366034    Uiso  ? N
   N14        1.0     0.110257     0.429877     0.115948    Uiso  ? N
   N15        1.0     0.889721     0.535825     0.867210    Uiso  ? N
   N16        1.0     0.776952     0.429901     0.612618    Uiso  ? N
   N17        1.0     0.557691     0.535549     0.363427    Uiso  ? N
   N18        1.0     0.441299     0.434876     0.117533    Uiso  ? N
   N19        1.0     0.228390     0.523772     0.858866    Uiso  ? N
   N20        1.0     0.110319     0.426219     0.610600    Uiso  ? N
   N21        1.0     0.891286     0.533568     0.357517    Uiso  ? N
   N22        1.0     0.776862     0.426617     0.113360    Uiso  ? N
   N23        1.0     0.556376     0.537231     0.862050    Uiso  ? N
   N24        1.0     0.445555     0.426876     0.610219    Uiso  ? N
   N25        1.0     0.224750     0.874427     0.360139    Uiso  ? N
   N26        1.0     0.107774     0.750991     0.114601    Uiso  ? N
   N27        1.0     0.877042     0.868316     0.869616    Uiso  ? N
   N28        1.0     0.790018     0.740373     0.602521    Uiso  ? N
   N29        1.0     0.553942     0.872760     0.349855    Uiso  ? N
   N30        1.0     0.458978     0.749358     0.112836    Uiso  ? N
   N31        1.0     0.229785     0.883440     0.852251    Uiso  ? N
   N32        1.0     0.124567     0.754094     0.596024    Uiso  ? N
   N33        1.0     0.888204     0.871433     0.346169    Uiso  ? N
   N34        1.0     0.777791     0.754104     0.113668    Uiso  ? N
   N35        1.0     0.563067     0.856358     0.857776    Uiso  ? N
   N36        1.0     0.442297     0.748203     0.606700    Uiso  ? N
