
#======================================================================
# CRYSTAL DATA
#----------------------------------------------------------------------
data_VESTA_phase_1

_chemical_name_common                  'Al   Mg   Hf   N                      '
_cell_length_a                         9.594665
_cell_length_b                         9.640594
_cell_length_c                         10.046041
_cell_angle_alpha                      89.992554
_cell_angle_beta                       90.071518
_cell_angle_gamma                      60.058422
_cell_volume                           805.219040
_space_group_name_H-M_alt              'P 1'
_space_group_IT_number                 1

loop_
_space_group_symop_operation_xyz
   'x, y, z'

loop_
   _atom_site_label
   _atom_site_occupancy
   _atom_site_fract_x
   _atom_site_fract_y
   _atom_site_fract_z
   _atom_site_adp_type
   _atom_site_U_iso_or_equiv
   _atom_site_type_symbol
   Al1        1.0     0.106705     0.101980     0.330154    Uiso  ? Al
   Al2        1.0     0.210810     0.216675     0.077113    Uiso  ? Al
   Al3        1.0     0.884422     0.207226     0.573473    Uiso  ? Al
   Al4        1.0     0.442745     0.097892     0.315272    Uiso  ? Al
   Al5        1.0     0.560388     0.212507     0.080873    Uiso  ? Al
   Al6        1.0     0.105051     0.100396     0.820556    Uiso  ? Al
   Al7        1.0     0.216218     0.212961     0.571906    Uiso  ? Al
   Al8        1.0     0.779945     0.092436     0.327129    Uiso  ? Al
   Al9        1.0     0.883337     0.212518     0.072613    Uiso  ? Al
   Al10       1.0     0.557109     0.214789     0.568808    Uiso  ? Al
   Al11       1.0     0.110881     0.429028     0.325300    Uiso  ? Al
   Al12       1.0     0.222079     0.532886     0.072319    Uiso  ? Al
   Al13       1.0     0.780551     0.426001     0.824290    Uiso  ? Al
   Al14       1.0     0.893117     0.531991     0.574221    Uiso  ? Al
   Al15       1.0     0.442321     0.429538     0.324663    Uiso  ? Al
   Al16       1.0     0.561116     0.531599     0.072654    Uiso  ? Al
   Al17       1.0     0.106272     0.433947     0.824260    Uiso  ? Al
   Al18       1.0     0.223485     0.539721     0.573938    Uiso  ? Al
   Al19       1.0     0.778357     0.426865     0.324610    Uiso  ? Al
   Al20       1.0     0.889244     0.536130     0.074409    Uiso  ? Al
   Al21       1.0     0.441552     0.432739     0.824243    Uiso  ? Al
   Al22       1.0     0.557793     0.530995     0.575590    Uiso  ? Al
   Al23       1.0     0.106453     0.756477     0.332247    Uiso  ? Al
   Al24       1.0     0.789172     0.749973     0.830034    Uiso  ? Al
   Al25       1.0     0.450143     0.753542     0.324876    Uiso  ? Al
   Al26       1.0     0.565422     0.861284     0.074810    Uiso  ? Al
   Al27       1.0     0.218678     0.870312     0.569069    Uiso  ? Al
   Al28       1.0     0.784618     0.757187     0.319430    Uiso  ? Al
   Al29       1.0     0.882704     0.871189     0.074322    Uiso  ? Al
   Al30       1.0     0.444063     0.753422     0.824406    Uiso  ? Al
   Mg1        1.0     0.782521     0.095196     0.823774    Uiso  ? Mg
   Mg2        1.0     0.892195     0.874034     0.575636    Uiso  ? Mg
   Mg3        1.0     0.108111     0.759582     0.820264    Uiso  ? Mg
   Hf1        1.0     0.444707     0.100604     0.844561    Uiso  ? Hf
   Hf2        1.0     0.219151     0.874365     0.085634    Uiso  ? Hf
   Hf3        1.0     0.558691     0.871998     0.578421    Uiso  ? Hf
   N1         1.0     0.224777     0.205914     0.380582    Uiso  ? N
   N2         1.0     0.100064     0.114264     0.140343    Uiso  ? N
   N3         1.0     0.896400     0.214150     0.886029    Uiso  ? N
   N4         1.0     0.767967     0.110056     0.619758    Uiso  ? N
   N5         1.0     0.551761     0.206747     0.374894    Uiso  ? N
   N6         1.0     0.443620     0.092179     0.118484    Uiso  ? N
   N7         1.0     0.202681     0.217929     0.887079    Uiso  ? N
   N8         1.0     0.113511     0.094061     0.626718    Uiso  ? N
   N9         1.0     0.888199     0.208410     0.382030    Uiso  ? N
   N10        1.0     0.780522     0.095538     0.133968    Uiso  ? N
   N11        1.0     0.552295     0.226396     0.895251    Uiso  ? N
   N12        1.0     0.435970     0.114227     0.634153    Uiso  ? N
   N13        1.0     0.223689     0.534468     0.381770    Uiso  ? N
   N14        1.0     0.109049     0.429175     0.135642    Uiso  ? N
   N15        1.0     0.889995     0.534510     0.884924    Uiso  ? N
   N16        1.0     0.778780     0.427301     0.631873    Uiso  ? N
   N17        1.0     0.556757     0.537025     0.384276    Uiso  ? N
   N18        1.0     0.443110     0.432162     0.135590    Uiso  ? N
   N19        1.0     0.228492     0.524343     0.885119    Uiso  ? N
   N20        1.0     0.111596     0.427287     0.631605    Uiso  ? N
   N21        1.0     0.888968     0.537887     0.382086    Uiso  ? N
   N22        1.0     0.776582     0.428620     0.133841    Uiso  ? N
   N23        1.0     0.555910     0.538339     0.881745    Uiso  ? N
   N24        1.0     0.443701     0.428144     0.631548    Uiso  ? N
   N25        1.0     0.224133     0.873242     0.369301    Uiso  ? N
   N26        1.0     0.104118     0.749079     0.136532    Uiso  ? N
   N27        1.0     0.878588     0.867151     0.889955    Uiso  ? N
   N28        1.0     0.788170     0.741477     0.640303    Uiso  ? N
   N29        1.0     0.555911     0.873263     0.370299    Uiso  ? N
   N30        1.0     0.462466     0.748466     0.135186    Uiso  ? N
   N31        1.0     0.229505     0.883924     0.881367    Uiso  ? N
   N32        1.0     0.126860     0.752951     0.616936    Uiso  ? N
   N33        1.0     0.885365     0.872005     0.368637    Uiso  ? N
   N34        1.0     0.778741     0.754861     0.131522    Uiso  ? N
   N35        1.0     0.564301     0.852179     0.880063    Uiso  ? N
   N36        1.0     0.439610     0.752099     0.631973    Uiso  ? N
