
#======================================================================
# CRYSTAL DATA
#----------------------------------------------------------------------
data_VESTA_phase_1

_chemical_name_common                  'Al   Mg   Hf   N                      '
_cell_length_a                         10.090774
_cell_length_b                         10.150901
_cell_length_c                         8.588165
_cell_angle_alpha                      89.940643
_cell_angle_beta                       90.024658
_cell_angle_gamma                      60.078518
_cell_volume                           762.434694
_space_group_name_H-M_alt              'P 1'
_space_group_IT_number                 1

loop_
_space_group_symop_operation_xyz
   'x, y, z'

loop_
   _atom_site_label
   _atom_site_occupancy
   _atom_site_fract_x
   _atom_site_fract_y
   _atom_site_fract_z
   _atom_site_adp_type
   _atom_site_U_iso_or_equiv
   _atom_site_type_symbol
   Al1        1.0     0.106627     0.099668     0.365932    Uiso  ? Al
   Al2        1.0     0.212196     0.214712     0.119571    Uiso  ? Al
   Al3        1.0     0.883553     0.209870     0.609187    Uiso  ? Al
   Al4        1.0     0.441491     0.101217     0.347335    Uiso  ? Al
   Al5        1.0     0.561781     0.212374     0.111153    Uiso  ? Al
   Al6        1.0     0.106166     0.103622     0.843268    Uiso  ? Al
   Al7        1.0     0.215638     0.214113     0.598949    Uiso  ? Al
   Al8        1.0     0.781452     0.093184     0.355428    Uiso  ? Al
   Al9        1.0     0.884001     0.211384     0.105793    Uiso  ? Al
   Al10       1.0     0.557530     0.215245     0.593833    Uiso  ? Al
   Al11       1.0     0.110166     0.431977     0.360833    Uiso  ? Al
   Al12       1.0     0.220519     0.537110     0.105695    Uiso  ? Al
   Al13       1.0     0.779251     0.427581     0.858892    Uiso  ? Al
   Al14       1.0     0.893320     0.531875     0.610800    Uiso  ? Al
   Al15       1.0     0.439736     0.431024     0.354996    Uiso  ? Al
   Al16       1.0     0.561916     0.532108     0.112607    Uiso  ? Al
   Al17       1.0     0.107602     0.431565     0.861722    Uiso  ? Al
   Al18       1.0     0.224836     0.537418     0.614247    Uiso  ? Al
   Al19       1.0     0.780377     0.425901     0.361865    Uiso  ? Al
   Al20       1.0     0.889635     0.533159     0.112648    Uiso  ? Al
   Al21       1.0     0.442018     0.432989     0.863778    Uiso  ? Al
   Al22       1.0     0.557664     0.530113     0.607010    Uiso  ? Al
   Al23       1.0     0.107515     0.756818     0.363983    Uiso  ? Al
   Al24       1.0     0.785921     0.751516     0.872097    Uiso  ? Al
   Al25       1.0     0.444672     0.752546     0.356140    Uiso  ? Al
   Al26       1.0     0.561558     0.863756     0.115724    Uiso  ? Al
   Al27       1.0     0.221031     0.869410     0.606045    Uiso  ? Al
   Al28       1.0     0.792108     0.752072     0.350240    Uiso  ? Al
   Al29       1.0     0.884333     0.874601     0.099889    Uiso  ? Al
   Al30       1.0     0.449510     0.751315     0.855602    Uiso  ? Al
   Mg1        1.0     0.780577     0.095464     0.852456    Uiso  ? Mg
   Mg2        1.0     0.888978     0.874415     0.610478    Uiso  ? Mg
   Mg3        1.0     0.106052     0.757191     0.846419    Uiso  ? Mg
   Hf1        1.0     0.442277     0.100626     0.860913    Uiso  ? Hf
   Hf2        1.0     0.217717     0.875742     0.101351    Uiso  ? Hf
   Hf3        1.0     0.562105     0.864676     0.596298    Uiso  ? Hf
   N1         1.0     0.220471     0.208568     0.353644    Uiso  ? N
   N2         1.0     0.101885     0.112079     0.102642    Uiso  ? N
   N3         1.0     0.894259     0.214567     0.847522    Uiso  ? N
   N4         1.0     0.769992     0.109375     0.589311    Uiso  ? N
   N5         1.0     0.550404     0.209700     0.347516    Uiso  ? N
   N6         1.0     0.441210     0.092817     0.111460    Uiso  ? N
   N7         1.0     0.207427     0.217151     0.845250    Uiso  ? N
   N8         1.0     0.112365     0.095092     0.599464    Uiso  ? N
   N9         1.0     0.890691     0.209202     0.351354    Uiso  ? N
   N10        1.0     0.778883     0.098754     0.115436    Uiso  ? N
   N11        1.0     0.549287     0.223099     0.860466    Uiso  ? N
   N12        1.0     0.440195     0.107983     0.598614    Uiso  ? N
   N13        1.0     0.221351     0.536978     0.345110    Uiso  ? N
   N14        1.0     0.109977     0.427388     0.099665    Uiso  ? N
   N15        1.0     0.889114     0.537327     0.850262    Uiso  ? N
   N16        1.0     0.777379     0.429312     0.598256    Uiso  ? N
   N17        1.0     0.557947     0.535883     0.349492    Uiso  ? N
   N18        1.0     0.443950     0.432221     0.104633    Uiso  ? N
   N19        1.0     0.228827     0.524209     0.851749    Uiso  ? N
   N20        1.0     0.110933     0.429168     0.596236    Uiso  ? N
   N21        1.0     0.892408     0.532431     0.344821    Uiso  ? N
   N22        1.0     0.776807     0.427967     0.097988    Uiso  ? N
   N23        1.0     0.556321     0.537018     0.847691    Uiso  ? N
   N24        1.0     0.443343     0.428817     0.594379    Uiso  ? N
   N25        1.0     0.223079     0.875563     0.356648    Uiso  ? N
   N26        1.0     0.106853     0.753597     0.108044    Uiso  ? N
   N27        1.0     0.875959     0.868247     0.866512    Uiso  ? N
   N28        1.0     0.790398     0.740897     0.586991    Uiso  ? N
   N29        1.0     0.551855     0.873098     0.345500    Uiso  ? N
   N30        1.0     0.458522     0.749660     0.102770    Uiso  ? N
   N31        1.0     0.231240     0.882010     0.846305    Uiso  ? N
   N32        1.0     0.125333     0.752041     0.593545    Uiso  ? N
   N33        1.0     0.888611     0.871644     0.340998    Uiso  ? N
   N34        1.0     0.777110     0.753536     0.108454    Uiso  ? N
   N35        1.0     0.563928     0.856070     0.854545    Uiso  ? N
   N36        1.0     0.442182     0.747970     0.597069    Uiso  ? N
