
#======================================================================
# CRYSTAL DATA
#----------------------------------------------------------------------
data_VESTA_phase_1

_chemical_name_common                  'Al   Mg   Hf   N                      '
_cell_length_a                         9.564933
_cell_length_b                         9.621748
_cell_length_c                         10.114340
_cell_angle_alpha                      90.097000
_cell_angle_beta                       90.141403
_cell_angle_gamma                      60.014992
_cell_volume                           806.247309
_space_group_name_H-M_alt              'P 1'
_space_group_IT_number                 1

loop_
_space_group_symop_operation_xyz
   'x, y, z'

loop_
   _atom_site_label
   _atom_site_occupancy
   _atom_site_fract_x
   _atom_site_fract_y
   _atom_site_fract_z
   _atom_site_adp_type
   _atom_site_U_iso_or_equiv
   _atom_site_type_symbol
   Al1        1.0     0.109114     0.097244     0.402770    Uiso  ? Al
   Al2        1.0     0.215666     0.214504     0.153248    Uiso  ? Al
   Al3        1.0     0.886736     0.208287     0.647020    Uiso  ? Al
   Al4        1.0     0.440988     0.102187     0.395519    Uiso  ? Al
   Al5        1.0     0.559051     0.208898     0.155420    Uiso  ? Al
   Al6        1.0     0.104143     0.104523     0.891241    Uiso  ? Al
   Al7        1.0     0.214967     0.213176     0.644884    Uiso  ? Al
   Al8        1.0     0.778124     0.096475     0.397464    Uiso  ? Al
   Al9        1.0     0.882225     0.212094     0.150839    Uiso  ? Al
   Al10       1.0     0.558309     0.216428     0.643606    Uiso  ? Al
   Al11       1.0     0.109774     0.429189     0.399274    Uiso  ? Al
   Al12       1.0     0.220805     0.535206     0.150337    Uiso  ? Al
   Al13       1.0     0.779732     0.425986     0.896231    Uiso  ? Al
   Al14       1.0     0.894322     0.532021     0.649670    Uiso  ? Al
   Al15       1.0     0.442815     0.429244     0.399165    Uiso  ? Al
   Al16       1.0     0.561469     0.531334     0.148133    Uiso  ? Al
   Al17       1.0     0.108634     0.433129     0.896749    Uiso  ? Al
   Al18       1.0     0.224389     0.537652     0.648758    Uiso  ? Al
   Al19       1.0     0.779245     0.427385     0.399446    Uiso  ? Al
   Al20       1.0     0.889359     0.535615     0.147221    Uiso  ? Al
   Al21       1.0     0.440368     0.433034     0.896961    Uiso  ? Al
   Al22       1.0     0.557209     0.531169     0.647831    Uiso  ? Al
   Al23       1.0     0.110609     0.758152     0.403543    Uiso  ? Al
   Al24       1.0     0.786085     0.752800     0.903815    Uiso  ? Al
   Al25       1.0     0.443338     0.754238     0.397749    Uiso  ? Al
   Al26       1.0     0.561920     0.867003     0.158150    Uiso  ? Al
   Al27       1.0     0.219411     0.870943     0.652672    Uiso  ? Al
   Al28       1.0     0.787863     0.752738     0.392451    Uiso  ? Al
   Al29       1.0     0.883176     0.873740     0.149695    Uiso  ? Al
   Al30       1.0     0.448603     0.751745     0.896503    Uiso  ? Al
   Mg1        1.0     0.783053     0.095903     0.898659    Uiso  ? Mg
   Mg2        1.0     0.890888     0.874555     0.648374    Uiso  ? Mg
   Mg3        1.0     0.102212     0.759444     0.889531    Uiso  ? Mg
   Hf1        1.0     0.449766     0.094217     0.896800    Uiso  ? Hf
   Hf2        1.0     0.218209     0.874566     0.137242    Uiso  ? Hf
   Hf3        1.0     0.562620     0.866004     0.633959    Uiso  ? Hf
   N1         1.0     0.219717     0.207001     0.341844    Uiso  ? N
   N2         1.0     0.100074     0.116137     0.084519    Uiso  ? N
   N3         1.0     0.893850     0.216206     0.832617    Uiso  ? N
   N4         1.0     0.771213     0.110911     0.583209    Uiso  ? N
   N5         1.0     0.552513     0.209317     0.342531    Uiso  ? N
   N6         1.0     0.444437     0.093043     0.105054    Uiso  ? N
   N7         1.0     0.211791     0.214729     0.834896    Uiso  ? N
   N8         1.0     0.114117     0.092599     0.591009    Uiso  ? N
   N9         1.0     0.891116     0.207609     0.340773    Uiso  ? N
   N10        1.0     0.777498     0.096226     0.106869    Uiso  ? N
   N11        1.0     0.548703     0.223473     0.831257    Uiso  ? N
   N12        1.0     0.437167     0.111927     0.589188    Uiso  ? N
   N13        1.0     0.221877     0.537149     0.340656    Uiso  ? N
   N14        1.0     0.111309     0.427278     0.088867    Uiso  ? N
   N15        1.0     0.888754     0.536950     0.841203    Uiso  ? N
   N16        1.0     0.777828     0.429227     0.588762    Uiso  ? N
   N17        1.0     0.556415     0.537086     0.337865    Uiso  ? N
   N18        1.0     0.443606     0.427924     0.090503    Uiso  ? N
   N19        1.0     0.228607     0.524431     0.835508    Uiso  ? N
   N20        1.0     0.111195     0.427608     0.587764    Uiso  ? N
   N21        1.0     0.891248     0.533907     0.335594    Uiso  ? N
   N22        1.0     0.777302     0.427433     0.088206    Uiso  ? N
   N23        1.0     0.555938     0.537163     0.838634    Uiso  ? N
   N24        1.0     0.443342     0.430773     0.586245    Uiso  ? N
   N25        1.0     0.221147     0.874265     0.344510    Uiso  ? N
   N26        1.0     0.102627     0.751456     0.099059    Uiso  ? N
   N27        1.0     0.869451     0.870756     0.845576    Uiso  ? N
   N28        1.0     0.793779     0.737807     0.576324    Uiso  ? N
   N29        1.0     0.553803     0.872249     0.351060    Uiso  ? N
   N30        1.0     0.462617     0.750470     0.088868    Uiso  ? N
   N31        1.0     0.229958     0.882028     0.846552    Uiso  ? N
   N32        1.0     0.127134     0.752628     0.589708    Uiso  ? N
   N33        1.0     0.889050     0.872171     0.342591    Uiso  ? N
   N34        1.0     0.775971     0.757976     0.097448    Uiso  ? N
   N35        1.0     0.564681     0.851686     0.840639    Uiso  ? N
   N36        1.0     0.438512     0.749253     0.586075    Uiso  ? N
