
#======================================================================
# CRYSTAL DATA
#----------------------------------------------------------------------
data_VESTA_phase_1

_chemical_name_common                  'Al   Mg   Hf   N                      '
_cell_length_a                         10.015137
_cell_length_b                         10.074190
_cell_length_c                         8.806533
_cell_angle_alpha                      89.951752
_cell_angle_beta                       90.017029
_cell_angle_gamma                      60.076847
_cell_volume                           770.083991
_space_group_name_H-M_alt              'P 1'
_space_group_IT_number                 1

loop_
_space_group_symop_operation_xyz
   'x, y, z'

loop_
   _atom_site_label
   _atom_site_occupancy
   _atom_site_fract_x
   _atom_site_fract_y
   _atom_site_fract_z
   _atom_site_adp_type
   _atom_site_U_iso_or_equiv
   _atom_site_type_symbol
   Al1        1.0     0.107157     0.097782     0.374310    Uiso  ? Al
   Al2        1.0     0.212539     0.214452     0.126852    Uiso  ? Al
   Al3        1.0     0.883896     0.209781     0.617544    Uiso  ? Al
   Al4        1.0     0.441493     0.101681     0.352230    Uiso  ? Al
   Al5        1.0     0.560879     0.211237     0.118727    Uiso  ? Al
   Al6        1.0     0.105549     0.105148     0.852259    Uiso  ? Al
   Al7        1.0     0.215187     0.214365     0.605402    Uiso  ? Al
   Al8        1.0     0.780753     0.093487     0.358302    Uiso  ? Al
   Al9        1.0     0.883895     0.211990     0.115753    Uiso  ? Al
   Al10       1.0     0.557529     0.216277     0.606175    Uiso  ? Al
   Al11       1.0     0.109629     0.432579     0.368176    Uiso  ? Al
   Al12       1.0     0.220036     0.537280     0.112584    Uiso  ? Al
   Al13       1.0     0.778777     0.427410     0.866142    Uiso  ? Al
   Al14       1.0     0.893458     0.532500     0.619516    Uiso  ? Al
   Al15       1.0     0.440015     0.430350     0.362628    Uiso  ? Al
   Al16       1.0     0.562666     0.531702     0.120951    Uiso  ? Al
   Al17       1.0     0.108062     0.431215     0.868979    Uiso  ? Al
   Al18       1.0     0.225609     0.536522     0.622228    Uiso  ? Al
   Al19       1.0     0.780794     0.426195     0.370259    Uiso  ? Al
   Al20       1.0     0.889920     0.532205     0.118066    Uiso  ? Al
   Al21       1.0     0.442038     0.433493     0.873038    Uiso  ? Al
   Al22       1.0     0.556982     0.530310     0.614762    Uiso  ? Al
   Al23       1.0     0.108195     0.757682     0.368594    Uiso  ? Al
   Al24       1.0     0.784378     0.751746     0.879076    Uiso  ? Al
   Al25       1.0     0.442555     0.752791     0.362205    Uiso  ? Al
   Al26       1.0     0.560567     0.865143     0.123614    Uiso  ? Al
   Al27       1.0     0.221364     0.869452     0.614829    Uiso  ? Al
   Al28       1.0     0.793223     0.751309     0.352632    Uiso  ? Al
   Al29       1.0     0.884579     0.874583     0.100181    Uiso  ? Al
   Al30       1.0     0.451336     0.750997     0.863420    Uiso  ? Al
   Mg1        1.0     0.780873     0.096192     0.857908    Uiso  ? Mg
   Mg2        1.0     0.888400     0.874449     0.614272    Uiso  ? Mg
   Mg3        1.0     0.106117     0.756948     0.848657    Uiso  ? Mg
   Hf1        1.0     0.442829     0.099165     0.860866    Uiso  ? Hf
   Hf2        1.0     0.217494     0.875633     0.101007    Uiso  ? Hf
   Hf3        1.0     0.562628     0.863982     0.596148    Uiso  ? Hf
   N1         1.0     0.219800     0.207998     0.349595    Uiso  ? N
   N2         1.0     0.101467     0.113863     0.089681    Uiso  ? N
   N3         1.0     0.893425     0.215621     0.839024    Uiso  ? N
   N4         1.0     0.770713     0.109568     0.584765    Uiso  ? N
   N5         1.0     0.550683     0.209517     0.342554    Uiso  ? N
   N6         1.0     0.441542     0.093085     0.107143    Uiso  ? N
   N7         1.0     0.207572     0.218009     0.835155    Uiso  ? N
   N8         1.0     0.112493     0.093703     0.595648    Uiso  ? N
   N9         1.0     0.891664     0.209050     0.342923    Uiso  ? N
   N10        1.0     0.778081     0.099058     0.111604    Uiso  ? N
   N11        1.0     0.548801     0.223923     0.846819    Uiso  ? N
   N12        1.0     0.440032     0.108298     0.596476    Uiso  ? N
   N13        1.0     0.220968     0.537695     0.337575    Uiso  ? N
   N14        1.0     0.110552     0.426440     0.092487    Uiso  ? N
   N15        1.0     0.888878     0.537875     0.844491    Uiso  ? N
   N16        1.0     0.777582     0.429531     0.591676    Uiso  ? N
   N17        1.0     0.558320     0.535693     0.342272    Uiso  ? N
   N18        1.0     0.444620     0.431077     0.097533    Uiso  ? N
   N19        1.0     0.229590     0.523241     0.845344    Uiso  ? N
   N20        1.0     0.110633     0.430063     0.589404    Uiso  ? N
   N21        1.0     0.892883     0.531419     0.337161    Uiso  ? N
   N22        1.0     0.776564     0.428022     0.089737    Uiso  ? N
   N23        1.0     0.556014     0.537005     0.839701    Uiso  ? N
   N24        1.0     0.442541     0.429933     0.585526    Uiso  ? N
   N25        1.0     0.221492     0.875807     0.348939    Uiso  ? N
   N26        1.0     0.106486     0.753243     0.101250    Uiso  ? N
   N27        1.0     0.874831     0.868431     0.865254    Uiso  ? N
   N28        1.0     0.791990     0.739742     0.578002    Uiso  ? N
   N29        1.0     0.550826     0.873645     0.345600    Uiso  ? N
   N30        1.0     0.460084     0.749364     0.095848    Uiso  ? N
   N31        1.0     0.232354     0.881696     0.845549    Uiso  ? N
   N32        1.0     0.125606     0.751888     0.592451    Uiso  ? N
   N33        1.0     0.889738     0.871717     0.337078    Uiso  ? N
   N34        1.0     0.776142     0.754090     0.105918    Uiso  ? N
   N35        1.0     0.565215     0.854647     0.846083    Uiso  ? N
   N36        1.0     0.440746     0.747808     0.589232    Uiso  ? N
