
#======================================================================
# CRYSTAL DATA
#----------------------------------------------------------------------
data_VESTA_phase_1

_chemical_name_common                  'Al   Mg   Hf   N                      '
_cell_length_a                         9.564840
_cell_length_b                         9.621655
_cell_length_c                         10.114527
_cell_angle_alpha                      90.097404
_cell_angle_beta                       90.141930
_cell_angle_gamma                      60.015305
_cell_volume                           806.249100
_space_group_name_H-M_alt              'P 1'
_space_group_IT_number                 1

loop_
_space_group_symop_operation_xyz
   'x, y, z'

loop_
   _atom_site_label
   _atom_site_occupancy
   _atom_site_fract_x
   _atom_site_fract_y
   _atom_site_fract_z
   _atom_site_adp_type
   _atom_site_U_iso_or_equiv
   _atom_site_type_symbol
   Al1        1.0     0.109122     0.097244     0.409661    Uiso  ? Al
   Al2        1.0     0.215673     0.214504     0.160137    Uiso  ? Al
   Al3        1.0     0.886743     0.208286     0.653908    Uiso  ? Al
   Al4        1.0     0.440997     0.102185     0.402406    Uiso  ? Al
   Al5        1.0     0.559058     0.208897     0.162308    Uiso  ? Al
   Al6        1.0     0.104150     0.104521     0.898128    Uiso  ? Al
   Al7        1.0     0.214975     0.213176     0.651773    Uiso  ? Al
   Al8        1.0     0.778132     0.096474     0.404353    Uiso  ? Al
   Al9        1.0     0.882233     0.212093     0.157727    Uiso  ? Al
   Al10       1.0     0.558317     0.216427     0.650494    Uiso  ? Al
   Al11       1.0     0.109782     0.429188     0.406160    Uiso  ? Al
   Al12       1.0     0.220813     0.535205     0.157224    Uiso  ? Al
   Al13       1.0     0.779739     0.425985     0.903117    Uiso  ? Al
   Al14       1.0     0.894330     0.532021     0.656556    Uiso  ? Al
   Al15       1.0     0.442823     0.429243     0.406051    Uiso  ? Al
   Al16       1.0     0.561476     0.531334     0.155018    Uiso  ? Al
   Al17       1.0     0.108641     0.433129     0.903636    Uiso  ? Al
   Al18       1.0     0.224398     0.537651     0.655644    Uiso  ? Al
   Al19       1.0     0.779253     0.427385     0.406332    Uiso  ? Al
   Al20       1.0     0.889366     0.535615     0.154108    Uiso  ? Al
   Al21       1.0     0.440376     0.433034     0.903846    Uiso  ? Al
   Al22       1.0     0.557218     0.531169     0.654716    Uiso  ? Al
   Al23       1.0     0.110618     0.758151     0.410432    Uiso  ? Al
   Al24       1.0     0.786094     0.752800     0.910703    Uiso  ? Al
   Al25       1.0     0.443349     0.754238     0.404637    Uiso  ? Al
   Al26       1.0     0.561928     0.867002     0.165037    Uiso  ? Al
   Al27       1.0     0.219421     0.870943     0.659559    Uiso  ? Al
   Al28       1.0     0.787870     0.752738     0.399338    Uiso  ? Al
   Al29       1.0     0.883184     0.873740     0.156585    Uiso  ? Al
   Al30       1.0     0.448608     0.751745     0.903391    Uiso  ? Al
   Mg1        1.0     0.783060     0.095902     0.905548    Uiso  ? Mg
   Mg2        1.0     0.890899     0.874553     0.655261    Uiso  ? Mg
   Mg3        1.0     0.102221     0.759444     0.896419    Uiso  ? Mg
   Hf1        1.0     0.449772     0.094219     0.903692    Uiso  ? Hf
   Hf2        1.0     0.218217     0.874566     0.144136    Uiso  ? Hf
   Hf3        1.0     0.562631     0.866005     0.640854    Uiso  ? Hf
   N1         1.0     0.219724     0.207000     0.348730    Uiso  ? N
   N2         1.0     0.100081     0.116135     0.091404    Uiso  ? N
   N3         1.0     0.893856     0.216205     0.839502    Uiso  ? N
   N4         1.0     0.771221     0.110909     0.590094    Uiso  ? N
   N5         1.0     0.552522     0.209316     0.349417    Uiso  ? N
   N6         1.0     0.444443     0.093044     0.111943    Uiso  ? N
   N7         1.0     0.211798     0.214728     0.841782    Uiso  ? N
   N8         1.0     0.114124     0.092599     0.597896    Uiso  ? N
   N9         1.0     0.891124     0.207608     0.347659    Uiso  ? N
   N10        1.0     0.777505     0.096225     0.113754    Uiso  ? N
   N11        1.0     0.548711     0.223471     0.838142    Uiso  ? N
   N12        1.0     0.437174     0.111925     0.596071    Uiso  ? N
   N13        1.0     0.221886     0.537148     0.347540    Uiso  ? N
   N14        1.0     0.111316     0.427277     0.095751    Uiso  ? N
   N15        1.0     0.888761     0.536950     0.848087    Uiso  ? N
   N16        1.0     0.777836     0.429226     0.595646    Uiso  ? N
   N17        1.0     0.556423     0.537086     0.344749    Uiso  ? N
   N18        1.0     0.443613     0.427923     0.097386    Uiso  ? N
   N19        1.0     0.228614     0.524431     0.842391    Uiso  ? N
   N20        1.0     0.111204     0.427607     0.594648    Uiso  ? N
   N21        1.0     0.891256     0.533906     0.342478    Uiso  ? N
   N22        1.0     0.777310     0.427432     0.095090    Uiso  ? N
   N23        1.0     0.555945     0.537163     0.845517    Uiso  ? N
   N24        1.0     0.443351     0.430772     0.593129    Uiso  ? N
   N25        1.0     0.221156     0.874265     0.351399    Uiso  ? N
   N26        1.0     0.102635     0.751456     0.105944    Uiso  ? N
   N27        1.0     0.869460     0.870754     0.852459    Uiso  ? N
   N28        1.0     0.793787     0.737807     0.583208    Uiso  ? N
   N29        1.0     0.553812     0.872248     0.357942    Uiso  ? N
   N30        1.0     0.462623     0.750469     0.095753    Uiso  ? N
   N31        1.0     0.229966     0.882028     0.853433    Uiso  ? N
   N32        1.0     0.127144     0.752626     0.596593    Uiso  ? N
   N33        1.0     0.889059     0.872170     0.349477    Uiso  ? N
   N34        1.0     0.775979     0.757975     0.104332    Uiso  ? N
   N35        1.0     0.564687     0.851688     0.847529    Uiso  ? N
   N36        1.0     0.438523     0.749255     0.592960    Uiso  ? N
