
#======================================================================
# CRYSTAL DATA
#----------------------------------------------------------------------
data_VESTA_phase_1

_chemical_name_common                  'Al   Mg   Hf   N                      '
_cell_length_a                         9.569013
_cell_length_b                         9.612878
_cell_length_c                         10.117865
_cell_angle_alpha                      90.017822
_cell_angle_beta                       90.089737
_cell_angle_gamma                      60.055260
_cell_volume                           806.456620
_space_group_name_H-M_alt              'P 1'
_space_group_IT_number                 1

loop_
_space_group_symop_operation_xyz
   'x, y, z'

loop_
   _atom_site_label
   _atom_site_occupancy
   _atom_site_fract_x
   _atom_site_fract_y
   _atom_site_fract_z
   _atom_site_adp_type
   _atom_site_U_iso_or_equiv
   _atom_site_type_symbol
   Al1        1.0     0.106957     0.101198     0.311106    Uiso  ? Al
   Al2        1.0     0.211959     0.216151     0.058466    Uiso  ? Al
   Al3        1.0     0.884446     0.207085     0.554602    Uiso  ? Al
   Al4        1.0     0.442505     0.098349     0.297096    Uiso  ? Al
   Al5        1.0     0.559777     0.211934     0.061610    Uiso  ? Al
   Al6        1.0     0.104781     0.100791     0.801816    Uiso  ? Al
   Al7        1.0     0.215538     0.213182     0.552914    Uiso  ? Al
   Al8        1.0     0.779730     0.092622     0.307442    Uiso  ? Al
   Al9        1.0     0.883307     0.212633     0.054295    Uiso  ? Al
   Al10       1.0     0.557628     0.214773     0.550118    Uiso  ? Al
   Al11       1.0     0.110651     0.429066     0.306672    Uiso  ? Al
   Al12       1.0     0.222213     0.532640     0.053974    Uiso  ? Al
   Al13       1.0     0.780506     0.425878     0.805838    Uiso  ? Al
   Al14       1.0     0.893061     0.532447     0.556344    Uiso  ? Al
   Al15       1.0     0.442516     0.429318     0.305912    Uiso  ? Al
   Al16       1.0     0.560985     0.531598     0.054148    Uiso  ? Al
   Al17       1.0     0.106521     0.433965     0.806068    Uiso  ? Al
   Al18       1.0     0.223455     0.539885     0.555110    Uiso  ? Al
   Al19       1.0     0.778255     0.427076     0.306227    Uiso  ? Al
   Al20       1.0     0.889272     0.536059     0.055552    Uiso  ? Al
   Al21       1.0     0.441469     0.432737     0.805907    Uiso  ? Al
   Al22       1.0     0.557653     0.531225     0.557045    Uiso  ? Al
   Al23       1.0     0.106842     0.756795     0.312526    Uiso  ? Al
   Al24       1.0     0.788578     0.750595     0.812081    Uiso  ? Al
   Al25       1.0     0.448898     0.753862     0.305611    Uiso  ? Al
   Al26       1.0     0.564780     0.862316     0.057174    Uiso  ? Al
   Al27       1.0     0.218452     0.870425     0.551357    Uiso  ? Al
   Al28       1.0     0.784788     0.756937     0.300038    Uiso  ? Al
   Al29       1.0     0.882628     0.871131     0.055804    Uiso  ? Al
   Al30       1.0     0.444842     0.753478     0.805595    Uiso  ? Al
   Mg1        1.0     0.782919     0.094859     0.805198    Uiso  ? Mg
   Mg2        1.0     0.892492     0.873925     0.555670    Uiso  ? Mg
   Mg3        1.0     0.107623     0.759351     0.801174    Uiso  ? Mg
   Hf1        1.0     0.445131     0.099827     0.823090    Uiso  ? Hf
   Hf2        1.0     0.218842     0.874446     0.064126    Uiso  ? Hf
   Hf3        1.0     0.559224     0.871509     0.557141    Uiso  ? Hf
   N1         1.0     0.224267     0.206009     0.362883    Uiso  ? N
   N2         1.0     0.100691     0.113584     0.122325    Uiso  ? N
   N3         1.0     0.896444     0.214167     0.868888    Uiso  ? N
   N4         1.0     0.768315     0.109715     0.602617    Uiso  ? N
   N5         1.0     0.552138     0.206753     0.357590    Uiso  ? N
   N6         1.0     0.443549     0.092670     0.102277    Uiso  ? N
   N7         1.0     0.203661     0.217357     0.869441    Uiso  ? N
   N8         1.0     0.113021     0.094586     0.609274    Uiso  ? N
   N9         1.0     0.888131     0.208220     0.364003    Uiso  ? N
   N10        1.0     0.780159     0.095654     0.115749    Uiso  ? N
   N11        1.0     0.551932     0.225743     0.877182    Uiso  ? N
   N12        1.0     0.436200     0.113407     0.614453    Uiso  ? N
   N13        1.0     0.223640     0.534701     0.363826    Uiso  ? N
   N14        1.0     0.109026     0.428992     0.117928    Uiso  ? N
   N15        1.0     0.889988     0.534519     0.867105    Uiso  ? N
   N16        1.0     0.778769     0.427321     0.614262    Uiso  ? N
   N17        1.0     0.556478     0.537321     0.366547    Uiso  ? N
   N18        1.0     0.443328     0.431647     0.117769    Uiso  ? N
   N19        1.0     0.228534     0.524506     0.867977    Uiso  ? N
   N20        1.0     0.111794     0.427371     0.614250    Uiso  ? N
   N21        1.0     0.888810     0.538203     0.364912    Uiso  ? N
   N22        1.0     0.776525     0.428827     0.116367    Uiso  ? N
   N23        1.0     0.555978     0.538280     0.864196    Uiso  ? N
   N24        1.0     0.443666     0.428165     0.614077    Uiso  ? N
   N25        1.0     0.223845     0.873214     0.353065    Uiso  ? N
   N26        1.0     0.104396     0.749242     0.118577    Uiso  ? N
   N27        1.0     0.878761     0.867123     0.872959    Uiso  ? N
   N28        1.0     0.787582     0.742371     0.623347    Uiso  ? N
   N29        1.0     0.555978     0.872851     0.350676    Uiso  ? N
   N30        1.0     0.461283     0.748940     0.117183    Uiso  ? N
   N31        1.0     0.229465     0.883748     0.861666    Uiso  ? N
   N32        1.0     0.126711     0.752834     0.599906    Uiso  ? N
   N33        1.0     0.885468     0.872046     0.350106    Uiso  ? N
   N34        1.0     0.778856     0.754699     0.113580    Uiso  ? N
   N35        1.0     0.564055     0.852531     0.864276    Uiso  ? N
   N36        1.0     0.440143     0.752551     0.614488    Uiso  ? N
