
#======================================================================
# CRYSTAL DATA
#----------------------------------------------------------------------
data_VESTA_phase_1

_chemical_name_common                  'Al   Mg   Hf   N                      '
_cell_length_a                         9.569251
_cell_length_b                         9.613222
_cell_length_c                         10.117040
_cell_angle_alpha                      90.016411
_cell_angle_beta                       90.088715
_cell_angle_gamma                      60.055042
_cell_volume                           806.438092
_space_group_name_H-M_alt              'P 1'
_space_group_IT_number                 1

loop_
_space_group_symop_operation_xyz
   'x, y, z'

loop_
   _atom_site_label
   _atom_site_occupancy
   _atom_site_fract_x
   _atom_site_fract_y
   _atom_site_fract_z
   _atom_site_adp_type
   _atom_site_U_iso_or_equiv
   _atom_site_type_symbol
   Al1        1.0     0.106967     0.101206     0.321988    Uiso  ? Al
   Al2        1.0     0.211959     0.216158     0.069338    Uiso  ? Al
   Al3        1.0     0.884456     0.207085     0.565480    Uiso  ? Al
   Al4        1.0     0.442521     0.098343     0.307966    Uiso  ? Al
   Al5        1.0     0.559799     0.211942     0.072492    Uiso  ? Al
   Al6        1.0     0.104797     0.100786     0.812693    Uiso  ? Al
   Al7        1.0     0.215556     0.213182     0.563797    Uiso  ? Al
   Al8        1.0     0.779747     0.092616     0.318324    Uiso  ? Al
   Al9        1.0     0.883322     0.212632     0.065167    Uiso  ? Al
   Al10       1.0     0.557634     0.214774     0.560991    Uiso  ? Al
   Al11       1.0     0.110667     0.429064     0.317544    Uiso  ? Al
   Al12       1.0     0.222224     0.532642     0.064845    Uiso  ? Al
   Al13       1.0     0.780517     0.425880     0.816710    Uiso  ? Al
   Al14       1.0     0.893072     0.532442     0.567207    Uiso  ? Al
   Al15       1.0     0.442525     0.429320     0.316787    Uiso  ? Al
   Al16       1.0     0.561000     0.531597     0.065024    Uiso  ? Al
   Al17       1.0     0.106529     0.433967     0.816936    Uiso  ? Al
   Al18       1.0     0.223465     0.539885     0.565988    Uiso  ? Al
   Al19       1.0     0.778271     0.427070     0.317097    Uiso  ? Al
   Al20       1.0     0.889285     0.536058     0.066428    Uiso  ? Al
   Al21       1.0     0.441482     0.432739     0.816778    Uiso  ? Al
   Al22       1.0     0.557666     0.531222     0.567915    Uiso  ? Al
   Al23       1.0     0.106849     0.756788     0.323411    Uiso  ? Al
   Al24       1.0     0.788596     0.750587     0.822947    Uiso  ? Al
   Al25       1.0     0.448927     0.753856     0.316493    Uiso  ? Al
   Al26       1.0     0.564802     0.862304     0.068034    Uiso  ? Al
   Al27       1.0     0.218464     0.870421     0.562217    Uiso  ? Al
   Al28       1.0     0.784800     0.756937     0.310918    Uiso  ? Al
   Al29       1.0     0.882641     0.871131     0.066672    Uiso  ? Al
   Al30       1.0     0.444843     0.753478     0.816473    Uiso  ? Al
   Mg1        1.0     0.782928     0.094865     0.816072    Uiso  ? Mg
   Mg2        1.0     0.892500     0.873925     0.566560    Uiso  ? Mg
   Mg3        1.0     0.107640     0.759355     0.812059    Uiso  ? Mg
   Hf1        1.0     0.445144     0.099839     0.834000    Uiso  ? Hf
   Hf2        1.0     0.218856     0.874446     0.075042    Uiso  ? Hf
   Hf3        1.0     0.559231     0.871515     0.568049    Uiso  ? Hf
   N1         1.0     0.224287     0.206005     0.373752    Uiso  ? N
   N2         1.0     0.100699     0.113594     0.133196    Uiso  ? N
   N3         1.0     0.896457     0.214167     0.879746    Uiso  ? N
   N4         1.0     0.768323     0.109717     0.613477    Uiso  ? N
   N5         1.0     0.552147     0.206750     0.368450    Uiso  ? N
   N6         1.0     0.443564     0.092663     0.113122    Uiso  ? N
   N7         1.0     0.203661     0.217364     0.880302    Uiso  ? N
   N8         1.0     0.113040     0.094577     0.620136    Uiso  ? N
   N9         1.0     0.888144     0.208219     0.374873    Uiso  ? N
   N10        1.0     0.780178     0.095650     0.126617    Uiso  ? N
   N11        1.0     0.551949     0.225754     0.888051    Uiso  ? N
   N12        1.0     0.436207     0.113420     0.625345    Uiso  ? N
   N13        1.0     0.223652     0.534696     0.374694    Uiso  ? N
   N14        1.0     0.109041     0.428992     0.128791    Uiso  ? N
   N15        1.0     0.889999     0.534518     0.877970    Uiso  ? N
   N16        1.0     0.778781     0.427319     0.625125    Uiso  ? N
   N17        1.0     0.556494     0.537315     0.377411    Uiso  ? N
   N18        1.0     0.443339     0.431653     0.128635    Uiso  ? N
   N19        1.0     0.228544     0.524503     0.878835    Uiso  ? N
   N20        1.0     0.111802     0.427371     0.625111    Uiso  ? N
   N21        1.0     0.888823     0.538196     0.375768    Uiso  ? N
   N22        1.0     0.776540     0.428823     0.127229    Uiso  ? N
   N23        1.0     0.555988     0.538283     0.875060    Uiso  ? N
   N24        1.0     0.443679     0.428165     0.624939    Uiso  ? N
   N25        1.0     0.223861     0.873211     0.363910    Uiso  ? N
   N26        1.0     0.104406     0.749240     0.129441    Uiso  ? N
   N27        1.0     0.878765     0.867125     0.883810    Uiso  ? N
   N28        1.0     0.787595     0.742361     0.634201    Uiso  ? N
   N29        1.0     0.555989     0.872855     0.361564    Uiso  ? N
   N30        1.0     0.461314     0.748933     0.128052    Uiso  ? N
   N31        1.0     0.229476     0.883751     0.872558    Uiso  ? N
   N32        1.0     0.126725     0.752836     0.610767    Uiso  ? N
   N33        1.0     0.885477     0.872043     0.360980    Uiso  ? N
   N34        1.0     0.778867     0.754700     0.124445    Uiso  ? N
   N35        1.0     0.564068     0.852526     0.875117    Uiso  ? N
   N36        1.0     0.440146     0.752545     0.625351    Uiso  ? N
