
#======================================================================
# CRYSTAL DATA
#----------------------------------------------------------------------
data_VESTA_phase_1

_chemical_name_common                  'Al   Mg   Hf   N                      '
_cell_length_a                         9.565337
_cell_length_b                         9.622268
_cell_length_c                         10.113105
_cell_angle_alpha                      90.094994
_cell_angle_beta                       90.138504
_cell_angle_gamma                      60.014866
_cell_volume                           806.225573
_space_group_name_H-M_alt              'P 1'
_space_group_IT_number                 1

loop_
_space_group_symop_operation_xyz
   'x, y, z'

loop_
   _atom_site_label
   _atom_site_occupancy
   _atom_site_fract_x
   _atom_site_fract_y
   _atom_site_fract_z
   _atom_site_adp_type
   _atom_site_U_iso_or_equiv
   _atom_site_type_symbol
   Al1        1.0     0.109110     0.097237     0.395354    Uiso  ? Al
   Al2        1.0     0.215667     0.214502     0.145838    Uiso  ? Al
   Al3        1.0     0.886725     0.208289     0.639612    Uiso  ? Al
   Al4        1.0     0.440971     0.102206     0.388124    Uiso  ? Al
   Al5        1.0     0.559044     0.208899     0.148000    Uiso  ? Al
   Al6        1.0     0.104131     0.104540     0.883844    Uiso  ? Al
   Al7        1.0     0.214948     0.213181     0.637480    Uiso  ? Al
   Al8        1.0     0.778114     0.096478     0.390051    Uiso  ? Al
   Al9        1.0     0.882219     0.212099     0.143439    Uiso  ? Al
   Al10       1.0     0.558299     0.216438     0.636207    Uiso  ? Al
   Al11       1.0     0.109763     0.429193     0.391868    Uiso  ? Al
   Al12       1.0     0.220793     0.535211     0.142933    Uiso  ? Al
   Al13       1.0     0.779727     0.425984     0.888829    Uiso  ? Al
   Al14       1.0     0.894311     0.532021     0.642272    Uiso  ? Al
   Al15       1.0     0.442801     0.429246     0.391755    Uiso  ? Al
   Al16       1.0     0.561465     0.531334     0.140728    Uiso  ? Al
   Al17       1.0     0.108634     0.433123     0.889352    Uiso  ? Al
   Al18       1.0     0.224375     0.537653     0.641352    Uiso  ? Al
   Al19       1.0     0.779235     0.427390     0.392044    Uiso  ? Al
   Al20       1.0     0.889352     0.535615     0.139814    Uiso  ? Al
   Al21       1.0     0.440356     0.433035     0.889567    Uiso  ? Al
   Al22       1.0     0.557194     0.531164     0.640427    Uiso  ? Al
   Al23       1.0     0.110592     0.758163     0.396132    Uiso  ? Al
   Al24       1.0     0.786072     0.752799     0.896400    Uiso  ? Al
   Al25       1.0     0.443302     0.754233     0.390330    Uiso  ? Al
   Al26       1.0     0.561911     0.867006     0.150761    Uiso  ? Al
   Al27       1.0     0.219393     0.870941     0.645287    Uiso  ? Al
   Al28       1.0     0.787874     0.752730     0.385042    Uiso  ? Al
   Al29       1.0     0.883165     0.873744     0.142268    Uiso  ? Al
   Al30       1.0     0.448621     0.751733     0.889091    Uiso  ? Al
   Mg1        1.0     0.783044     0.095913     0.891252    Uiso  ? Mg
   Mg2        1.0     0.890859     0.874565     0.640972    Uiso  ? Mg
   Mg3        1.0     0.102197     0.759430     0.882115    Uiso  ? Mg
   Hf1        1.0     0.449777     0.094195     0.889352    Uiso  ? Hf
   Hf2        1.0     0.218197     0.874559     0.129775    Uiso  ? Hf
   Hf3        1.0     0.562605     0.865987     0.626481    Uiso  ? Hf
   N1         1.0     0.219713     0.207003     0.334455    Uiso  ? N
   N2         1.0     0.100065     0.116151     0.077134    Uiso  ? N
   N3         1.0     0.893849     0.216208     0.825228    Uiso  ? N
   N4         1.0     0.771201     0.110919     0.575819    Uiso  ? N
   N5         1.0     0.552499     0.209321     0.335135    Uiso  ? N
   N6         1.0     0.444440     0.093032     0.097637    Uiso  ? N
   N7         1.0     0.211785     0.214730     0.827511    Uiso  ? N
   N8         1.0     0.114117     0.092589     0.583618    Uiso  ? N
   N9         1.0     0.891108     0.207616     0.333388    Uiso  ? N
   N10        1.0     0.777496     0.096235     0.099479    Uiso  ? N
   N11        1.0     0.548696     0.223479     0.823880    Uiso  ? N
   N12        1.0     0.437155     0.111938     0.581821    Uiso  ? N
   N13        1.0     0.221863     0.537156     0.333269    Uiso  ? N
   N14        1.0     0.111306     0.427276     0.081482    Uiso  ? N
   N15        1.0     0.888755     0.536945     0.833820    Uiso  ? N
   N16        1.0     0.777816     0.429231     0.581376    Uiso  ? N
   N17        1.0     0.556406     0.537085     0.330474    Uiso  ? N
   N18        1.0     0.443598     0.427931     0.083118    Uiso  ? N
   N19        1.0     0.228602     0.524426     0.828119    Uiso  ? N
   N20        1.0     0.111185     0.427605     0.580375    Uiso  ? N
   N21        1.0     0.891241     0.533906     0.328202    Uiso  ? N
   N22        1.0     0.777298     0.427433     0.080817    Uiso  ? N
   N23        1.0     0.555932     0.537158     0.831246    Uiso  ? N
   N24        1.0     0.443330     0.430774     0.578852    Uiso  ? N
   N25        1.0     0.221130     0.874271     0.337079    Uiso  ? N
   N26        1.0     0.102618     0.751450     0.091658    Uiso  ? N
   N27        1.0     0.869434     0.870765     0.838206    Uiso  ? N
   N28        1.0     0.793779     0.737803     0.568939    Uiso  ? N
   N29        1.0     0.553786     0.872256     0.343705    Uiso  ? N
   N30        1.0     0.462630     0.750467     0.081479    Uiso  ? N
   N31        1.0     0.229954     0.882029     0.839203    Uiso  ? N
   N32        1.0     0.127114     0.752638     0.582327    Uiso  ? N
   N33        1.0     0.889038     0.872178     0.335191    Uiso  ? N
   N34        1.0     0.775955     0.757978     0.090060    Uiso  ? N
   N35        1.0     0.564689     0.851661     0.833192    Uiso  ? N
   N36        1.0     0.438477     0.749239     0.578680    Uiso  ? N
