
#======================================================================
# CRYSTAL DATA
#----------------------------------------------------------------------
data_VESTA_phase_1

_chemical_name_common                  'Al   Mg   Hf   N                      '
_cell_length_a                         9.569052
_cell_length_b                         9.612929
_cell_length_c                         10.117746
_cell_angle_alpha                      90.017487
_cell_angle_beta                       90.089447
_cell_angle_gamma                      60.055180
_cell_volume                           806.454165
_space_group_name_H-M_alt              'P 1'
_space_group_IT_number                 1

loop_
_space_group_symop_operation_xyz
   'x, y, z'

loop_
   _atom_site_label
   _atom_site_occupancy
   _atom_site_fract_x
   _atom_site_fract_y
   _atom_site_fract_z
   _atom_site_adp_type
   _atom_site_U_iso_or_equiv
   _atom_site_type_symbol
   Al1        1.0     0.106965     0.101198     0.318214    Uiso  ? Al
   Al2        1.0     0.211965     0.216153     0.065575    Uiso  ? Al
   Al3        1.0     0.884453     0.207084     0.561708    Uiso  ? Al
   Al4        1.0     0.442515     0.098348     0.304201    Uiso  ? Al
   Al5        1.0     0.559789     0.211936     0.068717    Uiso  ? Al
   Al6        1.0     0.104789     0.100790     0.808926    Uiso  ? Al
   Al7        1.0     0.215546     0.213182     0.560023    Uiso  ? Al
   Al8        1.0     0.779740     0.092619     0.314551    Uiso  ? Al
   Al9        1.0     0.883316     0.212632     0.061401    Uiso  ? Al
   Al10       1.0     0.557635     0.214773     0.557225    Uiso  ? Al
   Al11       1.0     0.110660     0.429066     0.313778    Uiso  ? Al
   Al12       1.0     0.222221     0.532640     0.061079    Uiso  ? Al
   Al13       1.0     0.780513     0.425879     0.812943    Uiso  ? Al
   Al14       1.0     0.893068     0.532446     0.563447    Uiso  ? Al
   Al15       1.0     0.442523     0.429318     0.313018    Uiso  ? Al
   Al16       1.0     0.560995     0.531597     0.061254    Uiso  ? Al
   Al17       1.0     0.106528     0.433966     0.813172    Uiso  ? Al
   Al18       1.0     0.223461     0.539885     0.562216    Uiso  ? Al
   Al19       1.0     0.778265     0.427073     0.313331    Uiso  ? Al
   Al20       1.0     0.889281     0.536058     0.062659    Uiso  ? Al
   Al21       1.0     0.441477     0.432737     0.813012    Uiso  ? Al
   Al22       1.0     0.557661     0.531224     0.564150    Uiso  ? Al
   Al23       1.0     0.106849     0.756793     0.319633    Uiso  ? Al
   Al24       1.0     0.788587     0.750594     0.819184    Uiso  ? Al
   Al25       1.0     0.448910     0.753860     0.312719    Uiso  ? Al
   Al26       1.0     0.564792     0.862312     0.064277    Uiso  ? Al
   Al27       1.0     0.218458     0.870423     0.558462    Uiso  ? Al
   Al28       1.0     0.784797     0.756936     0.307148    Uiso  ? Al
   Al29       1.0     0.882636     0.871131     0.062911    Uiso  ? Al
   Al30       1.0     0.444848     0.753478     0.812702    Uiso  ? Al
   Mg1        1.0     0.782926     0.094860     0.812305    Uiso  ? Mg
   Mg2        1.0     0.892499     0.873924     0.562780    Uiso  ? Mg
   Mg3        1.0     0.107631     0.759353     0.808284    Uiso  ? Mg
   Hf1        1.0     0.445140     0.099831     0.830206    Uiso  ? Hf
   Hf2        1.0     0.218849     0.874445     0.071244    Uiso  ? Hf
   Hf3        1.0     0.559233     0.871509     0.564256    Uiso  ? Hf
   N1         1.0     0.224278     0.206007     0.369991    Uiso  ? N
   N2         1.0     0.100699     0.113585     0.129432    Uiso  ? N
   N3         1.0     0.896453     0.214167     0.875991    Uiso  ? N
   N4         1.0     0.768322     0.109715     0.609722    Uiso  ? N
   N5         1.0     0.552146     0.206751     0.364695    Uiso  ? N
   N6         1.0     0.443559     0.092667     0.109379    Uiso  ? N
   N7         1.0     0.203666     0.217358     0.876547    Uiso  ? N
   N8         1.0     0.113031     0.094583     0.616381    Uiso  ? N
   N9         1.0     0.888140     0.208219     0.371110    Uiso  ? N
   N10        1.0     0.780168     0.095653     0.122855    Uiso  ? N
   N11        1.0     0.551940     0.225745     0.884287    Uiso  ? N
   N12        1.0     0.436205     0.113411     0.621566    Uiso  ? N
   N13        1.0     0.223648     0.534699     0.370932    Uiso  ? N
   N14        1.0     0.109035     0.428992     0.125033    Uiso  ? N
   N15        1.0     0.889995     0.534519     0.874209    Uiso  ? N
   N16        1.0     0.778777     0.427320     0.621366    Uiso  ? N
   N17        1.0     0.556488     0.537319     0.373652    Uiso  ? N
   N18        1.0     0.443336     0.431648     0.124874    Uiso  ? N
   N19        1.0     0.228541     0.524505     0.875080    Uiso  ? N
   N20        1.0     0.111801     0.427371     0.621355    Uiso  ? N
   N21        1.0     0.888818     0.538200     0.372015    Uiso  ? N
   N22        1.0     0.776534     0.428826     0.123471    Uiso  ? N
   N23        1.0     0.555985     0.538281     0.871300    Uiso  ? N
   N24        1.0     0.443674     0.428165     0.621181    Uiso  ? N
   N25        1.0     0.223855     0.873212     0.360167    Uiso  ? N
   N26        1.0     0.104405     0.749242     0.125681    Uiso  ? N
   N27        1.0     0.878766     0.867123     0.880062    Uiso  ? N
   N28        1.0     0.787586     0.742371     0.630449    Uiso  ? N
   N29        1.0     0.555985     0.872852     0.357787    Uiso  ? N
   N30        1.0     0.461296     0.748938     0.124289    Uiso  ? N
   N31        1.0     0.229473     0.883748     0.868777    Uiso  ? N
   N32        1.0     0.126719     0.752835     0.607013    Uiso  ? N
   N33        1.0     0.885475     0.872044     0.357214    Uiso  ? N
   N34        1.0     0.778863     0.754699     0.120687    Uiso  ? N
   N35        1.0     0.564063     0.852529     0.871376    Uiso  ? N
   N36        1.0     0.440148     0.752550     0.621594    Uiso  ? N
