
#======================================================================
# CRYSTAL DATA
#----------------------------------------------------------------------
data_VESTA_phase_1

_chemical_name_common                  'Al   Mg   Hf   N                      '
_cell_length_a                         10.091989
_cell_length_b                         10.151144
_cell_length_c                         8.588353
_cell_angle_alpha                      89.923500
_cell_angle_beta                       90.038628
_cell_angle_gamma                      60.073860
_cell_volume                           762.525037
_space_group_name_H-M_alt              'P 1'
_space_group_IT_number                 1

loop_
_space_group_symop_operation_xyz
   'x, y, z'

loop_
   _atom_site_label
   _atom_site_occupancy
   _atom_site_fract_x
   _atom_site_fract_y
   _atom_site_fract_z
   _atom_site_adp_type
   _atom_site_U_iso_or_equiv
   _atom_site_type_symbol
   Al1        1.0     0.105867     0.100872     0.358876    Uiso  ? Al
   Al2        1.0     0.210618     0.215173     0.109617    Uiso  ? Al
   Al3        1.0     0.882780     0.210257     0.600035    Uiso  ? Al
   Al4        1.0     0.441409     0.100667     0.342326    Uiso  ? Al
   Al5        1.0     0.562280     0.214016     0.108219    Uiso  ? Al
   Al6        1.0     0.107015     0.102856     0.834633    Uiso  ? Al
   Al7        1.0     0.217013     0.213493     0.588550    Uiso  ? Al
   Al8        1.0     0.782609     0.092916     0.354449    Uiso  ? Al
   Al9        1.0     0.884312     0.210785     0.092825    Uiso  ? Al
   Al10       1.0     0.557015     0.214583     0.584830    Uiso  ? Al
   Al11       1.0     0.111150     0.431404     0.347903    Uiso  ? Al
   Al12       1.0     0.221615     0.536098     0.093620    Uiso  ? Al
   Al13       1.0     0.779941     0.428198     0.846219    Uiso  ? Al
   Al14       1.0     0.893047     0.530672     0.594221    Uiso  ? Al
   Al15       1.0     0.439220     0.432364     0.346447    Uiso  ? Al
   Al16       1.0     0.560825     0.532052     0.098750    Uiso  ? Al
   Al17       1.0     0.106575     0.431702     0.847420    Uiso  ? Al
   Al18       1.0     0.223803     0.538149     0.602179    Uiso  ? Al
   Al19       1.0     0.779472     0.424870     0.347736    Uiso  ? Al
   Al20       1.0     0.889510     0.534264     0.102991    Uiso  ? Al
   Al21       1.0     0.442303     0.431784     0.847005    Uiso  ? Al
   Al22       1.0     0.558540     0.530269     0.596201    Uiso  ? Al
   Al23       1.0     0.107528     0.756723     0.363297    Uiso  ? Al
   Al24       1.0     0.786893     0.750991     0.864037    Uiso  ? Al
   Al25       1.0     0.446115     0.752138     0.351703    Uiso  ? Al
   Al26       1.0     0.562592     0.862941     0.113115    Uiso  ? Al
   Al27       1.0     0.221301     0.869627     0.602283    Uiso  ? Al
   Al28       1.0     0.790656     0.753426     0.347907    Uiso  ? Al
   Al29       1.0     0.884333     0.873919     0.099558    Uiso  ? Al
   Al30       1.0     0.448435     0.751925     0.850377    Uiso  ? Al
   Mg1        1.0     0.779647     0.095444     0.848983    Uiso  ? Mg
   Mg2        1.0     0.889239     0.874668     0.609581    Uiso  ? Mg
   Mg3        1.0     0.106590     0.757135     0.844223    Uiso  ? Mg
   Hf1        1.0     0.442247     0.101550     0.862764    Uiso  ? Hf
   Hf2        1.0     0.217661     0.875537     0.102347    Uiso  ? Hf
   Hf3        1.0     0.561116     0.866088     0.597394    Uiso  ? Hf
   N1         1.0     0.221656     0.208750     0.356165    Uiso  ? N
   N2         1.0     0.100186     0.111427     0.117039    Uiso  ? N
   N3         1.0     0.895529     0.213789     0.854676    Uiso  ? N
   N4         1.0     0.768539     0.109210     0.592573    Uiso  ? N
   N5         1.0     0.549881     0.210121     0.350214    Uiso  ? N
   N6         1.0     0.442099     0.091156     0.113395    Uiso  ? N
   N7         1.0     0.206255     0.216681     0.862210    Uiso  ? N
   N8         1.0     0.114033     0.095814     0.602035    Uiso  ? N
   N9         1.0     0.889666     0.209458     0.363686    Uiso  ? N
   N10        1.0     0.780247     0.098713     0.118836    Uiso  ? N
   N11        1.0     0.549575     0.223349     0.871872    Uiso  ? N
   N12        1.0     0.439122     0.109535     0.603025    Uiso  ? N
   N13        1.0     0.222015     0.536359     0.360076    Uiso  ? N
   N14        1.0     0.110038     0.429254     0.111462    Uiso  ? N
   N15        1.0     0.889427     0.536354     0.861719    Uiso  ? N
   N16        1.0     0.776931     0.429634     0.608138    Uiso  ? N
   N17        1.0     0.557471     0.535819     0.359022    Uiso  ? N
   N18        1.0     0.442140     0.433889     0.113490    Uiso  ? N
   N19        1.0     0.228357     0.524077     0.856915    Uiso  ? N
   N20        1.0     0.110596     0.426959     0.606508    Uiso  ? N
   N21        1.0     0.891589     0.533317     0.354154    Uiso  ? N
   N22        1.0     0.776932     0.426996     0.109570    Uiso  ? N
   N23        1.0     0.556528     0.537140     0.858246    Uiso  ? N
   N24        1.0     0.444989     0.427484     0.606308    Uiso  ? N
   N25        1.0     0.224541     0.874777     0.359805    Uiso  ? N
   N26        1.0     0.107761     0.751837     0.112979    Uiso  ? N
   N27        1.0     0.876934     0.868215     0.868332    Uiso  ? N
   N28        1.0     0.789834     0.741018     0.597152    Uiso  ? N
   N29        1.0     0.553387     0.872581     0.347784    Uiso  ? N
   N30        1.0     0.458432     0.749706     0.108966    Uiso  ? N
   N31        1.0     0.230138     0.883009     0.849248    Uiso  ? N
   N32        1.0     0.124696     0.753648     0.595172    Uiso  ? N
   N33        1.0     0.888157     0.871522     0.344224    Uiso  ? N
   N34        1.0     0.777614     0.753794     0.111350    Uiso  ? N
   N35        1.0     0.563159     0.856714     0.857700    Uiso  ? N
   N36        1.0     0.442595     0.748133     0.603763    Uiso  ? N
