
#======================================================================
# CRYSTAL DATA
#----------------------------------------------------------------------
data_VESTA_phase_1

_chemical_name_common                  'Al   Mg   Hf   N                      '
_cell_length_a                         9.842154
_cell_length_b                         9.895636
_cell_length_c                         9.332360
_cell_angle_alpha                      89.923126
_cell_angle_beta                       90.035263
_cell_angle_gamma                      60.064190
_cell_volume                           787.654280
_space_group_name_H-M_alt              'P 1'
_space_group_IT_number                 1

loop_
_space_group_symop_operation_xyz
   'x, y, z'

loop_
   _atom_site_label
   _atom_site_occupancy
   _atom_site_fract_x
   _atom_site_fract_y
   _atom_site_fract_z
   _atom_site_adp_type
   _atom_site_U_iso_or_equiv
   _atom_site_type_symbol
   Al1        1.0     0.105173     0.103924     0.342086    Uiso  ? Al
   Al2        1.0     0.206755     0.217296     0.088630    Uiso  ? Al
   Al3        1.0     0.883123     0.210243     0.583305    Uiso  ? Al
   Al4        1.0     0.442723     0.096837     0.321137    Uiso  ? Al
   Al5        1.0     0.563069     0.214859     0.096041    Uiso  ? Al
   Al6        1.0     0.107627     0.100196     0.823536    Uiso  ? Al
   Al7        1.0     0.219557     0.212519     0.575380    Uiso  ? Al
   Al8        1.0     0.782397     0.092033     0.344234    Uiso  ? Al
   Al9        1.0     0.884094     0.211016     0.076166    Uiso  ? Al
   Al10       1.0     0.554366     0.214713     0.570661    Uiso  ? Al
   Al11       1.0     0.111613     0.430719     0.331309    Uiso  ? Al
   Al12       1.0     0.221288     0.535216     0.075777    Uiso  ? Al
   Al13       1.0     0.780669     0.427642     0.830264    Uiso  ? Al
   Al14       1.0     0.893208     0.529886     0.576544    Uiso  ? Al
   Al15       1.0     0.439333     0.432938     0.331329    Uiso  ? Al
   Al16       1.0     0.560689     0.532110     0.078763    Uiso  ? Al
   Al17       1.0     0.105656     0.431799     0.829322    Uiso  ? Al
   Al18       1.0     0.224456     0.536902     0.584682    Uiso  ? Al
   Al19       1.0     0.778663     0.425504     0.329692    Uiso  ? Al
   Al20       1.0     0.889232     0.535972     0.083350    Uiso  ? Al
   Al21       1.0     0.443111     0.430739     0.829481    Uiso  ? Al
   Al22       1.0     0.558791     0.529757     0.581315    Uiso  ? Al
   Al23       1.0     0.106617     0.755841     0.355822    Uiso  ? Al
   Al24       1.0     0.790058     0.747930     0.835543    Uiso  ? Al
   Al25       1.0     0.452001     0.752196     0.334812    Uiso  ? Al
   Al26       1.0     0.565419     0.859426     0.086455    Uiso  ? Al
   Al27       1.0     0.221107     0.870568     0.576895    Uiso  ? Al
   Al28       1.0     0.786125     0.757078     0.329135    Uiso  ? Al
   Al29       1.0     0.883818     0.872352     0.083376    Uiso  ? Al
   Al30       1.0     0.443397     0.752894     0.831416    Uiso  ? Al
   Mg1        1.0     0.778921     0.096946     0.831965    Uiso  ? Mg
   Mg2        1.0     0.889432     0.874597     0.593821    Uiso  ? Mg
   Mg3        1.0     0.109207     0.759656     0.829634    Uiso  ? Mg
   Hf1        1.0     0.442744     0.102805     0.860471    Uiso  ? Hf
   Hf2        1.0     0.218201     0.874374     0.100292    Uiso  ? Hf
   Hf3        1.0     0.558330     0.870903     0.593839    Uiso  ? Hf
   N1         1.0     0.225190     0.207209     0.370546    Uiso  ? N
   N2         1.0     0.097437     0.114330     0.135898    Uiso  ? N
   N3         1.0     0.896814     0.213488     0.872812    Uiso  ? N
   N4         1.0     0.766200     0.111233     0.604764    Uiso  ? N
   N5         1.0     0.549352     0.208462     0.361590    Uiso  ? N
   N6         1.0     0.442925     0.089581     0.112200    Uiso  ? N
   N7         1.0     0.201836     0.218215     0.881885    Uiso  ? N
   N8         1.0     0.115631     0.094070     0.615631    Uiso  ? N
   N9         1.0     0.888554     0.210729     0.379048    Uiso  ? N
   N10        1.0     0.782670     0.096070     0.131226    Uiso  ? N
   N11        1.0     0.551581     0.226509     0.892226    Uiso  ? N
   N12        1.0     0.436770     0.114646     0.628212    Uiso  ? N
   N13        1.0     0.223712     0.533333     0.378429    Uiso  ? N
   N14        1.0     0.109499     0.430506     0.128554    Uiso  ? N
   N15        1.0     0.890386     0.534394     0.879799    Uiso  ? N
   N16        1.0     0.777786     0.429002     0.625443    Uiso  ? N
   N17        1.0     0.557758     0.535712     0.377463    Uiso  ? N
   N18        1.0     0.440916     0.435842     0.129233    Uiso  ? N
   N19        1.0     0.228358     0.523681     0.872343    Uiso  ? N
   N20        1.0     0.110509     0.425695     0.623522    Uiso  ? N
   N21        1.0     0.889786     0.536153     0.372067    Uiso  ? N
   N22        1.0     0.776525     0.427318     0.125527    Uiso  ? N
   N23        1.0     0.555892     0.537937     0.873946    Uiso  ? N
   N24        1.0     0.445442     0.426506     0.623427    Uiso  ? N
   N25        1.0     0.225847     0.874287     0.362295    Uiso  ? N
   N26        1.0     0.104953     0.749341     0.129129    Uiso  ? N
   N27        1.0     0.877888     0.867763     0.878698    Uiso  ? N
   N28        1.0     0.789856     0.738288     0.628337    Uiso  ? N
   N29        1.0     0.555459     0.874026     0.366631    Uiso  ? N
   N30        1.0     0.462695     0.747505     0.128664    Uiso  ? N
   N31        1.0     0.229257     0.884371     0.874353    Uiso  ? N
   N32        1.0     0.126128     0.753738     0.601258    Uiso  ? N
   N33        1.0     0.885899     0.871451     0.363632    Uiso  ? N
   N34        1.0     0.778500     0.754958     0.125488    Uiso  ? N
   N35        1.0     0.563751     0.853602     0.866392    Uiso  ? N
   N36        1.0     0.439594     0.749460     0.622272    Uiso  ? N
