
#======================================================================
# CRYSTAL DATA
#----------------------------------------------------------------------
data_VESTA_phase_1

_chemical_name_common                  'Al   Mg   Hf   N                      '
_cell_length_a                         9.564970
_cell_length_b                         9.621875
_cell_length_c                         10.114109
_cell_angle_alpha                      90.096245
_cell_angle_beta                       90.140282
_cell_angle_gamma                      60.014729
_cell_volume                           806.240579
_space_group_name_H-M_alt              'P 1'
_space_group_IT_number                 1

loop_
_space_group_symop_operation_xyz
   'x, y, z'

loop_
   _atom_site_label
   _atom_site_occupancy
   _atom_site_fract_x
   _atom_site_fract_y
   _atom_site_fract_z
   _atom_site_adp_type
   _atom_site_U_iso_or_equiv
   _atom_site_type_symbol
   Al1        1.0     0.109111     0.097242     0.399151    Uiso  ? Al
   Al2        1.0     0.215665     0.214502     0.149629    Uiso  ? Al
   Al3        1.0     0.886731     0.208289     0.643403    Uiso  ? Al
   Al4        1.0     0.440982     0.102191     0.391905    Uiso  ? Al
   Al5        1.0     0.559047     0.208898     0.151799    Uiso  ? Al
   Al6        1.0     0.104139     0.104527     0.887621    Uiso  ? Al
   Al7        1.0     0.214960     0.213178     0.641268    Uiso  ? Al
   Al8        1.0     0.778121     0.096475     0.393845    Uiso  ? Al
   Al9        1.0     0.882223     0.212095     0.147218    Uiso  ? Al
   Al10       1.0     0.558303     0.216431     0.639985    Uiso  ? Al
   Al11       1.0     0.109770     0.429190     0.395651    Uiso  ? Al
   Al12       1.0     0.220799     0.535208     0.146713    Uiso  ? Al
   Al13       1.0     0.779729     0.425987     0.892613    Uiso  ? Al
   Al14       1.0     0.894317     0.532021     0.646046    Uiso  ? Al
   Al15       1.0     0.442809     0.429245     0.395541    Uiso  ? Al
   Al16       1.0     0.561465     0.531335     0.144511    Uiso  ? Al
   Al17       1.0     0.108631     0.433127     0.893132    Uiso  ? Al
   Al18       1.0     0.224383     0.537652     0.645136    Uiso  ? Al
   Al19       1.0     0.779240     0.427385     0.395823    Uiso  ? Al
   Al20       1.0     0.889355     0.535615     0.143602    Uiso  ? Al
   Al21       1.0     0.440364     0.433034     0.893342    Uiso  ? Al
   Al22       1.0     0.557203     0.531167     0.644210    Uiso  ? Al
   Al23       1.0     0.110602     0.758155     0.399924    Uiso  ? Al
   Al24       1.0     0.786079     0.752798     0.900194    Uiso  ? Al
   Al25       1.0     0.443327     0.754237     0.394126    Uiso  ? Al
   Al26       1.0     0.561914     0.867005     0.154532    Uiso  ? Al
   Al27       1.0     0.219405     0.870942     0.649060    Uiso  ? Al
   Al28       1.0     0.787863     0.752738     0.388825    Uiso  ? Al
   Al29       1.0     0.883171     0.873742     0.146066    Uiso  ? Al
   Al30       1.0     0.448605     0.751742     0.892882    Uiso  ? Al
   Mg1        1.0     0.783048     0.095906     0.895037    Uiso  ? Mg
   Mg2        1.0     0.890878     0.874557     0.644755    Uiso  ? Mg
   Mg3        1.0     0.102206     0.759440     0.885907    Uiso  ? Mg
   Hf1        1.0     0.449768     0.094211     0.893170    Uiso  ? Hf
   Hf2        1.0     0.218203     0.874566     0.133609    Uiso  ? Hf
   Hf3        1.0     0.562613     0.866000     0.630324    Uiso  ? Hf
   N1         1.0     0.219714     0.207001     0.338229    Uiso  ? N
   N2         1.0     0.100072     0.116140     0.080901    Uiso  ? N
   N3         1.0     0.893846     0.216208     0.829002    Uiso  ? N
   N4         1.0     0.771210     0.110912     0.579594    Uiso  ? N
   N5         1.0     0.552508     0.209318     0.338914    Uiso  ? N
   N6         1.0     0.444437     0.093041     0.101431    Uiso  ? N
   N7         1.0     0.211788     0.214730     0.831281    Uiso  ? N
   N8         1.0     0.114115     0.092597     0.587395    Uiso  ? N
   N9         1.0     0.891113     0.207610     0.337155    Uiso  ? N
   N10        1.0     0.777496     0.096229     0.103249    Uiso  ? N
   N11        1.0     0.548699     0.223476     0.827640    Uiso  ? N
   N12        1.0     0.437163     0.111928     0.585578    Uiso  ? N
   N13        1.0     0.221871     0.537152     0.337036    Uiso  ? N
   N14        1.0     0.111307     0.427277     0.085251    Uiso  ? N
   N15        1.0     0.888752     0.536949     0.837584    Uiso  ? N
   N16        1.0     0.777824     0.429227     0.585142    Uiso  ? N
   N17        1.0     0.556410     0.537087     0.334245    Uiso  ? N
   N18        1.0     0.443603     0.427925     0.086886    Uiso  ? N
   N19        1.0     0.228603     0.524429     0.831890    Uiso  ? N
   N20        1.0     0.111192     0.427607     0.584144    Uiso  ? N
   N21        1.0     0.891244     0.533906     0.331976    Uiso  ? N
   N22        1.0     0.777300     0.427434     0.084589    Uiso  ? N
   N23        1.0     0.555934     0.537162     0.835016    Uiso  ? N
   N24        1.0     0.443337     0.430774     0.582624    Uiso  ? N
   N25        1.0     0.221140     0.874267     0.340884    Uiso  ? N
   N26        1.0     0.102623     0.751455     0.095436    Uiso  ? N
   N27        1.0     0.869443     0.870759     0.841964    Uiso  ? N
   N28        1.0     0.793778     0.737806     0.572703    Uiso  ? N
   N29        1.0     0.553795     0.872251     0.347450    Uiso  ? N
   N30        1.0     0.462617     0.750470     0.085251    Uiso  ? N
   N31        1.0     0.229954     0.882028     0.842945    Uiso  ? N
   N32        1.0     0.127127     0.752630     0.586094    Uiso  ? N
   N33        1.0     0.889045     0.872174     0.338969    Uiso  ? N
   N34        1.0     0.775966     0.757976     0.093831    Uiso  ? N
   N35        1.0     0.564680     0.851680     0.837008    Uiso  ? N
   N36        1.0     0.438502     0.749250     0.582456    Uiso  ? N
