
#======================================================================
# CRYSTAL DATA
#----------------------------------------------------------------------
data_VESTA_phase_1

_chemical_name_common                  'Al   Mg   Hf   N                      '
_cell_length_a                         9.696027
_cell_length_b                         9.746015
_cell_length_c                         9.759776
_cell_angle_alpha                      89.952232
_cell_angle_beta                       90.046791
_cell_angle_gamma                      60.063137
_cell_volume                           799.220680
_space_group_name_H-M_alt              'P 1'
_space_group_IT_number                 1

loop_
_space_group_symop_operation_xyz
   'x, y, z'

loop_
   _atom_site_label
   _atom_site_occupancy
   _atom_site_fract_x
   _atom_site_fract_y
   _atom_site_fract_z
   _atom_site_adp_type
   _atom_site_U_iso_or_equiv
   _atom_site_type_symbol
   Al1        1.0     0.105864     0.103884     0.334239    Uiso  ? Al
   Al2        1.0     0.207866     0.217576     0.080530    Uiso  ? Al
   Al3        1.0     0.884037     0.208387     0.576791    Uiso  ? Al
   Al4        1.0     0.443100     0.096749     0.316542    Uiso  ? Al
   Al5        1.0     0.562023     0.213924     0.086376    Uiso  ? Al
   Al6        1.0     0.106143     0.099654     0.822104    Uiso  ? Al
   Al7        1.0     0.218236     0.212432     0.573864    Uiso  ? Al
   Al8        1.0     0.780808     0.092066     0.333862    Uiso  ? Al
   Al9        1.0     0.883492     0.211957     0.073803    Uiso  ? Al
   Al10       1.0     0.555521     0.214721     0.569812    Uiso  ? Al
   Al11       1.0     0.111314     0.429426     0.327420    Uiso  ? Al
   Al12       1.0     0.221406     0.534175     0.073663    Uiso  ? Al
   Al13       1.0     0.780726     0.426510     0.826219    Uiso  ? Al
   Al14       1.0     0.893287     0.530807     0.574514    Uiso  ? Al
   Al15       1.0     0.441260     0.430744     0.327082    Uiso  ? Al
   Al16       1.0     0.561109     0.531792     0.074642    Uiso  ? Al
   Al17       1.0     0.105861     0.433262     0.825665    Uiso  ? Al
   Al18       1.0     0.224043     0.538318     0.577334    Uiso  ? Al
   Al19       1.0     0.778459     0.426421     0.326258    Uiso  ? Al
   Al20       1.0     0.889123     0.536196     0.077672    Uiso  ? Al
   Al21       1.0     0.442099     0.432056     0.825938    Uiso  ? Al
   Al22       1.0     0.558157     0.530323     0.577648    Uiso  ? Al
   Al23       1.0     0.105824     0.755902     0.341481    Uiso  ? Al
   Al24       1.0     0.790539     0.748359     0.831120    Uiso  ? Al
   Al25       1.0     0.452638     0.752862     0.328821    Uiso  ? Al
   Al26       1.0     0.566256     0.859104     0.076051    Uiso  ? Al
   Al27       1.0     0.219819     0.870429     0.569747    Uiso  ? Al
   Al28       1.0     0.784500     0.757782     0.323577    Uiso  ? Al
   Al29       1.0     0.883246     0.871544     0.076906    Uiso  ? Al
   Al30       1.0     0.442550     0.753118     0.827010    Uiso  ? Al
   Mg1        1.0     0.780857     0.096330     0.826104    Uiso  ? Mg
   Mg2        1.0     0.890712     0.874474     0.582916    Uiso  ? Mg
   Mg3        1.0     0.109299     0.759890     0.822935    Uiso  ? Mg
   Hf1        1.0     0.443511     0.102302     0.853581    Uiso  ? Hf
   Hf2        1.0     0.219047     0.874102     0.094544    Uiso  ? Hf
   Hf3        1.0     0.557944     0.872132     0.587440    Uiso  ? Hf
   N1         1.0     0.225617     0.206179     0.377603    Uiso  ? N
   N2         1.0     0.098409     0.115127     0.139242    Uiso  ? N
   N3         1.0     0.896538     0.213904     0.881661    Uiso  ? N
   N4         1.0     0.766842     0.111184     0.614732    Uiso  ? N
   N5         1.0     0.550472     0.207219     0.370465    Uiso  ? N
   N6         1.0     0.443503     0.090728     0.114060    Uiso  ? N
   N7         1.0     0.201141     0.218697     0.885241    Uiso  ? N
   N8         1.0     0.114754     0.093382     0.623186    Uiso  ? N
   N9         1.0     0.888357     0.209469     0.381288    Uiso  ? N
   N10        1.0     0.781661     0.095412     0.133909    Uiso  ? N
   N11        1.0     0.552559     0.227210     0.894780    Uiso  ? N
   N12        1.0     0.435918     0.115425     0.635066    Uiso  ? N
   N13        1.0     0.223982     0.533384     0.380880    Uiso  ? N
   N14        1.0     0.109081     0.429795     0.133453    Uiso  ? N
   N15        1.0     0.890184     0.534356     0.883505    Uiso  ? N
   N16        1.0     0.778509     0.427799     0.629775    Uiso  ? N
   N17        1.0     0.557288     0.536405     0.382262    Uiso  ? N
   N18        1.0     0.442153     0.433965     0.133719    Uiso  ? N
   N19        1.0     0.228323     0.524134     0.880893    Uiso  ? N
   N20        1.0     0.111145     0.426614     0.628780    Uiso  ? N
   N21        1.0     0.889297     0.537212     0.378506    Uiso  ? N
   N22        1.0     0.776531     0.428077     0.131099    Uiso  ? N
   N23        1.0     0.555860     0.538244     0.879176    Uiso  ? N
   N24        1.0     0.444256     0.427530     0.628917    Uiso  ? N
   N25        1.0     0.225187     0.873832     0.364821    Uiso  ? N
   N26        1.0     0.103694     0.748972     0.135889    Uiso  ? N
   N27        1.0     0.878529     0.867272     0.885568    Uiso  ? N
   N28        1.0     0.789511     0.739247     0.636205    Uiso  ? N
   N29        1.0     0.555667     0.874117     0.372253    Uiso  ? N
   N30        1.0     0.464002     0.747619     0.133520    Uiso  ? N
   N31        1.0     0.229386     0.884184     0.882273    Uiso  ? N
   N32        1.0     0.126944     0.753263     0.610353    Uiso  ? N
   N33        1.0     0.884905     0.871953     0.368959    Uiso  ? N
   N34        1.0     0.778364     0.755270     0.129854    Uiso  ? N
   N35        1.0     0.564395     0.852165     0.873098    Uiso  ? N
   N36        1.0     0.438685     0.750743     0.628958    Uiso  ? N
