
#======================================================================
# CRYSTAL DATA
#----------------------------------------------------------------------
data_VESTA_phase_1

_chemical_name_common                  'Al   Mg   Hf   N                      '
_cell_length_a                         9.568993
_cell_length_b                         9.612859
_cell_length_c                         10.117899
_cell_angle_alpha                      90.017891
_cell_angle_beta                       90.089760
_cell_angle_gamma                      60.055275
_cell_volume                           806.456192
_space_group_name_H-M_alt              'P 1'
_space_group_IT_number                 1

loop_
_space_group_symop_operation_xyz
   'x, y, z'

loop_
   _atom_site_label
   _atom_site_occupancy
   _atom_site_fract_x
   _atom_site_fract_y
   _atom_site_fract_z
   _atom_site_adp_type
   _atom_site_U_iso_or_equiv
   _atom_site_type_symbol
   Al1        1.0     0.106952     0.101198     0.307700    Uiso  ? Al
   Al2        1.0     0.211955     0.216151     0.055057    Uiso  ? Al
   Al3        1.0     0.884440     0.207085     0.551193    Uiso  ? Al
   Al4        1.0     0.442501     0.098350     0.293688    Uiso  ? Al
   Al5        1.0     0.559773     0.211934     0.058200    Uiso  ? Al
   Al6        1.0     0.104777     0.100791     0.798408    Uiso  ? Al
   Al7        1.0     0.215533     0.213184     0.549507    Uiso  ? Al
   Al8        1.0     0.779728     0.092621     0.304028    Uiso  ? Al
   Al9        1.0     0.883303     0.212633     0.050884    Uiso  ? Al
   Al10       1.0     0.557625     0.214773     0.546704    Uiso  ? Al
   Al11       1.0     0.110647     0.429067     0.303258    Uiso  ? Al
   Al12       1.0     0.222208     0.532642     0.050563    Uiso  ? Al
   Al13       1.0     0.780501     0.425879     0.802426    Uiso  ? Al
   Al14       1.0     0.893057     0.532448     0.552931    Uiso  ? Al
   Al15       1.0     0.442511     0.429319     0.302498    Uiso  ? Al
   Al16       1.0     0.560981     0.531598     0.050739    Uiso  ? Al
   Al17       1.0     0.106517     0.433966     0.802656    Uiso  ? Al
   Al18       1.0     0.223451     0.539885     0.551699    Uiso  ? Al
   Al19       1.0     0.778252     0.427075     0.302814    Uiso  ? Al
   Al20       1.0     0.889268     0.536059     0.052140    Uiso  ? Al
   Al21       1.0     0.441466     0.432736     0.802496    Uiso  ? Al
   Al22       1.0     0.557649     0.531225     0.553630    Uiso  ? Al
   Al23       1.0     0.106838     0.756795     0.309119    Uiso  ? Al
   Al24       1.0     0.788575     0.750595     0.808672    Uiso  ? Al
   Al25       1.0     0.448894     0.753862     0.302199    Uiso  ? Al
   Al26       1.0     0.564776     0.862317     0.053761    Uiso  ? Al
   Al27       1.0     0.218448     0.870424     0.547945    Uiso  ? Al
   Al28       1.0     0.784785     0.756938     0.296626    Uiso  ? Al
   Al29       1.0     0.882625     0.871131     0.052391    Uiso  ? Al
   Al30       1.0     0.444839     0.753477     0.802184    Uiso  ? Al
   Mg1        1.0     0.782914     0.094860     0.801789    Uiso  ? Mg
   Mg2        1.0     0.892487     0.873926     0.552261    Uiso  ? Mg
   Mg3        1.0     0.107620     0.759351     0.797763    Uiso  ? Mg
   Hf1        1.0     0.445129     0.099829     0.819678    Uiso  ? Hf
   Hf2        1.0     0.218834     0.874446     0.060719    Uiso  ? Hf
   Hf3        1.0     0.559226     0.871506     0.553731    Uiso  ? Hf
   N1         1.0     0.224263     0.206009     0.359477    Uiso  ? N
   N2         1.0     0.100688     0.113584     0.118918    Uiso  ? N
   N3         1.0     0.896441     0.214167     0.865477    Uiso  ? N
   N4         1.0     0.768310     0.109716     0.599209    Uiso  ? N
   N5         1.0     0.552135     0.206753     0.354178    Uiso  ? N
   N6         1.0     0.443545     0.092669     0.098870    Uiso  ? N
   N7         1.0     0.203657     0.217357     0.866031    Uiso  ? N
   N8         1.0     0.113018     0.094585     0.605866    Uiso  ? N
   N9         1.0     0.888126     0.208221     0.360595    Uiso  ? N
   N10        1.0     0.780155     0.095654     0.112337    Uiso  ? N
   N11        1.0     0.551926     0.225743     0.873772    Uiso  ? N
   N12        1.0     0.436196     0.113407     0.611042    Uiso  ? N
   N13        1.0     0.223637     0.534700     0.360417    Uiso  ? N
   N14        1.0     0.109023     0.428992     0.114516    Uiso  ? N
   N15        1.0     0.889984     0.534519     0.863694    Uiso  ? N
   N16        1.0     0.778765     0.427322     0.610851    Uiso  ? N
   N17        1.0     0.556474     0.537321     0.363134    Uiso  ? N
   N18        1.0     0.443324     0.431648     0.114358    Uiso  ? N
   N19        1.0     0.228530     0.524507     0.864567    Uiso  ? N
   N20        1.0     0.111790     0.427372     0.610841    Uiso  ? N
   N21        1.0     0.888806     0.538203     0.361500    Uiso  ? N
   N22        1.0     0.776521     0.428827     0.112956    Uiso  ? N
   N23        1.0     0.555974     0.538281     0.860786    Uiso  ? N
   N24        1.0     0.443663     0.428165     0.610667    Uiso  ? N
   N25        1.0     0.223843     0.873214     0.349657    Uiso  ? N
   N26        1.0     0.104393     0.749243     0.115169    Uiso  ? N
   N27        1.0     0.878758     0.867123     0.869546    Uiso  ? N
   N28        1.0     0.787575     0.742373     0.619938    Uiso  ? N
   N29        1.0     0.555974     0.872851     0.347266    Uiso  ? N
   N30        1.0     0.461279     0.748942     0.113772    Uiso  ? N
   N31        1.0     0.229462     0.883748     0.858256    Uiso  ? N
   N32        1.0     0.126708     0.752835     0.596496    Uiso  ? N
   N33        1.0     0.885462     0.872047     0.346698    Uiso  ? N
   N34        1.0     0.778851     0.754700     0.110168    Uiso  ? N
   N35        1.0     0.564050     0.852531     0.860865    Uiso  ? N
   N36        1.0     0.440138     0.752551     0.611079    Uiso  ? N
