
#======================================================================
# CRYSTAL DATA
#----------------------------------------------------------------------
data_VESTA_phase_1

_chemical_name_common                  'Al   Mg   Hf   N                      '
_cell_length_a                         10.014284
_cell_length_b                         10.072318
_cell_length_c                         8.812021
_cell_angle_alpha                      89.912010
_cell_angle_beta                       90.036423
_cell_angle_gamma                      60.071396
_cell_volume                           770.311577
_space_group_name_H-M_alt              'P 1'
_space_group_IT_number                 1

loop_
_space_group_symop_operation_xyz
   'x, y, z'

loop_
   _atom_site_label
   _atom_site_occupancy
   _atom_site_fract_x
   _atom_site_fract_y
   _atom_site_fract_z
   _atom_site_adp_type
   _atom_site_U_iso_or_equiv
   _atom_site_type_symbol
   Al1        1.0     0.105181     0.101634     0.354114    Uiso  ? Al
   Al2        1.0     0.208868     0.215895     0.102823    Uiso  ? Al
   Al3        1.0     0.882297     0.210860     0.594533    Uiso  ? Al
   Al4        1.0     0.441750     0.099431     0.334178    Uiso  ? Al
   Al5        1.0     0.562632     0.214809     0.105772    Uiso  ? Al
   Al6        1.0     0.107974     0.102199     0.828512    Uiso  ? Al
   Al7        1.0     0.218607     0.213172     0.580849    Uiso  ? Al
   Al8        1.0     0.783388     0.092688     0.352718    Uiso  ? Al
   Al9        1.0     0.884567     0.210563     0.083652    Uiso  ? Al
   Al10       1.0     0.555657     0.214529     0.577050    Uiso  ? Al
   Al11       1.0     0.111707     0.431762     0.339873    Uiso  ? Al
   Al12       1.0     0.221782     0.535571     0.083551    Uiso  ? Al
   Al13       1.0     0.780227     0.428704     0.838611    Uiso  ? Al
   Al14       1.0     0.893165     0.529661     0.583894    Uiso  ? Al
   Al15       1.0     0.438344     0.433698     0.340000    Uiso  ? Al
   Al16       1.0     0.560441     0.532130     0.089134    Uiso  ? Al
   Al17       1.0     0.105870     0.431122     0.838302    Uiso  ? Al
   Al18       1.0     0.223817     0.537684     0.596259    Uiso  ? Al
   Al19       1.0     0.779110     0.424333     0.338600    Uiso  ? Al
   Al20       1.0     0.889490     0.535112     0.094723    Uiso  ? Al
   Al21       1.0     0.443178     0.430679     0.837830    Uiso  ? Al
   Al22       1.0     0.559087     0.529798     0.588946    Uiso  ? Al
   Al23       1.0     0.107823     0.756401     0.363694    Uiso  ? Al
   Al24       1.0     0.787580     0.749898     0.851879    Uiso  ? Al
   Al25       1.0     0.447603     0.751813     0.346097    Uiso  ? Al
   Al26       1.0     0.563410     0.862163     0.109742    Uiso  ? Al
   Al27       1.0     0.221363     0.869968     0.595926    Uiso  ? Al
   Al28       1.0     0.789415     0.754601     0.341131    Uiso  ? Al
   Al29       1.0     0.884230     0.873246     0.095969    Uiso  ? Al
   Al30       1.0     0.447002     0.752433     0.842652    Uiso  ? Al
   Mg1        1.0     0.778590     0.096059     0.843966    Uiso  ? Mg
   Mg2        1.0     0.889282     0.874753     0.606771    Uiso  ? Mg
   Mg3        1.0     0.107348     0.758197     0.840588    Uiso  ? Mg
   Hf1        1.0     0.442462     0.101811     0.863618    Uiso  ? Hf
   Hf2        1.0     0.217678     0.875261     0.102312    Uiso  ? Hf
   Hf3        1.0     0.560033     0.867961     0.597076    Uiso  ? Hf
   N1         1.0     0.222978     0.208498     0.359942    Uiso  ? N
   N2         1.0     0.098398     0.112292     0.126317    Uiso  ? N
   N3         1.0     0.896338     0.213441     0.859912    Uiso  ? N
   N4         1.0     0.767205     0.109663     0.595222    Uiso  ? N
   N5         1.0     0.549506     0.209830     0.352430    Uiso  ? N
   N6         1.0     0.442413     0.089993     0.113147    Uiso  ? N
   N7         1.0     0.204588     0.217067     0.872816    Uiso  ? N
   N8         1.0     0.115385     0.095459     0.605305    Uiso  ? N
   N9         1.0     0.888968     0.210348     0.372218    Uiso  ? N
   N10        1.0     0.781682     0.098094     0.123199    Uiso  ? N
   N11        1.0     0.549886     0.224540     0.882010    Uiso  ? N
   N12        1.0     0.438215     0.111715     0.611654    Uiso  ? N
   N13        1.0     0.222433     0.535588     0.370279    Uiso  ? N
   N14        1.0     0.110207     0.430338     0.119391    Uiso  ? N
   N15        1.0     0.890014     0.535313     0.871199    Uiso  ? N
   N16        1.0     0.777026     0.429979     0.616252    Uiso  ? N
   N17        1.0     0.557880     0.535339     0.367208    Uiso  ? N
   N18        1.0     0.440802     0.435579     0.120706    Uiso  ? N
   N19        1.0     0.228424     0.523562     0.861056    Uiso  ? N
   N20        1.0     0.110182     0.425758     0.613946    Uiso  ? N
   N21        1.0     0.890924     0.534072     0.360997    Uiso  ? N
   N22        1.0     0.776789     0.426547     0.116355    Uiso  ? N
   N23        1.0     0.556212     0.537373     0.865106    Uiso  ? N
   N24        1.0     0.445865     0.426489     0.613467    Uiso  ? N
   N25        1.0     0.224988     0.874253     0.360579    Uiso  ? N
   N26        1.0     0.107487     0.750415     0.116746    Uiso  ? N
   N27        1.0     0.877140     0.868305     0.871155    Uiso  ? N
   N28        1.0     0.790070     0.739693     0.609601    Uiso  ? N
   N29        1.0     0.554489     0.872976     0.352410    Uiso  ? N
   N30        1.0     0.459608     0.748878     0.116936    Uiso  ? N
   N31        1.0     0.229525     0.883778     0.856123    Uiso  ? N
   N32        1.0     0.124673     0.754222     0.596731    Uiso  ? N
   N33        1.0     0.888048     0.871338     0.349144    Uiso  ? N
   N34        1.0     0.778094     0.754243     0.116641    Uiso  ? N
   N35        1.0     0.563031     0.855904     0.858538    Uiso  ? N
   N36        1.0     0.441897     0.748317     0.609926    Uiso  ? N
