
#======================================================================
# CRYSTAL DATA
#----------------------------------------------------------------------
data_VESTA_phase_1

_chemical_name_common                  'Al   Mg   Hf   N                      '
_cell_length_a                         9.744784
_cell_length_b                         9.800613
_cell_length_c                         9.612049
_cell_angle_alpha                      90.003624
_cell_angle_beta                       90.018852
_cell_angle_gamma                      60.055012
_cell_volume                           795.449393
_space_group_name_H-M_alt              'P 1'
_space_group_IT_number                 1

loop_
_space_group_symop_operation_xyz
   'x, y, z'

loop_
   _atom_site_label
   _atom_site_occupancy
   _atom_site_fract_x
   _atom_site_fract_y
   _atom_site_fract_z
   _atom_site_adp_type
   _atom_site_U_iso_or_equiv
   _atom_site_type_symbol
   Al1        1.0     0.109580     0.095111     0.383134    Uiso  ? Al
   Al2        1.0     0.216056     0.213634     0.135029    Uiso  ? Al
   Al3        1.0     0.885778     0.208683     0.627665    Uiso  ? Al
   Al4        1.0     0.439372     0.105107     0.377661    Uiso  ? Al
   Al5        1.0     0.558778     0.208814     0.133856    Uiso  ? Al
   Al6        1.0     0.102801     0.108540     0.872843    Uiso  ? Al
   Al7        1.0     0.212506     0.214597     0.624252    Uiso  ? Al
   Al8        1.0     0.779468     0.094238     0.373836    Uiso  ? Al
   Al9        1.0     0.882621     0.212632     0.132503    Uiso  ? Al
   Al10       1.0     0.558745     0.217950     0.625451    Uiso  ? Al
   Al11       1.0     0.109543     0.430400     0.380130    Uiso  ? Al
   Al12       1.0     0.220288     0.536432     0.130408    Uiso  ? Al
   Al13       1.0     0.779440     0.426448     0.877993    Uiso  ? Al
   Al14       1.0     0.893939     0.532571     0.631903    Uiso  ? Al
   Al15       1.0     0.441980     0.429455     0.378278    Uiso  ? Al
   Al16       1.0     0.562437     0.531198     0.130384    Uiso  ? Al
   Al17       1.0     0.108465     0.432607     0.880089    Uiso  ? Al
   Al18       1.0     0.225550     0.535973     0.630861    Uiso  ? Al
   Al19       1.0     0.779749     0.427242     0.381528    Uiso  ? Al
   Al20       1.0     0.889638     0.533634     0.128583    Uiso  ? Al
   Al21       1.0     0.440844     0.433109     0.881721    Uiso  ? Al
   Al22       1.0     0.556507     0.530885     0.629074    Uiso  ? Al
   Al23       1.0     0.109152     0.760334     0.384041    Uiso  ? Al
   Al24       1.0     0.782827     0.752241     0.887320    Uiso  ? Al
   Al25       1.0     0.438567     0.753119     0.376208    Uiso  ? Al
   Al26       1.0     0.560183     0.867994     0.141823    Uiso  ? Al
   Al27       1.0     0.220487     0.870965     0.637035    Uiso  ? Al
   Al28       1.0     0.793882     0.751213     0.368683    Uiso  ? Al
   Al29       1.0     0.884031     0.873862     0.114901    Uiso  ? Al
   Al30       1.0     0.454404     0.750750     0.877594    Uiso  ? Al
   Mg1        1.0     0.781229     0.098661     0.877483    Uiso  ? Mg
   Mg2        1.0     0.887827     0.875472     0.633232    Uiso  ? Mg
   Mg3        1.0     0.105478     0.755246     0.862966    Uiso  ? Mg
   Hf1        1.0     0.447601     0.094156     0.867918    Uiso  ? Hf
   Hf2        1.0     0.218145     0.874082     0.105771    Uiso  ? Hf
   Hf3        1.0     0.562681     0.863206     0.601958    Uiso  ? Hf
   N1         1.0     0.220194     0.207087     0.333070    Uiso  ? N
   N2         1.0     0.099006     0.117851     0.074814    Uiso  ? N
   N3         1.0     0.893540     0.216902     0.822160    Uiso  ? N
   N4         1.0     0.771040     0.110087     0.572072    Uiso  ? N
   N5         1.0     0.551091     0.209178     0.330693    Uiso  ? N
   N6         1.0     0.444228     0.091472     0.088995    Uiso  ? N
   N7         1.0     0.208118     0.217735     0.823304    Uiso  ? N
   N8         1.0     0.114421     0.091161     0.580877    Uiso  ? N
   N9         1.0     0.891669     0.208346     0.330947    Uiso  ? N
   N10        1.0     0.776815     0.099315     0.096591    Uiso  ? N
   N11        1.0     0.548986     0.224860     0.823560    Uiso  ? N
   N12        1.0     0.437392     0.111948     0.585497    Uiso  ? N
   N13        1.0     0.221015     0.538610     0.329616    Uiso  ? N
   N14        1.0     0.111544     0.426745     0.079540    Uiso  ? N
   N15        1.0     0.888905     0.537452     0.831806    Uiso  ? N
   N16        1.0     0.777208     0.430060     0.578759    Uiso  ? N
   N17        1.0     0.557288     0.536194     0.327654    Uiso  ? N
   N18        1.0     0.443884     0.428949     0.081860    Uiso  ? N
   N19        1.0     0.230586     0.521115     0.826353    Uiso  ? N
   N20        1.0     0.110410     0.428604     0.576700    Uiso  ? N
   N21        1.0     0.892413     0.532090     0.324614    Uiso  ? N
   N22        1.0     0.777129     0.427332     0.077418    Uiso  ? N
   N23        1.0     0.555961     0.536950     0.828216    Uiso  ? N
   N24        1.0     0.443232     0.430616     0.574134    Uiso  ? N
   N25        1.0     0.220006     0.874744     0.328029    Uiso  ? N
   N26        1.0     0.105410     0.749801     0.084114    Uiso  ? N
   N27        1.0     0.871225     0.870308     0.848841    Uiso  ? N
   N28        1.0     0.796360     0.737571     0.564648    Uiso  ? N
   N29        1.0     0.551709     0.873801     0.345311    Uiso  ? N
   N30        1.0     0.464793     0.749477     0.079964    Uiso  ? N
   N31        1.0     0.232281     0.882924     0.842789    Uiso  ? N
   N32        1.0     0.125685     0.753816     0.583994    Uiso  ? N
   N33        1.0     0.890916     0.871903     0.325419    Uiso  ? N
   N34        1.0     0.773912     0.756239     0.090418    Uiso  ? N
   N35        1.0     0.567179     0.850464     0.822928    Uiso  ? N
   N36        1.0     0.436199     0.747529     0.575038    Uiso  ? N
