
#======================================================================
# CRYSTAL DATA
#----------------------------------------------------------------------
data_VESTA_phase_1

_chemical_name_common                  'Al   Mg   Hf   N                      '
_cell_length_a                         9.571303
_cell_length_b                         9.615477
_cell_length_c                         10.111443
_cell_angle_alpha                      90.012978
_cell_angle_beta                       90.085999
_cell_angle_gamma                      60.054832
_cell_volume                           806.352200
_space_group_name_H-M_alt              'P 1'
_space_group_IT_number                 1

loop_
_space_group_symop_operation_xyz
   'x, y, z'

loop_
   _atom_site_label
   _atom_site_occupancy
   _atom_site_fract_x
   _atom_site_fract_y
   _atom_site_fract_z
   _atom_site_adp_type
   _atom_site_U_iso_or_equiv
   _atom_site_type_symbol
   Al1        1.0     0.106956     0.101260     0.325954    Uiso  ? Al
   Al2        1.0     0.211877     0.216203     0.073276    Uiso  ? Al
   Al3        1.0     0.884457     0.207087     0.569433    Uiso  ? Al
   Al4        1.0     0.442545     0.098311     0.311866    Uiso  ? Al
   Al5        1.0     0.559849     0.211988     0.076463    Uiso  ? Al
   Al6        1.0     0.104817     0.100760     0.816650    Uiso  ? Al
   Al7        1.0     0.215600     0.213169     0.567774    Uiso  ? Al
   Al8        1.0     0.779765     0.092597     0.322333    Uiso  ? Al
   Al9        1.0     0.883328     0.212625     0.069084    Uiso  ? Al
   Al10       1.0     0.557600     0.214780     0.564951    Uiso  ? Al
   Al11       1.0     0.110690     0.429055     0.321489    Uiso  ? Al
   Al12       1.0     0.222225     0.532651     0.068759    Uiso  ? Al
   Al13       1.0     0.780522     0.425888     0.820631    Uiso  ? Al
   Al14       1.0     0.893071     0.532410     0.571088    Uiso  ? Al
   Al15       1.0     0.442520     0.429328     0.320740    Uiso  ? Al
   Al16       1.0     0.561018     0.531596     0.068949    Uiso  ? Al
   Al17       1.0     0.106509     0.433971     0.820835    Uiso  ? Al
   Al18       1.0     0.223460     0.539890     0.569938    Uiso  ? Al
   Al19       1.0     0.778286     0.427048     0.321016    Uiso  ? Al
   Al20       1.0     0.889288     0.536065     0.070379    Uiso  ? Al
   Al21       1.0     0.441484     0.432750     0.820688    Uiso  ? Al
   Al22       1.0     0.557679     0.531210     0.571849    Uiso  ? Al
   Al23       1.0     0.106823     0.756758     0.327384    Uiso  ? Al
   Al24       1.0     0.788636     0.750544     0.826823    Uiso  ? Al
   Al25       1.0     0.449029     0.753824     0.320482    Uiso  ? Al
   Al26       1.0     0.564863     0.862221     0.071895    Uiso  ? Al
   Al27       1.0     0.218475     0.870407     0.566091    Uiso  ? Al
   Al28       1.0     0.784794     0.756948     0.314919    Uiso  ? Al
   Al29       1.0     0.882644     0.871135     0.070602    Uiso  ? Al
   Al30       1.0     0.444788     0.753479     0.820424    Uiso  ? Al
   Mg1        1.0     0.782908     0.094885     0.820005    Uiso  ? Mg
   Mg2        1.0     0.892492     0.873926     0.570581    Uiso  ? Mg
   Mg3        1.0     0.107670     0.759379     0.816056    Uiso  ? Mg
   Hf1        1.0     0.445112     0.099900     0.838163    Uiso  ? Hf
   Hf2        1.0     0.218900     0.874443     0.079205    Uiso  ? Hf
   Hf3        1.0     0.559182     0.871571     0.572187    Uiso  ? Hf
   N1         1.0     0.224333     0.205989     0.377626    Uiso  ? N
   N2         1.0     0.100659     0.113650     0.137083    Uiso  ? N
   N3         1.0     0.896451     0.214168     0.883575    Uiso  ? N
   N4         1.0     0.768303     0.109734     0.617309    Uiso  ? N
   N5         1.0     0.552124     0.206743     0.372300    Uiso  ? N
   N6         1.0     0.443579     0.092628     0.116871    Uiso  ? N
   N7         1.0     0.203585     0.217414     0.884163    Uiso  ? N
   N8         1.0     0.113077     0.094532     0.623993    Uiso  ? N
   N9         1.0     0.888155     0.208222     0.378757    Uiso  ? N
   N10        1.0     0.780206     0.095641     0.130516    Uiso  ? N
   N11        1.0     0.551981     0.225815     0.891932    Uiso  ? N
   N12        1.0     0.436183     0.113495     0.629378    Uiso  ? N
   N13        1.0     0.223654     0.534687     0.378572    Uiso  ? N
   N14        1.0     0.109048     0.429005     0.132663    Uiso  ? N
   N15        1.0     0.889997     0.534521     0.881838    Uiso  ? N
   N16        1.0     0.778785     0.427309     0.628982    Uiso  ? N
   N17        1.0     0.556521     0.537287     0.381280    Uiso  ? N
   N18        1.0     0.443332     0.431685     0.132511    Uiso  ? N
   N19        1.0     0.228543     0.524486     0.882660    Uiso  ? N
   N20        1.0     0.111783     0.427373     0.628947    Uiso  ? N
   N21        1.0     0.888840     0.538165     0.379596    Uiso  ? N
   N22        1.0     0.776550     0.428806     0.131077    Uiso  ? N
   N23        1.0     0.555981     0.538291     0.878912    Uiso  ? N
   N24        1.0     0.443678     0.428173     0.628784    Uiso  ? N
   N25        1.0     0.223881     0.873204     0.367661    Uiso  ? N
   N26        1.0     0.104393     0.749225     0.133302    Uiso  ? N
   N27        1.0     0.878737     0.867130     0.887627    Uiso  ? N
   N28        1.0     0.787633     0.742298     0.638000    Uiso  ? N
   N29        1.0     0.555986     0.872886     0.365574    Uiso  ? N
   N30        1.0     0.461422     0.748891     0.131944    Uiso  ? N
   N31        1.0     0.229485     0.883769     0.876589    Uiso  ? N
   N32        1.0     0.126739     0.752846     0.614620    Uiso  ? N
   N33        1.0     0.885481     0.872031     0.364896    Uiso  ? N
   N34        1.0     0.778867     0.754706     0.128334    Uiso  ? N
   N35        1.0     0.564089     0.852498     0.878845    Uiso  ? N
   N36        1.0     0.440106     0.752517     0.629199    Uiso  ? N
