
#======================================================================
# CRYSTAL DATA
#----------------------------------------------------------------------
data_VESTA_phase_1

_chemical_name_common                  'Al   Mg   Hf   N                      '
_cell_length_a                         9.974609
_cell_length_b                         10.032683
_cell_length_c                         8.929198
_cell_angle_alpha                      89.958313
_cell_angle_beta                       90.014801
_cell_angle_gamma                      60.073563
_cell_volume                           774.421364
_space_group_name_H-M_alt              'P 1'
_space_group_IT_number                 1

loop_
_space_group_symop_operation_xyz
   'x, y, z'

loop_
   _atom_site_label
   _atom_site_occupancy
   _atom_site_fract_x
   _atom_site_fract_y
   _atom_site_fract_z
   _atom_site_adp_type
   _atom_site_U_iso_or_equiv
   _atom_site_type_symbol
   Al1        1.0     0.107553     0.096952     0.377002    Uiso  ? Al
   Al2        1.0     0.212895     0.214272     0.129242    Uiso  ? Al
   Al3        1.0     0.884122     0.209661     0.620134    Uiso  ? Al
   Al4        1.0     0.441218     0.102190     0.356148    Uiso  ? Al
   Al5        1.0     0.560432     0.210825     0.122460    Uiso  ? Al
   Al6        1.0     0.105067     0.106021     0.856549    Uiso  ? Al
   Al7        1.0     0.214765     0.214462     0.608695    Uiso  ? Al
   Al8        1.0     0.780531     0.093566     0.360358    Uiso  ? Al
   Al9        1.0     0.883818     0.212204     0.119680    Uiso  ? Al
   Al10       1.0     0.557683     0.216804     0.611669    Uiso  ? Al
   Al11       1.0     0.109496     0.432511     0.370911    Uiso  ? Al
   Al12       1.0     0.220017     0.537219     0.115993    Uiso  ? Al
   Al13       1.0     0.778751     0.427269     0.868785    Uiso  ? Al
   Al14       1.0     0.893491     0.532688     0.622566    Uiso  ? Al
   Al15       1.0     0.440304     0.430111     0.366010    Uiso  ? Al
   Al16       1.0     0.562793     0.531538     0.123441    Uiso  ? Al
   Al17       1.0     0.108224     0.431251     0.871617    Uiso  ? Al
   Al18       1.0     0.225841     0.536152     0.624710    Uiso  ? Al
   Al19       1.0     0.780775     0.426361     0.373040    Uiso  ? Al
   Al20       1.0     0.889996     0.532026     0.120223    Uiso  ? Al
   Al21       1.0     0.441931     0.433487     0.875608    Uiso  ? Al
   Al22       1.0     0.556790     0.530446     0.617912    Uiso  ? Al
   Al23       1.0     0.108482     0.758270     0.371468    Uiso  ? Al
   Al24       1.0     0.783679     0.751806     0.881561    Uiso  ? Al
   Al25       1.0     0.441451     0.752823     0.365120    Uiso  ? Al
   Al26       1.0     0.560171     0.865805     0.127747    Uiso  ? Al
   Al27       1.0     0.221466     0.869655     0.619972    Uiso  ? Al
   Al28       1.0     0.793710     0.751073     0.354433    Uiso  ? Al
   Al29       1.0     0.884620     0.874474     0.100690    Uiso  ? Al
   Al30       1.0     0.452273     0.750874     0.866912    Uiso  ? Al
   Mg1        1.0     0.780879     0.096752     0.861261    Uiso  ? Mg
   Mg2        1.0     0.888098     0.874610     0.617073    Uiso  ? Mg
   Mg3        1.0     0.106184     0.756537     0.850256    Uiso  ? Mg
   Hf1        1.0     0.443357     0.098353     0.861324    Uiso  ? Hf
   Hf2        1.0     0.217483     0.875381     0.101071    Uiso  ? Hf
   Hf3        1.0     0.562768     0.863692     0.596390    Uiso  ? Hf
   N1         1.0     0.219623     0.207812     0.346991    Uiso  ? N
   N2         1.0     0.101032     0.114743     0.085390    Uiso  ? N
   N3         1.0     0.893254     0.216035     0.835399    Uiso  ? N
   N4         1.0     0.770822     0.109711     0.582300    Uiso  ? N
   N5         1.0     0.550698     0.209555     0.339959    Uiso  ? N
   N6         1.0     0.441912     0.092914     0.104161    Uiso  ? N
   N7         1.0     0.207535     0.218248     0.831814    Uiso  ? N
   N8         1.0     0.112778     0.093041     0.593179    Uiso  ? N
   N9         1.0     0.891957     0.208961     0.340110    Uiso  ? N
   N10        1.0     0.777751     0.099292     0.109243    Uiso  ? N
   N11        1.0     0.548650     0.224274     0.840856    Uiso  ? N
   N12        1.0     0.439748     0.108738     0.594999    Uiso  ? N
   N13        1.0     0.220920     0.537986     0.335403    Uiso  ? N
   N14        1.0     0.110829     0.426249     0.089728    Uiso  ? N
   N15        1.0     0.888814     0.537978     0.842100    Uiso  ? N
   N16        1.0     0.777548     0.429682     0.589033    Uiso  ? N
   N17        1.0     0.558274     0.535679     0.339212    Uiso  ? N
   N18        1.0     0.444695     0.430582     0.094276    Uiso  ? N
   N19        1.0     0.229937     0.522636     0.841835    Uiso  ? N
   N20        1.0     0.110480     0.430145     0.586688    Uiso  ? N
   N21        1.0     0.893014     0.531136     0.334265    Uiso  ? N
   N22        1.0     0.776568     0.427917     0.086851    Uiso  ? N
   N23        1.0     0.555945     0.537014     0.836982    Uiso  ? N
   N24        1.0     0.442502     0.430244     0.582669    Uiso  ? N
   N25        1.0     0.220971     0.875749     0.344464    Uiso  ? N
   N26        1.0     0.106466     0.752683     0.097606    Uiso  ? N
   N27        1.0     0.874247     0.868621     0.864188    Uiso  ? N
   N28        1.0     0.792818     0.739228     0.574552    Uiso  ? N
   N29        1.0     0.550572     0.873796     0.345815    Uiso  ? N
   N30        1.0     0.460981     0.749289     0.092516    Uiso  ? N
   N31        1.0     0.232679     0.881842     0.845269    Uiso  ? N
   N32        1.0     0.125693     0.752143     0.591722    Uiso  ? N
   N33        1.0     0.890267     0.871713     0.334875    Uiso  ? N
   N34        1.0     0.775604     0.754389     0.104106    Uiso  ? N
   N35        1.0     0.565747     0.853937     0.841386    Uiso  ? N
   N36        1.0     0.439883     0.747717     0.585933    Uiso  ? N
