
#======================================================================
# CRYSTAL DATA
#----------------------------------------------------------------------
data_VESTA_phase_1

_chemical_name_common                  'Al   Mg   Hf   N                      '
_cell_length_a                         9.644793
_cell_length_b                         9.693262
_cell_length_c                         9.905032
_cell_angle_alpha                      89.968300
_cell_angle_beta                       90.055664
_cell_angle_gamma                      60.062298
_cell_volume                           802.455836
_space_group_name_H-M_alt              'P 1'
_space_group_IT_number                 1

loop_
_space_group_symop_operation_xyz
   'x, y, z'

loop_
   _atom_site_label
   _atom_site_occupancy
   _atom_site_fract_x
   _atom_site_fract_y
   _atom_site_fract_z
   _atom_site_adp_type
   _atom_site_U_iso_or_equiv
   _atom_site_type_symbol
   Al1        1.0     0.106238     0.103147     0.332215    Uiso  ? Al
   Al2        1.0     0.209061     0.217300     0.078708    Uiso  ? Al
   Al3        1.0     0.884264     0.207736     0.575181    Uiso  ? Al
   Al4        1.0     0.443003     0.097208     0.315875    Uiso  ? Al
   Al5        1.0     0.561298     0.213341     0.083558    Uiso  ? Al
   Al6        1.0     0.105583     0.099878     0.821594    Uiso  ? Al
   Al7        1.0     0.217340     0.212628     0.573227    Uiso  ? Al
   Al8        1.0     0.780338     0.092212     0.330502    Uiso  ? Al
   Al9        1.0     0.883378     0.212271     0.073297    Uiso  ? Al
   Al10       1.0     0.556243     0.214755     0.569631    Uiso  ? Al
   Al11       1.0     0.111141     0.429144     0.326467    Uiso  ? Al
   Al12       1.0     0.221709     0.533527     0.073104    Uiso  ? Al
   Al13       1.0     0.780650     0.426229     0.825293    Uiso  ? Al
   Al14       1.0     0.893232     0.531314     0.574353    Uiso  ? Al
   Al15       1.0     0.441843     0.430071     0.325999    Uiso  ? Al
   Al16       1.0     0.561165     0.531679     0.073706    Uiso  ? Al
   Al17       1.0     0.106006     0.433682     0.824948    Uiso  ? Al
   Al18       1.0     0.223722     0.539095     0.575618    Uiso  ? Al
   Al19       1.0     0.778421     0.426629     0.325495    Uiso  ? Al
   Al20       1.0     0.889155     0.536204     0.076117    Uiso  ? Al
   Al21       1.0     0.441781     0.432477     0.825116    Uiso  ? Al
   Al22       1.0     0.557974     0.530620     0.576705    Uiso  ? Al
   Al23       1.0     0.105963     0.756098     0.336549    Uiso  ? Al
   Al24       1.0     0.790060     0.749015     0.830473    Uiso  ? Al
   Al25       1.0     0.451757     0.753140     0.327038    Uiso  ? Al
   Al26       1.0     0.566059     0.859896     0.074996    Uiso  ? Al
   Al27       1.0     0.219212     0.870314     0.569125    Uiso  ? Al
   Al28       1.0     0.784426     0.757582     0.321763    Uiso  ? Al
   Al29       1.0     0.882942     0.871340     0.075586    Uiso  ? Al
   Al30       1.0     0.443043     0.753254     0.825842    Uiso  ? Al
   Mg1        1.0     0.781697     0.095800     0.824978    Uiso  ? Mg
   Mg2        1.0     0.891460     0.874291     0.579387    Uiso  ? Mg
   Mg3        1.0     0.108840     0.759803     0.821734    Uiso  ? Mg
   Hf1        1.0     0.444022     0.101630     0.849817    Uiso  ? Hf
   Hf2        1.0     0.219236     0.874204     0.090893    Uiso  ? Hf
   Hf3        1.0     0.558149     0.872260     0.583643    Uiso  ? Hf
   N1         1.0     0.225352     0.205966     0.379470    Uiso  ? N
   N2         1.0     0.099100     0.114947     0.140057    Uiso  ? N
   N3         1.0     0.896431     0.214049     0.884153    Uiso  ? N
   N4         1.0     0.767347     0.110706     0.617668    Uiso  ? N
   N5         1.0     0.551075     0.206912     0.373075    Uiso  ? N
   N6         1.0     0.443601     0.091395     0.115936    Uiso  ? N
   N7         1.0     0.201570     0.218512     0.886314    Uiso  ? N
   N8         1.0     0.114223     0.093526     0.625277    Uiso  ? N
   N9         1.0     0.888273     0.208915     0.381880    Uiso  ? N
   N10        1.0     0.781108     0.095428     0.134198    Uiso  ? N
   N11        1.0     0.552582     0.227031     0.895220    Uiso  ? N
   N12        1.0     0.435824     0.115101     0.635557    Uiso  ? N
   N13        1.0     0.223837     0.533908     0.381521    Uiso  ? N
   N14        1.0     0.109037     0.429500     0.134824    Uiso  ? N
   N15        1.0     0.890077     0.534432     0.884452    Uiso  ? N
   N16        1.0     0.778684     0.427480     0.631028    Uiso  ? N
   N17        1.0     0.557073     0.536665     0.383532    Uiso  ? N
   N18        1.0     0.442632     0.433098     0.134940    Uiso  ? N
   N19        1.0     0.228394     0.524209     0.883309    Uiso  ? N
   N20        1.0     0.111354     0.426980     0.630370    Uiso  ? N
   N21        1.0     0.889152     0.537509     0.380493    Uiso  ? N
   N22        1.0     0.776565     0.428334     0.132712    Uiso  ? N
   N23        1.0     0.555860     0.538318     0.880705    Uiso  ? N
   N24        1.0     0.443908     0.427896     0.630453    Uiso  ? N
   N25        1.0     0.224672     0.873503     0.366761    Uiso  ? N
   N26        1.0     0.103752     0.748954     0.136561    Uiso  ? N
   N27        1.0     0.878550     0.867184     0.887967    Uiso  ? N
   N28        1.0     0.789026     0.740160     0.638433    Uiso  ? N
   N29        1.0     0.555765     0.873819     0.372110    Uiso  ? N
   N30        1.0     0.463648     0.747918     0.134696    Uiso  ? N
   N31        1.0     0.229472     0.884093     0.882813    Uiso  ? N
   N32        1.0     0.126988     0.753120     0.614089    Uiso  ? N
   N33        1.0     0.885073     0.872004     0.369253    Uiso  ? N
   N34        1.0     0.778494     0.755131     0.131011    Uiso  ? N
   N35        1.0     0.564470     0.851972     0.876356    Uiso  ? N
   N36        1.0     0.438940     0.751347     0.630745    Uiso  ? N
