
#======================================================================
# CRYSTAL DATA
#----------------------------------------------------------------------
data_VESTA_phase_1

_chemical_name_common                  'Al   Mg   Hf   N                      '
_cell_length_a                         9.746304
_cell_length_b                         9.797530
_cell_length_c                         9.614912
_cell_angle_alpha                      89.940010
_cell_angle_beta                       90.041176
_cell_angle_gamma                      60.063602
_cell_volume                           795.627508
_space_group_name_H-M_alt              'P 1'
_space_group_IT_number                 1

loop_
_space_group_symop_operation_xyz
   'x, y, z'

loop_
   _atom_site_label
   _atom_site_occupancy
   _atom_site_fract_x
   _atom_site_fract_y
   _atom_site_fract_z
   _atom_site_adp_type
   _atom_site_U_iso_or_equiv
   _atom_site_type_symbol
   Al1        1.0     0.105573     0.104214     0.336571    Uiso  ? Al
   Al2        1.0     0.207137     0.217621     0.082836    Uiso  ? Al
   Al3        1.0     0.883762     0.209069     0.578677    Uiso  ? Al
   Al4        1.0     0.443069     0.096522     0.317617    Uiso  ? Al
   Al5        1.0     0.562554     0.214340     0.089515    Uiso  ? Al
   Al6        1.0     0.106688     0.099667     0.822546    Uiso  ? Al
   Al7        1.0     0.218892     0.212365     0.574355    Uiso  ? Al
   Al8        1.0     0.781334     0.091982     0.337402    Uiso  ? Al
   Al9        1.0     0.883661     0.211619     0.074440    Uiso  ? Al
   Al10       1.0     0.554948     0.214713     0.569929    Uiso  ? Al
   Al11       1.0     0.111440     0.429813     0.328532    Uiso  ? Al
   Al12       1.0     0.221239     0.534690     0.074266    Uiso  ? Al
   Al13       1.0     0.780754     0.426850     0.827375    Uiso  ? Al
   Al14       1.0     0.893282     0.530424     0.574949    Uiso  ? Al
   Al15       1.0     0.440608     0.431496     0.328311    Uiso  ? Al
   Al16       1.0     0.560991     0.531913     0.075789    Uiso  ? Al
   Al17       1.0     0.105763     0.432770     0.826655    Uiso  ? Al
   Al18       1.0     0.224306     0.537623     0.579446    Uiso  ? Al
   Al19       1.0     0.778508     0.426169     0.327202    Uiso  ? Al
   Al20       1.0     0.889136     0.536146     0.079394    Uiso  ? Al
   Al21       1.0     0.442460     0.431579     0.826957    Uiso  ? Al
   Al22       1.0     0.558361     0.530091     0.578735    Uiso  ? Al
   Al23       1.0     0.105953     0.755818     0.346715    Uiso  ? Al
   Al24       1.0     0.790644     0.747977     0.832189    Uiso  ? Al
   Al25       1.0     0.452905     0.752631     0.330658    Uiso  ? Al
   Al26       1.0     0.566160     0.858818     0.078270    Uiso  ? Al
   Al27       1.0     0.220380     0.870545     0.571258    Uiso  ? Al
   Al28       1.0     0.784829     0.757757     0.325330    Uiso  ? Al
   Al29       1.0     0.883508     0.871802     0.078623    Uiso  ? Al
   Al30       1.0     0.442503     0.753021     0.828292    Uiso  ? Al
   Mg1        1.0     0.780078     0.096712     0.827597    Uiso  ? Mg
   Mg2        1.0     0.890099     0.874561     0.586512    Uiso  ? Mg
   Mg3        1.0     0.109491     0.759890     0.824641    Uiso  ? Mg
   Hf1        1.0     0.443142     0.102702     0.856479    Uiso  ? Hf
   Hf2        1.0     0.218762     0.874099     0.097185    Uiso  ? Hf
   Hf3        1.0     0.557945     0.871824     0.590270    Uiso  ? Hf
   N1         1.0     0.225652     0.206476     0.375459    Uiso  ? N
   N2         1.0     0.097921     0.115016     0.138298    Uiso  ? N
   N3         1.0     0.896656     0.213749     0.878925    Uiso  ? N
   N4         1.0     0.766479     0.111420     0.611468    Uiso  ? N
   N5         1.0     0.549971     0.207606     0.367582    Uiso  ? N
   N6         1.0     0.443344     0.090186     0.112950    Uiso  ? N
   N7         1.0     0.201133     0.218654     0.884194    Uiso  ? N
   N8         1.0     0.115148     0.093481     0.620860    Uiso  ? N
   N9         1.0     0.888440     0.209987     0.380636    Uiso  ? N
   N10        1.0     0.782134     0.095505     0.133368    Uiso  ? N
   N11        1.0     0.552341     0.227121     0.894213    Uiso  ? N
   N12        1.0     0.436143     0.115387     0.633521    Uiso  ? N
   N13        1.0     0.224025     0.533080     0.380188    Uiso  ? N
   N14        1.0     0.109185     0.430064     0.131941    Uiso  ? N
   N15        1.0     0.890279     0.534317     0.882424    Uiso  ? N
   N16        1.0     0.778286     0.428184     0.628450    Uiso  ? N
   N17        1.0     0.557461     0.536174     0.380837    Uiso  ? N
   N18        1.0     0.441691     0.434733     0.132347    Uiso  ? N
   N19        1.0     0.228299     0.524019     0.878220    Uiso  ? N
   N20        1.0     0.110928     0.426259     0.627133    Uiso  ? N
   N21        1.0     0.889438     0.536907     0.376452    Uiso  ? N
   N22        1.0     0.776508     0.427825     0.129356    Uiso  ? N
   N23        1.0     0.555869     0.538151     0.877532    Uiso  ? N
   N24        1.0     0.444665     0.427145     0.627251    Uiso  ? N
   N25        1.0     0.225583     0.874098     0.363577    Uiso  ? N
   N26        1.0     0.103914     0.749064     0.134430    Uiso  ? N
   N27        1.0     0.878397     0.867417     0.883186    Uiso  ? N
   N28        1.0     0.789734     0.738669     0.633851    Uiso  ? N
   N29        1.0     0.555600     0.874217     0.371295    Uiso  ? N
   N30        1.0     0.463851     0.747472     0.132119    Uiso  ? N
   N31        1.0     0.229312     0.884262     0.880522    Uiso  ? N
   N32        1.0     0.126764     0.753410     0.606722    Uiso  ? N
   N33        1.0     0.884991     0.871817     0.367965    Uiso  ? N
   N34        1.0     0.778343     0.755275     0.128520    Uiso  ? N
   N35        1.0     0.564210     0.852562     0.870531    Uiso  ? N
   N36        1.0     0.438766     0.750256     0.626969    Uiso  ? N
