
#======================================================================
# CRYSTAL DATA
#----------------------------------------------------------------------
data_VESTA_phase_1

_chemical_name_common                  'Al   Mg   Hf   N                      '
_cell_length_a                         9.567930
_cell_length_b                         9.625197
_cell_length_c                         10.105431
_cell_angle_alpha                      90.088135
_cell_angle_beta                       90.128601
_cell_angle_gamma                      60.016560
_cell_volume                           806.091610
_space_group_name_H-M_alt              'P 1'
_space_group_IT_number                 1

loop_
_space_group_symop_operation_xyz
   'x, y, z'

loop_
   _atom_site_label
   _atom_site_occupancy
   _atom_site_fract_x
   _atom_site_fract_y
   _atom_site_fract_z
   _atom_site_adp_type
   _atom_site_U_iso_or_equiv
   _atom_site_type_symbol
   Al1        1.0     0.109142     0.097169     0.391365    Uiso  ? Al
   Al2        1.0     0.215719     0.214479     0.141892    Uiso  ? Al
   Al3        1.0     0.886709     0.208298     0.635674    Uiso  ? Al
   Al4        1.0     0.440901     0.102335     0.384293    Uiso  ? Al
   Al5        1.0     0.559032     0.208889     0.143987    Uiso  ? Al
   Al6        1.0     0.104087     0.104663     0.879986    Uiso  ? Al
   Al7        1.0     0.214870     0.213214     0.633573    Uiso  ? Al
   Al8        1.0     0.778102     0.096478     0.386072    Uiso  ? Al
   Al9        1.0     0.882222     0.212123     0.139557    Uiso  ? Al
   Al10       1.0     0.558289     0.216497     0.632334    Uiso  ? Al
   Al11       1.0     0.109747     0.429204     0.387941    Uiso  ? Al
   Al12       1.0     0.220771     0.535236     0.139021    Uiso  ? Al
   Al13       1.0     0.779735     0.425981     0.884929    Uiso  ? Al
   Al14       1.0     0.894304     0.532016     0.638395    Uiso  ? Al
   Al15       1.0     0.442779     0.429249     0.387797    Uiso  ? Al
   Al16       1.0     0.561493     0.531331     0.136810    Uiso  ? Al
   Al17       1.0     0.108661     0.433099     0.885488    Uiso  ? Al
   Al18       1.0     0.224361     0.537641     0.637419    Uiso  ? Al
   Al19       1.0     0.779226     0.427406     0.388140    Uiso  ? Al
   Al20       1.0     0.889351     0.535604     0.135876    Uiso  ? Al
   Al21       1.0     0.440339     0.433043     0.885718    Uiso  ? Al
   Al22       1.0     0.557155     0.531145     0.636513    Uiso  ? Al
   Al23       1.0     0.110563     0.758239     0.392183    Uiso  ? Al
   Al24       1.0     0.786011     0.752790     0.892435    Uiso  ? Al
   Al25       1.0     0.443119     0.754204     0.386320    Uiso  ? Al
   Al26       1.0     0.561895     0.867036     0.146947    Uiso  ? Al
   Al27       1.0     0.219365     0.870938     0.641514    Uiso  ? Al
   Al28       1.0     0.788021     0.752674     0.381080    Uiso  ? Al
   Al29       1.0     0.883163     0.873758     0.138174    Uiso  ? Al
   Al30       1.0     0.448819     0.751672     0.885134    Uiso  ? Al
   Mg1        1.0     0.783029     0.095969     0.887322    Uiso  ? Mg
   Mg2        1.0     0.890759     0.874620     0.637109    Uiso  ? Mg
   Mg3        1.0     0.102192     0.759325     0.878095    Uiso  ? Mg
   Hf1        1.0     0.449838     0.094049     0.885152    Uiso  ? Hf
   Hf2        1.0     0.218205     0.874533     0.125438    Uiso  ? Hf
   Hf3        1.0     0.562538     0.865906     0.622104    Uiso  ? Hf
   N1         1.0     0.219737     0.207012     0.330636    Uiso  ? N
   N2         1.0     0.100018     0.116246     0.073350    Uiso  ? N
   N3         1.0     0.893861     0.216229     0.821399    Uiso  ? N
   N4         1.0     0.771167     0.110943     0.571989    Uiso  ? N
   N5         1.0     0.552457     0.209330     0.331263    Uiso  ? N
   N6         1.0     0.444482     0.092956     0.093622    Uiso  ? N
   N7         1.0     0.211744     0.214777     0.823704    Uiso  ? N
   N8         1.0     0.114150     0.092520     0.579790    Uiso  ? N
   N9         1.0     0.891105     0.207650     0.329597    Uiso  ? N
   N10        1.0     0.777509     0.096287     0.095655    Uiso  ? N
   N11        1.0     0.548710     0.223529     0.820131    Uiso  ? N
   N12        1.0     0.437120     0.112018     0.578164    Uiso  ? N
   N13        1.0     0.221830     0.537202     0.329463    Uiso  ? N
   N14        1.0     0.111326     0.427270     0.077690    Uiso  ? N
   N15        1.0     0.888795     0.536925     0.830038    Uiso  ? N
   N16        1.0     0.777789     0.429258     0.577568    Uiso  ? N
   N17        1.0     0.556414     0.537067     0.326638    Uiso  ? N
   N18        1.0     0.443589     0.427970     0.079328    Uiso  ? N
   N19        1.0     0.228635     0.524369     0.824292    Uiso  ? N
   N20        1.0     0.111157     0.427604     0.576545    Uiso  ? N
   N21        1.0     0.891254     0.533888     0.324360    Uiso  ? N
   N22        1.0     0.777310     0.427425     0.076996    Uiso  ? N
   N23        1.0     0.555947     0.537120     0.827432    Uiso  ? N
   N24        1.0     0.443311     0.430768     0.575002    Uiso  ? N
   N25        1.0     0.221082     0.874292     0.332973    Uiso  ? N
   N26        1.0     0.102612     0.751390     0.087746    Uiso  ? N
   N27        1.0     0.869421     0.870813     0.834530    Uiso  ? N
   N28        1.0     0.793902     0.737746     0.565111    Uiso  ? N
   N29        1.0     0.553746     0.872296     0.340118    Uiso  ? N
   N30        1.0     0.462772     0.750435     0.077662    Uiso  ? N
   N31        1.0     0.229993     0.882043     0.835669    Uiso  ? N
   N32        1.0     0.127053     0.752694     0.578573    Uiso  ? N
   N33        1.0     0.889046     0.872200     0.331278    Uiso  ? N
   N34        1.0     0.775899     0.757981     0.086256    Uiso  ? N
   N35        1.0     0.564800     0.851525     0.828983    Uiso  ? N
   N36        1.0     0.438320     0.749156     0.574813    Uiso  ? N
