
#======================================================================
# CRYSTAL DATA
#----------------------------------------------------------------------
data_VESTA_phase_1

_chemical_name_common                  'Al   Mg   Hf   N                      '
_cell_length_a                         10.053851
_cell_length_b                         10.113751
_cell_length_c                         8.691850
_cell_angle_alpha                      89.945618
_cell_angle_beta                       90.020103
_cell_angle_gamma                      60.079140
_cell_volume                           766.007382
_space_group_name_H-M_alt              'P 1'
_space_group_IT_number                 1

loop_
_space_group_symop_operation_xyz
   'x, y, z'

loop_
   _atom_site_label
   _atom_site_occupancy
   _atom_site_fract_x
   _atom_site_fract_y
   _atom_site_fract_z
   _atom_site_adp_type
   _atom_site_U_iso_or_equiv
   _atom_site_type_symbol
   Al1        1.0     0.106850     0.098689     0.370633    Uiso  ? Al
   Al2        1.0     0.212360     0.214592     0.123721    Uiso  ? Al
   Al3        1.0     0.883725     0.209846     0.614038    Uiso  ? Al
   Al4        1.0     0.441596     0.101327     0.349289    Uiso  ? Al
   Al5        1.0     0.561327     0.211718     0.114546    Uiso  ? Al
   Al6        1.0     0.105931     0.104317     0.847833    Uiso  ? Al
   Al7        1.0     0.215466     0.214259     0.602221    Uiso  ? Al
   Al8        1.0     0.781081     0.093340     0.356597    Uiso  ? Al
   Al9        1.0     0.883933     0.211722     0.111207    Uiso  ? Al
   Al10       1.0     0.557475     0.215716     0.599550    Uiso  ? Al
   Al11       1.0     0.109843     0.432410     0.364921    Uiso  ? Al
   Al12       1.0     0.220161     0.537279     0.109206    Uiso  ? Al
   Al13       1.0     0.778926     0.427517     0.862998    Uiso  ? Al
   Al14       1.0     0.893414     0.532235     0.615741    Uiso  ? Al
   Al15       1.0     0.439794     0.430676     0.358880    Uiso  ? Al
   Al16       1.0     0.562391     0.531915     0.117558    Uiso  ? Al
   Al17       1.0     0.107856     0.431316     0.865809    Uiso  ? Al
   Al18       1.0     0.225288     0.536942     0.618876    Uiso  ? Al
   Al19       1.0     0.780682     0.426044     0.366726    Uiso  ? Al
   Al20       1.0     0.889798     0.532579     0.115637    Uiso  ? Al
   Al21       1.0     0.442066     0.433359     0.869359    Uiso  ? Al
   Al22       1.0     0.557263     0.530180     0.611196    Uiso  ? Al
   Al23       1.0     0.107853     0.757172     0.366038    Uiso  ? Al
   Al24       1.0     0.785132     0.751653     0.876002    Uiso  ? Al
   Al25       1.0     0.443654     0.752718     0.359142    Uiso  ? Al
   Al26       1.0     0.561022     0.864473     0.119469    Uiso  ? Al
   Al27       1.0     0.221204     0.869365     0.609963    Uiso  ? Al
   Al28       1.0     0.792687     0.751638     0.351255    Uiso  ? Al
   Al29       1.0     0.884482     0.874647     0.099951    Uiso  ? Al
   Al30       1.0     0.450387     0.751145     0.859513    Uiso  ? Al
   Mg1        1.0     0.780761     0.095761     0.854891    Uiso  ? Mg
   Mg2        1.0     0.888702     0.874365     0.612062    Uiso  ? Mg
   Mg3        1.0     0.106066     0.757202     0.847381    Uiso  ? Mg
   Hf1        1.0     0.442468     0.099939     0.860701    Uiso  ? Hf
   Hf2        1.0     0.217582     0.875765     0.101093    Uiso  ? Hf
   Hf3        1.0     0.562428     0.864294     0.596114    Uiso  ? Hf
   N1         1.0     0.220085     0.208242     0.351842    Uiso  ? N
   N2         1.0     0.101789     0.112960     0.095370    Uiso  ? N
   N3         1.0     0.893749     0.215122     0.843029    Uiso  ? N
   N4         1.0     0.770458     0.109446     0.587152    Uiso  ? N
   N5         1.0     0.550605     0.209524     0.345270    Uiso  ? N
   N6         1.0     0.441275     0.093064     0.109572    Uiso  ? N
   N7         1.0     0.207553     0.217646     0.839470    Uiso  ? N
   N8         1.0     0.112335     0.094386     0.597774    Uiso  ? N
   N9         1.0     0.891232     0.209132     0.346545    Uiso  ? N
   N10        1.0     0.778459     0.098856     0.113713    Uiso  ? N
   N11        1.0     0.549032     0.223507     0.853951    Uiso  ? N
   N12        1.0     0.440206     0.108033     0.597685    Uiso  ? N
   N13        1.0     0.221072     0.537378     0.340644    Uiso  ? N
   N14        1.0     0.110262     0.426798     0.095704    Uiso  ? N
   N15        1.0     0.888976     0.537670     0.847109    Uiso  ? N
   N16        1.0     0.777541     0.429400     0.594662    Uiso  ? N
   N17        1.0     0.558237     0.535771     0.345664    Uiso  ? N
   N18        1.0     0.444366     0.431663     0.101072    Uiso  ? N
   N19        1.0     0.229219     0.523788     0.848681    Uiso  ? N
   N20        1.0     0.110798     0.429761     0.592505    Uiso  ? N
   N21        1.0     0.892680     0.531851     0.340601    Uiso  ? N
   N22        1.0     0.776640     0.428059     0.093303    Uiso  ? N
   N23        1.0     0.556129     0.537003     0.843144    Uiso  ? N
   N24        1.0     0.442801     0.429442     0.589281    Uiso  ? N
   N25        1.0     0.222181     0.875746     0.353147    Uiso  ? N
   N26        1.0     0.106590     0.753592     0.104765    Uiso  ? N
   N27        1.0     0.875396     0.868309     0.865984    Uiso  ? N
   N28        1.0     0.791182     0.740305     0.582078    Uiso  ? N
   N29        1.0     0.551246     0.873435     0.345473    Uiso  ? N
   N30        1.0     0.459249     0.749493     0.099358    Uiso  ? N
   N31        1.0     0.231876     0.881731     0.845899    Uiso  ? N
   N32        1.0     0.125492     0.751819     0.593038    Uiso  ? N
   N33        1.0     0.889178     0.871693     0.339124    Uiso  ? N
   N34        1.0     0.776651     0.753802     0.107343    Uiso  ? N
   N35        1.0     0.564613     0.855347     0.850589    Uiso  ? N
   N36        1.0     0.441521     0.747904     0.592999    Uiso  ? N
