
#======================================================================
# CRYSTAL DATA
#----------------------------------------------------------------------
data_VESTA_phase_1

_chemical_name_common                  'Al   Mg   Hf   N                      '
_cell_length_a                         9.930853
_cell_length_b                         9.986566
_cell_length_c                         9.064271
_cell_angle_alpha                      89.913635
_cell_angle_beta                       90.033966
_cell_angle_gamma                      60.066444
_cell_volume                           779.032525
_space_group_name_H-M_alt              'P 1'
_space_group_IT_number                 1

loop_
_space_group_symop_operation_xyz
   'x, y, z'

loop_
   _atom_site_label
   _atom_site_occupancy
   _atom_site_fract_x
   _atom_site_fract_y
   _atom_site_fract_z
   _atom_site_adp_type
   _atom_site_U_iso_or_equiv
   _atom_site_type_symbol
   Al1        1.0     0.105011     0.102859     0.348249    Uiso  ? Al
   Al2        1.0     0.207441     0.216677     0.095538    Uiso  ? Al
   Al3        1.0     0.882523     0.210886     0.588803    Uiso  ? Al
   Al4        1.0     0.442175     0.098063     0.326678    Uiso  ? Al
   Al5        1.0     0.563004     0.215043     0.101704    Uiso  ? Al
   Al6        1.0     0.108132     0.101161     0.825217    Uiso  ? Al
   Al7        1.0     0.219445     0.212862     0.577162    Uiso  ? Al
   Al8        1.0     0.783181     0.092340     0.349470    Uiso  ? Al
   Al9        1.0     0.884467     0.210649     0.078881    Uiso  ? Al
   Al10       1.0     0.554647     0.214649     0.572802    Uiso  ? Al
   Al11       1.0     0.111715     0.431490     0.334926    Uiso  ? Al
   Al12       1.0     0.221574     0.535373     0.078418    Uiso  ? Al
   Al13       1.0     0.780469     0.428369     0.833874    Uiso  ? Al
   Al14       1.0     0.893172     0.529569     0.579218    Uiso  ? Al
   Al15       1.0     0.438478     0.433800     0.335166    Uiso  ? Al
   Al16       1.0     0.560453     0.532191     0.082926    Uiso  ? Al
   Al17       1.0     0.105677     0.431152     0.832985    Uiso  ? Al
   Al18       1.0     0.224188     0.537058     0.590555    Uiso  ? Al
   Al19       1.0     0.778871     0.424778     0.333229    Uiso  ? Al
   Al20       1.0     0.889344     0.535704     0.088209    Uiso  ? Al
   Al21       1.0     0.443413     0.430359     0.832818    Uiso  ? Al
   Al22       1.0     0.559112     0.529604     0.584533    Uiso  ? Al
   Al23       1.0     0.107385     0.756049     0.361392    Uiso  ? Al
   Al24       1.0     0.788878     0.748660     0.841243    Uiso  ? Al
   Al25       1.0     0.449876     0.751814     0.339948    Uiso  ? Al
   Al26       1.0     0.564377     0.860873     0.099092    Uiso  ? Al
   Al27       1.0     0.221317     0.870329     0.585779    Uiso  ? Al
   Al28       1.0     0.787919     0.755821     0.334055    Uiso  ? Al
   Al29       1.0     0.884008     0.872789     0.089659    Uiso  ? Al
   Al30       1.0     0.445114     0.752741     0.835876    Uiso  ? Al
   Mg1        1.0     0.778421     0.096618     0.837819    Uiso  ? Mg
   Mg2        1.0     0.889288     0.874684     0.600884    Uiso  ? Mg
   Mg3        1.0     0.108344     0.759088     0.835427    Uiso  ? Mg
   Hf1        1.0     0.442638     0.102256     0.862785    Uiso  ? Hf
   Hf2        1.0     0.217843     0.874831     0.101643    Uiso  ? Hf
   Hf3        1.0     0.559044     0.869627     0.595815    Uiso  ? Hf
   N1         1.0     0.224213     0.207957     0.365135    Uiso  ? N
   N2         1.0     0.097569     0.113340     0.132238    Uiso  ? N
   N3         1.0     0.896744     0.213364     0.866243    Uiso  ? N
   N4         1.0     0.766455     0.110503     0.599141    Uiso  ? N
   N5         1.0     0.549257     0.209248     0.356295    Uiso  ? N
   N6         1.0     0.442561     0.089608     0.112515    Uiso  ? N
   N7         1.0     0.203070     0.217603     0.878564    Uiso  ? N
   N8         1.0     0.115744     0.094839     0.610124    Uiso  ? N
   N9         1.0     0.888655     0.210874     0.376610    Uiso  ? N
   N10        1.0     0.782509     0.097051     0.127644    Uiso  ? N
   N11        1.0     0.550667     0.225601     0.888398    Uiso  ? N
   N12        1.0     0.437463     0.113382     0.620661    Uiso  ? N
   N13        1.0     0.223083     0.534363     0.375544    Uiso  ? N
   N14        1.0     0.109862     0.430695     0.124564    Uiso  ? N
   N15        1.0     0.890328     0.534695     0.876349    Uiso  ? N
   N16        1.0     0.777331     0.429682     0.621618    Uiso  ? N
   N17        1.0     0.557960     0.535332     0.373125    Uiso  ? N
   N18        1.0     0.440538     0.436180     0.125529    Uiso  ? N
   N19        1.0     0.228429     0.523459     0.866377    Uiso  ? N
   N20        1.0     0.110218     0.425460     0.619276    Uiso  ? N
   N21        1.0     0.890277     0.535179     0.367093    Uiso  ? N
   N22        1.0     0.776634     0.426845     0.121278    Uiso  ? N
   N23        1.0     0.555977     0.537680     0.869937    Uiso  ? N
   N24        1.0     0.445912     0.426234     0.618901    Uiso  ? N
   N25        1.0     0.225525     0.874211     0.361529    Uiso  ? N
   N26        1.0     0.106337     0.749733     0.122541    Uiso  ? N
   N27        1.0     0.877407     0.868069     0.874712    Uiso  ? N
   N28        1.0     0.789964     0.738682     0.620876    Uiso  ? N
   N29        1.0     0.555172     0.873531     0.359293    Uiso  ? N
   N30        1.0     0.461089     0.747965     0.123867    Uiso  ? N
   N31        1.0     0.229293     0.884237     0.865603    Uiso  ? N
   N32        1.0     0.125311     0.754061     0.598346    Uiso  ? N
   N33        1.0     0.887163     0.871269     0.356665    Uiso  ? N
   N34        1.0     0.778556     0.754490     0.121768    Uiso  ? N
   N35        1.0     0.563301     0.854772     0.862067    Uiso  ? N
   N36        1.0     0.440804     0.748788     0.616477    Uiso  ? N
