
#======================================================================
# CRYSTAL DATA
#----------------------------------------------------------------------
data_VESTA_phase_1

_chemical_name_common                  'Al   Mg   Hf   N                      '
_cell_length_a                         9.842593
_cell_length_b                         9.898330
_cell_length_c                         9.328021
_cell_angle_alpha                      89.982147
_cell_angle_beta                       90.012413
_cell_angle_gamma                      60.062843
_cell_volume                           787.528374
_space_group_name_H-M_alt              'P 1'
_space_group_IT_number                 1

loop_
_space_group_symop_operation_xyz
   'x, y, z'

loop_
   _atom_site_label
   _atom_site_occupancy
   _atom_site_fract_x
   _atom_site_fract_y
   _atom_site_fract_z
   _atom_site_adp_type
   _atom_site_U_iso_or_equiv
   _atom_site_type_symbol
   Al1        1.0     0.108912     0.095321     0.381378    Uiso  ? Al
   Al2        1.0     0.214892     0.213686     0.133457    Uiso  ? Al
   Al3        1.0     0.885095     0.209078     0.625161    Uiso  ? Al
   Al4        1.0     0.439934     0.104236     0.370697    Uiso  ? Al
   Al5        1.0     0.559215     0.209499     0.130249    Uiso  ? Al
   Al6        1.0     0.103490     0.108176     0.867672    Uiso  ? Al
   Al7        1.0     0.213078     0.214694     0.618671    Uiso  ? Al
   Al8        1.0     0.780068     0.093681     0.368109    Uiso  ? Al
   Al9        1.0     0.883196     0.212579     0.128571    Uiso  ? Al
   Al10       1.0     0.558424     0.217837     0.621665    Uiso  ? Al
   Al11       1.0     0.109447     0.431397     0.377074    Uiso  ? Al
   Al12       1.0     0.220152     0.536858     0.125503    Uiso  ? Al
   Al13       1.0     0.779095     0.426778     0.874973    Uiso  ? Al
   Al14       1.0     0.893691     0.532794     0.628999    Uiso  ? Al
   Al15       1.0     0.441318     0.429697     0.374093    Uiso  ? Al
   Al16       1.0     0.562697     0.531275     0.128240    Uiso  ? Al
   Al17       1.0     0.108432     0.431960     0.877510    Uiso  ? Al
   Al18       1.0     0.225992     0.535600     0.629116    Uiso  ? Al
   Al19       1.0     0.780255     0.426900     0.378872    Uiso  ? Al
   Al20       1.0     0.889903     0.532570     0.125724    Uiso  ? Al
   Al21       1.0     0.441308     0.433243     0.880162    Uiso  ? Al
   Al22       1.0     0.556527     0.530754     0.625440    Uiso  ? Al
   Al23       1.0     0.108852     0.759923     0.379884    Uiso  ? Al
   Al24       1.0     0.782409     0.751925     0.886194    Uiso  ? Al
   Al25       1.0     0.438932     0.752915     0.372360    Uiso  ? Al
   Al26       1.0     0.559663     0.867545     0.137764    Uiso  ? Al
   Al27       1.0     0.221198     0.870546     0.632352    Uiso  ? Al
   Al28       1.0     0.794529     0.750958     0.362305    Uiso  ? Al
   Al29       1.0     0.884389     0.874065     0.105818    Uiso  ? Al
   Al30       1.0     0.454307     0.750715     0.874445    Uiso  ? Al
   Mg1        1.0     0.780788     0.098504     0.871696    Uiso  ? Mg
   Mg2        1.0     0.887503     0.875226     0.627629    Uiso  ? Mg
   Mg3        1.0     0.106280     0.755227     0.856924    Uiso  ? Mg
   Hf1        1.0     0.445657     0.095809     0.864232    Uiso  ? Hf
   Hf2        1.0     0.217826     0.874459     0.102616    Uiso  ? Hf
   Hf3        1.0     0.562895     0.863012     0.598553    Uiso  ? Hf
   N1         1.0     0.219813     0.207345     0.338328    Uiso  ? N
   N2         1.0     0.099630     0.116972     0.077870    Uiso  ? N
   N3         1.0     0.893322     0.216783     0.826509    Uiso  ? N
   N4         1.0     0.770965     0.109942     0.575512    Uiso  ? N
   N5         1.0     0.550762     0.209410     0.333801    Uiso  ? N
   N6         1.0     0.443319     0.091931     0.093786    Uiso  ? N
   N7         1.0     0.207502     0.218323     0.825604    Uiso  ? N
   N8         1.0     0.113865     0.091536     0.585325    Uiso  ? N
   N9         1.0     0.892047     0.208632     0.334121    Uiso  ? N
   N10        1.0     0.776941     0.099803     0.101327    Uiso  ? N
   N11        1.0     0.548712     0.224858     0.828889    Uiso  ? N
   N12        1.0     0.438391     0.110608     0.589590    Uiso  ? N
   N13        1.0     0.220889     0.538628     0.331554    Uiso  ? N
   N14        1.0     0.111414     0.426357     0.083138    Uiso  ? N
   N15        1.0     0.888799     0.537820     0.835585    Uiso  ? N
   N16        1.0     0.777290     0.430036     0.582387    Uiso  ? N
   N17        1.0     0.557760     0.535913     0.331626    Uiso  ? N
   N18        1.0     0.444301     0.429480     0.086227    Uiso  ? N
   N19        1.0     0.230661     0.521123     0.831770    Uiso  ? N
   N20        1.0     0.110286     0.429449     0.580081    Uiso  ? N
   N21        1.0     0.892897     0.531277     0.327808    Uiso  ? N
   N22        1.0     0.776864     0.427514     0.080531    Uiso  ? N
   N23        1.0     0.555902     0.537017     0.831180    Uiso  ? N
   N24        1.0     0.442941     0.430592     0.576824    Uiso  ? N
   N25        1.0     0.220100     0.875158     0.332958    Uiso  ? N
   N26        1.0     0.106354     0.750606     0.087935    Uiso  ? N
   N27        1.0     0.872478     0.869521     0.857628    Uiso  ? N
   N28        1.0     0.795249     0.738071     0.567393    Uiso  ? N
   N29        1.0     0.550778     0.874065     0.346214    Uiso  ? N
   N30        1.0     0.463573     0.749328     0.084313    Uiso  ? N
   N31        1.0     0.232826     0.882670     0.844411    Uiso  ? N
   N32        1.0     0.125699     0.753282     0.588132    Uiso  ? N
   N33        1.0     0.891200     0.871741     0.328133    Uiso  ? N
   N34        1.0     0.774174     0.755329     0.096422    Uiso  ? N
   N35        1.0     0.566931     0.851728     0.828697    Uiso  ? N
   N36        1.0     0.437343     0.747503     0.578574    Uiso  ? N
