
#======================================================================
# CRYSTAL DATA
#----------------------------------------------------------------------
data_VESTA_phase_1

_chemical_name_common                  'Al   Mg   Hf   N '
_cell_length_a                         9.564984
_cell_length_b                         9.621310
_cell_length_c                         10.114264
_cell_angle_alpha                      90.096214
_cell_angle_beta                       90.141136
_cell_angle_gamma                      60.018204
_cell_volume                           806.234980
_space_group_name_H-M_alt              'P 1'
_space_group_IT_number                 1

loop_
_space_group_symop_operation_xyz
   'x, y, z'

loop_
   _atom_site_label
   _atom_site_occupancy
   _atom_site_fract_x
   _atom_site_fract_y
   _atom_site_fract_z
   _atom_site_adp_type
   _atom_site_U_iso_or_equiv
   _atom_site_type_symbol
   Al1        1.0     0.109116     0.097235     0.416247    Uiso  ? Al
   Al2        1.0     0.215645     0.214518     0.166727    Uiso  ? Al
   Al3        1.0     0.886723     0.208279     0.660499    Uiso  ? Al
   Al4        1.0     0.440980     0.102199     0.408994    Uiso  ? Al
   Al5        1.0     0.559042     0.208895     0.168888    Uiso  ? Al
   Al6        1.0     0.104108     0.104533     0.904710    Uiso  ? Al
   Al7        1.0     0.214940     0.213186     0.658353    Uiso  ? Al
   Al8        1.0     0.778127     0.096468     0.410942    Uiso  ? Al
   Al9        1.0     0.882218     0.212086     0.164317    Uiso  ? Al
   Al10       1.0     0.558301     0.216415     0.657091    Uiso  ? Al
   Al11       1.0     0.109785     0.429198     0.412746    Uiso  ? Al
   Al12       1.0     0.220823     0.535211     0.163818    Uiso  ? Al
   Al13       1.0     0.779736     0.425977     0.909721    Uiso  ? Al
   Al14       1.0     0.894335     0.532030     0.663150    Uiso  ? Al
   Al15       1.0     0.442839     0.429239     0.412642    Uiso  ? Al
   Al16       1.0     0.561487     0.531332     0.161609    Uiso  ? Al
   Al17       1.0     0.108622     0.433154     0.910227    Uiso  ? Al
   Al18       1.0     0.224414     0.537648     0.662224    Uiso  ? Al
   Al19       1.0     0.779267     0.427381     0.412919    Uiso  ? Al
   Al20       1.0     0.889369     0.535622     0.160694    Uiso  ? Al
   Al21       1.0     0.440380     0.433015     0.910444    Uiso  ? Al
   Al22       1.0     0.557229     0.531168     0.661308    Uiso  ? Al
   Al23       1.0     0.110653     0.758156     0.416995    Uiso  ? Al
   Al24       1.0     0.786120     0.752813     0.917287    Uiso  ? Al
   Al25       1.0     0.443370     0.754239     0.411211    Uiso  ? Al
   Al26       1.0     0.561952     0.867013     0.171620    Uiso  ? Al
   Al27       1.0     0.219458     0.870936     0.666153    Uiso  ? Al
   Al28       1.0     0.787909     0.752742     0.405907    Uiso  ? Al
   Al29       1.0     0.883209     0.873748     0.163153    Uiso  ? Al
   Al30       1.0     0.448664     0.751735     0.909974    Uiso  ? Al
   Mg1        1.0     0.783036     0.095869     0.912124    Uiso  ? Mg
   Mg2        1.0     0.890968     0.874520     0.661848    Uiso  ? Mg
   Mg3        1.0     0.102296     0.759417     0.903016    Uiso  ? Mg
   Hf1        1.0     0.449680     0.094228     0.910262    Uiso  ? Hf
   Hf2        1.0     0.218259     0.874573     0.150687    Uiso  ? Hf
   Hf3        1.0     0.562672     0.866010     0.647407    Uiso  ? Hf
   N1         1.0     0.219714     0.207006     0.355325    Uiso  ? N
   N2         1.0     0.100050     0.116150     0.097988    Uiso  ? N
   N3         1.0     0.893815     0.216199     0.846095    Uiso  ? N
   N4         1.0     0.771200     0.110892     0.596693    Uiso  ? N
   N5         1.0     0.552522     0.209314     0.356005    Uiso  ? N
   N6         1.0     0.444411     0.093047     0.118520    Uiso  ? N
   N7         1.0     0.211721     0.214769     0.848357    Uiso  ? N
   N8         1.0     0.114101     0.092591     0.604488    Uiso  ? N
   N9         1.0     0.891123     0.207601     0.354254    Uiso  ? N
   N10        1.0     0.777477     0.096232     0.120331    Uiso  ? N
   N11        1.0     0.548684     0.223440     0.844745    Uiso  ? N
   N12        1.0     0.437137     0.111935     0.602666    Uiso  ? N
   N13        1.0     0.221908     0.537144     0.354133    Uiso  ? N
   N14        1.0     0.111311     0.427295     0.102345    Uiso  ? N
   N15        1.0     0.888748     0.536958     0.854686    Uiso  ? N
   N16        1.0     0.777843     0.429226     0.602240    Uiso  ? N
   N17        1.0     0.556442     0.537083     0.351343    Uiso  ? N
   N18        1.0     0.443611     0.427927     0.103984    Uiso  ? N
   N19        1.0     0.228632     0.524419     0.848974    Uiso  ? N
   N20        1.0     0.111196     0.427621     0.601235    Uiso  ? N
   N21        1.0     0.891271     0.533908     0.349065    Uiso  ? N
   N22        1.0     0.777311     0.427431     0.101692    Uiso  ? N
   N23        1.0     0.555955     0.537149     0.852112    Uiso  ? N
   N24        1.0     0.443364     0.430763     0.599724    Uiso  ? N
   N25        1.0     0.221193     0.874269     0.357960    Uiso  ? N
   N26        1.0     0.102663     0.751465     0.112542    Uiso  ? N
   N27        1.0     0.869572     0.870700     0.859050    Uiso  ? N
   N28        1.0     0.793839     0.737803     0.589783    Uiso  ? N
   N29        1.0     0.553844     0.872254     0.364539    Uiso  ? N
   N30        1.0     0.462672     0.750461     0.102335    Uiso  ? N
   N31        1.0     0.230014     0.882029     0.860039    Uiso  ? N
   N32        1.0     0.127194     0.752617     0.603160    Uiso  ? N
   N33        1.0     0.889099     0.872173     0.356049    Uiso  ? N
   N34        1.0     0.775996     0.757987     0.110919    Uiso  ? N
   N35        1.0     0.564733     0.851691     0.854088    Uiso  ? N
   N36        1.0     0.438549     0.749256     0.599545    Uiso  ? N
