
#======================================================================
# CRYSTAL DATA
#----------------------------------------------------------------------
data_VESTA_phase_1

_chemical_name_common                  'Al   Mg   Hf   N                      '
_cell_length_a                         9.888527
_cell_length_b                         9.944755
_cell_length_c                         9.190804
_cell_angle_alpha                      89.973366
_cell_angle_beta                       90.012352
_cell_angle_gamma                      60.066204
_cell_volume                           783.247583
_space_group_name_H-M_alt              'P 1'
_space_group_IT_number                 1

loop_
_space_group_symop_operation_xyz
   'x, y, z'

loop_
   _atom_site_label
   _atom_site_occupancy
   _atom_site_fract_x
   _atom_site_fract_y
   _atom_site_fract_z
   _atom_site_adp_type
   _atom_site_U_iso_or_equiv
   _atom_site_type_symbol
   Al1        1.0     0.108469     0.095701     0.380316    Uiso  ? Al
   Al2        1.0     0.214157     0.213849     0.132415    Uiso  ? Al
   Al3        1.0     0.884742     0.209291     0.623756    Uiso  ? Al
   Al4        1.0     0.440377     0.103538     0.365950    Uiso  ? Al
   Al5        1.0     0.559570     0.209944     0.128089    Uiso  ? Al
   Al6        1.0     0.103995     0.107601     0.864346    Uiso  ? Al
   Al7        1.0     0.213630     0.214641     0.615445    Uiso  ? Al
   Al8        1.0     0.780239     0.093619     0.365319    Uiso  ? Al
   Al9        1.0     0.883462     0.212493     0.126035    Uiso  ? Al
   Al10       1.0     0.558169     0.217594     0.619101    Uiso  ? Al
   Al11       1.0     0.109419     0.431869     0.375284    Uiso  ? Al
   Al12       1.0     0.220092     0.537009     0.122552    Uiso  ? Al
   Al13       1.0     0.778935     0.426947     0.873143    Uiso  ? Al
   Al14       1.0     0.893598     0.532830     0.627196    Uiso  ? Al
   Al15       1.0     0.440968     0.429818     0.371687    Uiso  ? Al
   Al16       1.0     0.562782     0.531337     0.126926    Uiso  ? Al
   Al17       1.0     0.108404     0.431652     0.875825    Uiso  ? Al
   Al18       1.0     0.226042     0.535660     0.627994    Uiso  ? Al
   Al19       1.0     0.780482     0.426719     0.377232    Uiso  ? Al
   Al20       1.0     0.889987     0.532221     0.124036    Uiso  ? Al
   Al21       1.0     0.441542     0.433334     0.878994    Uiso  ? Al
   Al22       1.0     0.556578     0.530669     0.623217    Uiso  ? Al
   Al23       1.0     0.108789     0.759445     0.377283    Uiso  ? Al
   Al24       1.0     0.782638     0.751873     0.885081    Uiso  ? Al
   Al25       1.0     0.439571     0.752872     0.370180    Uiso  ? Al
   Al26       1.0     0.559678     0.867058     0.134928    Uiso  ? Al
   Al27       1.0     0.221396     0.870243     0.628933    Uiso  ? Al
   Al28       1.0     0.794412     0.750907     0.359317    Uiso  ? Al
   Al29       1.0     0.884521     0.874197     0.103244    Uiso  ? Al
   Al30       1.0     0.453816     0.750737     0.872370    Uiso  ? Al
   Mg1        1.0     0.780781     0.097997     0.868319    Uiso  ? Mg
   Mg2        1.0     0.887610     0.875028     0.623985    Uiso  ? Mg
   Mg3        1.0     0.106318     0.755588     0.854383    Uiso  ? Mg
   Hf1        1.0     0.444793     0.096666     0.862999    Uiso  ? Hf
   Hf2        1.0     0.217669     0.874747     0.101797    Uiso  ? Hf
   Hf3        1.0     0.562909     0.863162     0.597551    Uiso  ? Hf
   N1         1.0     0.219643     0.207500     0.341219    Uiso  ? N
   N2         1.0     0.100072     0.116320     0.079773    Uiso  ? N
   N3         1.0     0.893238     0.216609     0.829157    Uiso  ? N
   N4         1.0     0.770914     0.109907     0.577591    Uiso  ? N
   N5         1.0     0.550706     0.209515     0.335619    Uiso  ? N
   N6         1.0     0.442825     0.092275     0.097134    Uiso  ? N
   N7         1.0     0.207451     0.218405     0.827182    Uiso  ? N
   N8         1.0     0.113505     0.091927     0.587875    Uiso  ? N
   N9         1.0     0.892132     0.208757     0.335869    Uiso  ? N
   N10        1.0     0.777170     0.099714     0.104006    Uiso  ? N
   N11        1.0     0.548619     0.224735     0.832186    Uiso  ? N
   N12        1.0     0.438902     0.109931     0.591459    Uiso  ? N
   N13        1.0     0.220879     0.538477     0.332588    Uiso  ? N
   N14        1.0     0.111271     0.426232     0.085125    Uiso  ? N
   N15        1.0     0.888776     0.537940     0.837664    Uiso  ? N
   N16        1.0     0.777378     0.429949     0.584430    Uiso  ? N
   N17        1.0     0.557970     0.535803     0.333921    Uiso  ? N
   N18        1.0     0.444492     0.429802     0.088669    Uiso  ? N
   N19        1.0     0.230496     0.521508     0.834934    Uiso  ? N
   N20        1.0     0.110299     0.429801     0.582068    Uiso  ? N
   N21        1.0     0.893026     0.531064     0.329674    Uiso  ? N
   N22        1.0     0.776736     0.427642     0.082357    Uiso  ? N
   N23        1.0     0.555896     0.537026     0.832856    Uiso  ? N
   N24        1.0     0.442758     0.430538     0.578472    Uiso  ? N
   N25        1.0     0.220294     0.875390     0.336300    Uiso  ? N
   N26        1.0     0.106472     0.751280     0.090768    Uiso  ? N
   N27        1.0     0.873070     0.869173     0.860542    Uiso  ? N
   N28        1.0     0.794476     0.738390     0.569294    Uiso  ? N
   N29        1.0     0.550541     0.874028     0.346206    Uiso  ? N
   N30        1.0     0.462767     0.749284     0.086771    Uiso  ? N
   N31        1.0     0.232907     0.882396     0.844787    Uiso  ? N
   N32        1.0     0.125738     0.752896     0.589627    Uiso  ? N
   N33        1.0     0.891044     0.871708     0.330268    Uiso  ? N
   N34        1.0     0.774576     0.754995     0.099303    Uiso  ? N
   N35        1.0     0.566617     0.852462     0.832522    Uiso  ? N
   N36        1.0     0.438129     0.747560     0.580684    Uiso  ? N
