
#======================================================================
# CRYSTAL DATA
#----------------------------------------------------------------------
data_VESTA_phase_1

_chemical_name_common                  'Al   Mg   Hf   N                      '
_cell_length_a                         9.932446
_cell_length_b                         9.989511
_cell_length_c                         9.057673
_cell_angle_alpha                      89.965477
_cell_angle_beta                       90.013260
_cell_angle_gamma                      60.069790
_cell_volume                           778.847727
_space_group_name_H-M_alt              'P 1'
_space_group_IT_number                 1

loop_
_space_group_symop_operation_xyz
   'x, y, z'

loop_
   _atom_site_label
   _atom_site_occupancy
   _atom_site_fract_x
   _atom_site_fract_y
   _atom_site_fract_z
   _atom_site_adp_type
   _atom_site_U_iso_or_equiv
   _atom_site_type_symbol
   Al1        1.0     0.108005     0.096248     0.378924    Uiso  ? Al
   Al2        1.0     0.213456     0.214059     0.131051    Uiso  ? Al
   Al3        1.0     0.884410     0.209492     0.622130    Uiso  ? Al
   Al4        1.0     0.440826     0.102826     0.360890    Uiso  ? Al
   Al5        1.0     0.559987     0.210397     0.125543    Uiso  ? Al
   Al6        1.0     0.104534     0.106862     0.860613    Uiso  ? Al
   Al7        1.0     0.214223     0.214557     0.612080    Uiso  ? Al
   Al8        1.0     0.780377     0.093599     0.362714    Uiso  ? Al
   Al9        1.0     0.883674     0.212370     0.123088    Uiso  ? Al
   Al10       1.0     0.557909     0.217247     0.615871    Uiso  ? Al
   Al11       1.0     0.109430     0.432257     0.373253    Uiso  ? Al
   Al12       1.0     0.220044     0.537127     0.119354    Uiso  ? Al
   Al13       1.0     0.778812     0.427112     0.871093    Uiso  ? Al
   Al14       1.0     0.893534     0.532797     0.625085    Uiso  ? Al
   Al15       1.0     0.440627     0.429946     0.369015    Uiso  ? Al
   Al16       1.0     0.562820     0.531421     0.125368    Uiso  ? Al
   Al17       1.0     0.108338     0.431406     0.873875    Uiso  ? Al
   Al18       1.0     0.225987     0.535854     0.626572    Uiso  ? Al
   Al19       1.0     0.780662     0.426538     0.375319    Uiso  ? Al
   Al20       1.0     0.890019     0.532035     0.122202    Uiso  ? Al
   Al21       1.0     0.441758     0.433421     0.877516    Uiso  ? Al
   Al22       1.0     0.556662     0.530567     0.620717    Uiso  ? Al
   Al23       1.0     0.108680     0.758876     0.374433    Uiso  ? Al
   Al24       1.0     0.783081     0.751843     0.883545    Uiso  ? Al
   Al25       1.0     0.440430     0.752846     0.367781    Uiso  ? Al
   Al26       1.0     0.559861     0.866456     0.131569    Uiso  ? Al
   Al27       1.0     0.221482     0.869933     0.624780    Uiso  ? Al
   Al28       1.0     0.794120     0.750939     0.356672    Uiso  ? Al
   Al29       1.0     0.884602     0.874338     0.101638    Uiso  ? Al
   Al30       1.0     0.453120     0.750788     0.869883    Uiso  ? Al
   Mg1        1.0     0.780832     0.097378     0.864789    Uiso  ? Mg
   Mg2        1.0     0.887822     0.874815     0.620373    Uiso  ? Mg
   Mg3        1.0     0.106264     0.756054     0.852166    Uiso  ? Mg
   Hf1        1.0     0.444021     0.097517     0.862039    Uiso  ? Hf
   Hf2        1.0     0.217548     0.875066     0.101313    Uiso  ? Hf
   Hf3        1.0     0.562862     0.863408     0.596849    Uiso  ? Hf
   N1         1.0     0.219570     0.207654     0.344149    Uiso  ? N
   N2         1.0     0.100551     0.115570     0.082191    Uiso  ? N
   N3         1.0     0.893204     0.216362     0.832115    Uiso  ? N
   N4         1.0     0.770872     0.109832     0.579877    Uiso  ? N
   N5         1.0     0.550694     0.209566     0.337655    Uiso  ? N
   N6         1.0     0.442348     0.092621     0.100723    Uiso  ? N
   N7         1.0     0.207480     0.218378     0.829209    Uiso  ? N
   N8         1.0     0.113131     0.092436     0.590532    Uiso  ? N
   N9         1.0     0.892109     0.208865     0.337823    Uiso  ? N
   N10        1.0     0.777448     0.099524     0.106684    Uiso  ? N
   N11        1.0     0.548593     0.224543     0.836088    Uiso  ? N
   N12        1.0     0.439365     0.109297     0.593290    Uiso  ? N
   N13        1.0     0.220892     0.538254     0.333815    Uiso  ? N
   N14        1.0     0.111074     0.426189     0.087300    Uiso  ? N
   N15        1.0     0.888780     0.537996     0.839835    Uiso  ? N
   N16        1.0     0.777472     0.429827     0.586635    Uiso  ? N
   N17        1.0     0.558147     0.535721     0.336440    Uiso  ? N
   N18        1.0     0.444636     0.430165     0.091333    Uiso  ? N
   N19        1.0     0.230246     0.522036     0.838320    Uiso  ? N
   N20        1.0     0.110364     0.430045     0.584260    Uiso  ? N
   N21        1.0     0.893064     0.531016     0.331799    Uiso  ? N
   N22        1.0     0.776631     0.427781     0.084434    Uiso  ? N
   N23        1.0     0.555909     0.537023     0.834753    Uiso  ? N
   N24        1.0     0.442596     0.430431     0.580385    Uiso  ? N
   N25        1.0     0.220580     0.875598     0.340165    Uiso  ? N
   N26        1.0     0.106482     0.752001     0.094043    Uiso  ? N
   N27        1.0     0.873658     0.868871     0.862665    Uiso  ? N
   N28        1.0     0.793654     0.738775     0.571664    Uiso  ? N
   N29        1.0     0.550475     0.873926     0.346044    Uiso  ? N
   N30        1.0     0.461890     0.749266     0.089488    Uiso  ? N
   N31        1.0     0.232860     0.882099     0.845040    Uiso  ? N
   N32        1.0     0.125740     0.752500     0.590801    Uiso  ? N
   N33        1.0     0.890719     0.871702     0.332569    Uiso  ? N
   N34        1.0     0.775069     0.754689     0.101890    Uiso  ? N
   N35        1.0     0.566216     0.853205     0.836796    Uiso  ? N
   N36        1.0     0.438990     0.747634     0.583108    Uiso  ? N
