
#======================================================================
# CRYSTAL DATA
#----------------------------------------------------------------------
data_VESTA_phase_1

_chemical_name_common                  'Al   Mg   Hf   N                      '
_cell_length_a                         9.693610
_cell_length_b                         9.750133
_cell_length_c                         9.756489
_cell_angle_alpha                      90.017120
_cell_angle_beta                       90.028664
_cell_angle_gamma                      60.049370
_cell_volume                           798.980239
_space_group_name_H-M_alt              'P 1'
_space_group_IT_number                 1

loop_
_space_group_symop_operation_xyz
   'x, y, z'

loop_
   _atom_site_label
   _atom_site_occupancy
   _atom_site_fract_x
   _atom_site_fract_y
   _atom_site_fract_z
   _atom_site_adp_type
   _atom_site_U_iso_or_equiv
   _atom_site_type_symbol
   Al1        1.0     0.109727     0.095323     0.384072    Uiso  ? Al
   Al2        1.0     0.216347     0.213764     0.135764    Uiso  ? Al
   Al3        1.0     0.886081     0.208534     0.628876    Uiso  ? Al
   Al4        1.0     0.439400     0.105040     0.379673    Uiso  ? Al
   Al5        1.0     0.558722     0.208638     0.135508    Uiso  ? Al
   Al6        1.0     0.102758     0.108154     0.874612    Uiso  ? Al
   Al7        1.0     0.212671     0.214384     0.626455    Uiso  ? Al
   Al8        1.0     0.779011     0.094844     0.376567    Uiso  ? Al
   Al9        1.0     0.882390     0.212586     0.133934    Uiso  ? Al
   Al10       1.0     0.558734     0.217793     0.626839    Uiso  ? Al
   Al11       1.0     0.109584     0.429955     0.381456    Uiso  ? Al
   Al12       1.0     0.220363     0.536151     0.132298    Uiso  ? Al
   Al13       1.0     0.779587     0.426287     0.879182    Uiso  ? Al
   Al14       1.0     0.894077     0.532405     0.633057    Uiso  ? Al
   Al15       1.0     0.442261     0.429344     0.380116    Uiso  ? Al
   Al16       1.0     0.562265     0.531189     0.131277    Uiso  ? Al
   Al17       1.0     0.108533     0.432851     0.880962    Uiso  ? Al
   Al18       1.0     0.225182     0.536398     0.631628    Uiso  ? Al
   Al19       1.0     0.779517     0.427385     0.382593    Uiso  ? Al
   Al20       1.0     0.889503     0.534271     0.129729    Uiso  ? Al
   Al21       1.0     0.440626     0.433089     0.882131    Uiso  ? Al
   Al22       1.0     0.556551     0.530935     0.630472    Uiso  ? Al
   Al23       1.0     0.109515     0.760134     0.385567    Uiso  ? Al
   Al24       1.0     0.783510     0.752497     0.887513    Uiso  ? Al
   Al25       1.0     0.439010     0.753317     0.377962    Uiso  ? Al
   Al26       1.0     0.560672     0.867933     0.143036    Uiso  ? Al
   Al27       1.0     0.220032     0.871033     0.638322    Uiso  ? Al
   Al28       1.0     0.792908     0.751400     0.371702    Uiso  ? Al
   Al29       1.0     0.883813     0.873807     0.121002    Uiso  ? Al
   Al30       1.0     0.453800     0.750819     0.878778    Uiso  ? Al
   Mg1        1.0     0.781722     0.098154     0.879763    Uiso  ? Mg
   Mg2        1.0     0.888362     0.875461     0.634335    Uiso  ? Mg
   Mg3        1.0     0.104559     0.755840     0.866335    Uiso  ? Mg
   Hf1        1.0     0.448610     0.093464     0.870668    Uiso  ? Hf
   Hf2        1.0     0.218255     0.874026     0.108500    Uiso  ? Hf
   Hf3        1.0     0.562510     0.863621     0.604788    Uiso  ? Hf
   N1         1.0     0.220275     0.207017     0.330835    Uiso  ? N
   N2         1.0     0.098924     0.117968     0.073388    Uiso  ? N
   N3         1.0     0.893657     0.216830     0.820467    Uiso  ? N
   N4         1.0     0.771016     0.110330     0.570698    Uiso  ? N
   N5         1.0     0.551368     0.209137     0.329398    Uiso  ? N
   N6         1.0     0.444564     0.091479     0.087879    Uiso  ? N
   N7         1.0     0.208833     0.217153     0.822357    Uiso  ? N
   N8         1.0     0.114567     0.091204     0.579070    Uiso  ? N
   N9         1.0     0.891444     0.208204     0.329449    Uiso  ? N
   N10        1.0     0.776991     0.098611     0.094787    Uiso  ? N
   N11        1.0     0.549073     0.224698     0.821357    Uiso  ? N
   N12        1.0     0.437009     0.112494     0.582946    Uiso  ? N
   N13        1.0     0.221154     0.538397     0.328579    Uiso  ? N
   N14        1.0     0.111549     0.426946     0.077856    Uiso  ? N
   N15        1.0     0.888975     0.537241     0.830137    Uiso  ? N
   N16        1.0     0.777255     0.429971     0.577174    Uiso  ? N
   N17        1.0     0.557039     0.536375     0.325976    Uiso  ? N
   N18        1.0     0.443706     0.428732     0.079884    Uiso  ? N
   N19        1.0     0.230260     0.521651     0.824179    Uiso  ? N
   N20        1.0     0.110540     0.428198     0.575315    Uiso  ? N
   N21        1.0     0.892096     0.532605     0.323218    Uiso  ? N
   N22        1.0     0.777241     0.427288     0.076064    Uiso  ? N
   N23        1.0     0.556003     0.536901     0.826837    Uiso  ? N
   N24        1.0     0.443292     0.430620     0.573066    Uiso  ? N
   N25        1.0     0.220131     0.874597     0.326644    Uiso  ? N
   N26        1.0     0.104508     0.749846     0.083295    Uiso  ? N
   N27        1.0     0.870561     0.870689     0.843272    Uiso  ? N
   N28        1.0     0.796462     0.737361     0.563603    Uiso  ? N
   N29        1.0     0.552309     0.873492     0.344062    Uiso  ? N
   N30        1.0     0.465044     0.749604     0.077994    Uiso  ? N
   N31        1.0     0.231795     0.882833     0.841165    Uiso  ? N
   N32        1.0     0.125852     0.753838     0.581403    Uiso  ? N
   N33        1.0     0.890486     0.872029     0.325347    Uiso  ? N
   N34        1.0     0.774169     0.756856     0.087656    Uiso  ? N
   N35        1.0     0.567009     0.850094     0.821374    Uiso  ? N
   N36        1.0     0.436006     0.747682     0.573546    Uiso  ? N
