
#======================================================================
# CRYSTAL DATA
#----------------------------------------------------------------------
data_VESTA_phase_1

_chemical_name_common                  'Al   Mg   Hf   N '
_cell_length_a                         9.567233
_cell_length_b                         9.610192
_cell_length_c                         10.117362
_cell_angle_alpha                      90.017303
_cell_angle_beta                       90.088150
_cell_angle_gamma                      60.055199
_cell_volume                           806.040886
_space_group_name_H-M_alt              'P 1'
_space_group_IT_number                 1

loop_
_space_group_symop_operation_xyz
   'x, y, z'

loop_
   _atom_site_label
   _atom_site_occupancy
   _atom_site_fract_x
   _atom_site_fract_y
   _atom_site_fract_z
   _atom_site_adp_type
   _atom_site_U_iso_or_equiv
   _atom_site_type_symbol
   Al1        1.0     0.106930     0.101207     0.301090    Uiso  ? Al
   Al2        1.0     0.211936     0.216167     0.048458    Uiso  ? Al
   Al3        1.0     0.884433     0.207073     0.544590    Uiso  ? Al
   Al4        1.0     0.442484     0.098358     0.287086    Uiso  ? Al
   Al5        1.0     0.559753     0.211926     0.051592    Uiso  ? Al
   Al6        1.0     0.104748     0.100779     0.791797    Uiso  ? Al
   Al7        1.0     0.215521     0.213167     0.542896    Uiso  ? Al
   Al8        1.0     0.779707     0.092640     0.297442    Uiso  ? Al
   Al9        1.0     0.883269     0.212639     0.044283    Uiso  ? Al
   Al10       1.0     0.557615     0.214750     0.540107    Uiso  ? Al
   Al11       1.0     0.110631     0.429082     0.296654    Uiso  ? Al
   Al12       1.0     0.222199     0.532658     0.043964    Uiso  ? Al
   Al13       1.0     0.780485     0.425874     0.795828    Uiso  ? Al
   Al14       1.0     0.893059     0.532438     0.546327    Uiso  ? Al
   Al15       1.0     0.442505     0.429323     0.295895    Uiso  ? Al
   Al16       1.0     0.560962     0.531610     0.044137    Uiso  ? Al
   Al17       1.0     0.106506     0.433964     0.796054    Uiso  ? Al
   Al18       1.0     0.223453     0.539861     0.545086    Uiso  ? Al
   Al19       1.0     0.778230     0.427098     0.296208    Uiso  ? Al
   Al20       1.0     0.889257     0.536076     0.045540    Uiso  ? Al
   Al21       1.0     0.441467     0.432716     0.795888    Uiso  ? Al
   Al22       1.0     0.557642     0.531220     0.547019    Uiso  ? Al
   Al23       1.0     0.106845     0.756816     0.302525    Uiso  ? Al
   Al24       1.0     0.788596     0.750597     0.802074    Uiso  ? Al
   Al25       1.0     0.448871     0.753893     0.295597    Uiso  ? Al
   Al26       1.0     0.564774     0.862337     0.047171    Uiso  ? Al
   Al27       1.0     0.218449     0.870435     0.541340    Uiso  ? Al
   Al28       1.0     0.784777     0.756959     0.290028    Uiso  ? Al
   Al29       1.0     0.882629     0.871153     0.045803    Uiso  ? Al
   Al30       1.0     0.444850     0.753464     0.795570    Uiso  ? Al
   Mg1        1.0     0.782915     0.094824     0.795171    Uiso  ? Mg
   Mg2        1.0     0.892509     0.873898     0.545645    Uiso  ? Mg
   Mg3        1.0     0.107647     0.759336     0.791139    Uiso  ? Mg
   Hf1        1.0     0.445103     0.099817     0.813067    Uiso  ? Hf
   Hf2        1.0     0.218824     0.874456     0.054085    Uiso  ? Hf
   Hf3        1.0     0.559259     0.871490     0.547114    Uiso  ? Hf
   N1         1.0     0.224252     0.206009     0.352880    Uiso  ? N
   N2         1.0     0.100649     0.113610     0.112326    Uiso  ? N
   N3         1.0     0.896419     0.214142     0.858888    Uiso  ? N
   N4         1.0     0.768303     0.109686     0.592619    Uiso  ? N
   N5         1.0     0.552125     0.206749     0.347598    Uiso  ? N
   N6         1.0     0.443516     0.092689     0.092280    Uiso  ? N
   N7         1.0     0.203623     0.217345     0.859450    Uiso  ? N
   N8         1.0     0.112993     0.094590     0.599273    Uiso  ? N
   N9         1.0     0.888108     0.208232     0.354004    Uiso  ? N
   N10        1.0     0.780122     0.095669     0.105763    Uiso  ? N
   N11        1.0     0.551945     0.225698     0.867174    Uiso  ? N
   N12        1.0     0.436165     0.113403     0.604448    Uiso  ? N
   N13        1.0     0.223637     0.534701     0.353818    Uiso  ? N
   N14        1.0     0.109004     0.429016     0.107927    Uiso  ? N
   N15        1.0     0.889979     0.534508     0.857105    Uiso  ? N
   N16        1.0     0.778749     0.427324     0.604258    Uiso  ? N
   N17        1.0     0.556457     0.537336     0.356536    Uiso  ? N
   N18        1.0     0.443305     0.431654     0.107762    Uiso  ? N
   N19        1.0     0.228534     0.524498     0.857975    Uiso  ? N
   N20        1.0     0.111788     0.427359     0.604247    Uiso  ? N
   N21        1.0     0.888792     0.538218     0.354911    Uiso  ? N
   N22        1.0     0.776498     0.428849     0.106364    Uiso  ? N
   N23        1.0     0.555969     0.538266     0.854194    Uiso  ? N
   N24        1.0     0.443656     0.428153     0.604075    Uiso  ? N
   N25        1.0     0.223838     0.873236     0.343081    Uiso  ? N
   N26        1.0     0.104382     0.749267     0.108596    Uiso  ? N
   N27        1.0     0.878813     0.867100     0.862971    Uiso  ? N
   N28        1.0     0.787604     0.742372     0.613361    Uiso  ? N
   N29        1.0     0.555973     0.872863     0.340661    Uiso  ? N
   N30        1.0     0.461265     0.748969     0.107184    Uiso  ? N
   N31        1.0     0.229470     0.883724     0.851625    Uiso  ? N
   N32        1.0     0.126715     0.752824     0.589894    Uiso  ? N
   N33        1.0     0.885466     0.872057     0.340122    Uiso  ? N
   N34        1.0     0.778842     0.754731     0.103585    Uiso  ? N
   N35        1.0     0.564075     0.852499     0.854293    Uiso  ? N
   N36        1.0     0.440133     0.752555     0.604485    Uiso  ? N
