
#======================================================================
# CRYSTAL DATA
#----------------------------------------------------------------------
data_VESTA_phase_1

_chemical_name_common                  'Al   Mg   Hf   N                      '
_cell_length_a                         9.569006
_cell_length_b                         9.612900
_cell_length_c                         10.117894
_cell_angle_alpha                      90.017982
_cell_angle_beta                       90.089928
_cell_angle_gamma                      60.055126
_cell_volume                           806.459167
_space_group_name_H-M_alt              'P 1'
_space_group_IT_number                 1

loop_
_space_group_symop_operation_xyz
   'x, y, z'

loop_
   _atom_site_label
   _atom_site_occupancy
   _atom_site_fract_x
   _atom_site_fract_y
   _atom_site_fract_z
   _atom_site_adp_type
   _atom_site_U_iso_or_equiv
   _atom_site_type_symbol
   Al1        1.0     0.106949     0.101198     0.304370    Uiso  ? Al
   Al2        1.0     0.211952     0.216151     0.051729    Uiso  ? Al
   Al3        1.0     0.884438     0.207086     0.547866    Uiso  ? Al
   Al4        1.0     0.442498     0.098350     0.290360    Uiso  ? Al
   Al5        1.0     0.559771     0.211935     0.054876    Uiso  ? Al
   Al6        1.0     0.104773     0.100792     0.795079    Uiso  ? Al
   Al7        1.0     0.215530     0.213184     0.546178    Uiso  ? Al
   Al8        1.0     0.779724     0.092621     0.300705    Uiso  ? Al
   Al9        1.0     0.883300     0.212633     0.047560    Uiso  ? Al
   Al10       1.0     0.557621     0.214774     0.543380    Uiso  ? Al
   Al11       1.0     0.110643     0.429067     0.299935    Uiso  ? Al
   Al12       1.0     0.222205     0.532641     0.047240    Uiso  ? Al
   Al13       1.0     0.780498     0.425879     0.799104    Uiso  ? Al
   Al14       1.0     0.893053     0.532449     0.549608    Uiso  ? Al
   Al15       1.0     0.442507     0.429319     0.299177    Uiso  ? Al
   Al16       1.0     0.560978     0.531598     0.047415    Uiso  ? Al
   Al17       1.0     0.106514     0.433966     0.799333    Uiso  ? Al
   Al18       1.0     0.223447     0.539886     0.548375    Uiso  ? Al
   Al19       1.0     0.778248     0.427076     0.299492    Uiso  ? Al
   Al20       1.0     0.889265     0.536058     0.048818    Uiso  ? Al
   Al21       1.0     0.441461     0.432737     0.799173    Uiso  ? Al
   Al22       1.0     0.557645     0.531226     0.550309    Uiso  ? Al
   Al23       1.0     0.106834     0.756795     0.305791    Uiso  ? Al
   Al24       1.0     0.788570     0.750596     0.805346    Uiso  ? Al
   Al25       1.0     0.448889     0.753862     0.298876    Uiso  ? Al
   Al26       1.0     0.564772     0.862316     0.050438    Uiso  ? Al
   Al27       1.0     0.218443     0.870424     0.544619    Uiso  ? Al
   Al28       1.0     0.784781     0.756937     0.293300    Uiso  ? Al
   Al29       1.0     0.882620     0.871131     0.049067    Uiso  ? Al
   Al30       1.0     0.444834     0.753478     0.798860    Uiso  ? Al
   Mg1        1.0     0.782911     0.094861     0.798462    Uiso  ? Mg
   Mg2        1.0     0.892483     0.873926     0.548933    Uiso  ? Mg
   Mg3        1.0     0.107614     0.759352     0.794437    Uiso  ? Mg
   Hf1        1.0     0.445128     0.099829     0.816353    Uiso  ? Hf
   Hf2        1.0     0.218831     0.874445     0.057392    Uiso  ? Hf
   Hf3        1.0     0.559221     0.871506     0.550405    Uiso  ? Hf
   N1         1.0     0.224260     0.206009     0.356149    Uiso  ? N
   N2         1.0     0.100686     0.113583     0.115589    Uiso  ? N
   N3         1.0     0.896439     0.214167     0.862152    Uiso  ? N
   N4         1.0     0.768308     0.109716     0.595882    Uiso  ? N
   N5         1.0     0.552131     0.206753     0.350854    Uiso  ? N
   N6         1.0     0.443542     0.092670     0.095542    Uiso  ? N
   N7         1.0     0.203655     0.217357     0.862704    Uiso  ? N
   N8         1.0     0.113015     0.094586     0.602538    Uiso  ? N
   N9         1.0     0.888124     0.208221     0.357268    Uiso  ? N
   N10        1.0     0.780152     0.095654     0.109013    Uiso  ? N
   N11        1.0     0.551923     0.225744     0.870447    Uiso  ? N
   N12        1.0     0.436193     0.113408     0.607717    Uiso  ? N
   N13        1.0     0.223632     0.534701     0.357091    Uiso  ? N
   N14        1.0     0.109020     0.428991     0.111192    Uiso  ? N
   N15        1.0     0.889980     0.534519     0.860370    Uiso  ? N
   N16        1.0     0.778762     0.427322     0.607527    Uiso  ? N
   N17        1.0     0.556470     0.537321     0.359813    Uiso  ? N
   N18        1.0     0.443321     0.431648     0.111035    Uiso  ? N
   N19        1.0     0.228526     0.524508     0.861242    Uiso  ? N
   N20        1.0     0.111788     0.427371     0.607516    Uiso  ? N
   N21        1.0     0.888802     0.538203     0.358176    Uiso  ? N
   N22        1.0     0.776518     0.428827     0.109633    Uiso  ? N
   N23        1.0     0.555970     0.538282     0.857461    Uiso  ? N
   N24        1.0     0.443659     0.428165     0.607343    Uiso  ? N
   N25        1.0     0.223838     0.873214     0.346330    Uiso  ? N
   N26        1.0     0.104389     0.749243     0.111841    Uiso  ? N
   N27        1.0     0.878751     0.867125     0.866221    Uiso  ? N
   N28        1.0     0.787570     0.742374     0.616612    Uiso  ? N
   N29        1.0     0.555970     0.872851     0.343940    Uiso  ? N
   N30        1.0     0.461275     0.748941     0.110448    Uiso  ? N
   N31        1.0     0.229457     0.883749     0.854928    Uiso  ? N
   N32        1.0     0.126704     0.752836     0.593170    Uiso  ? N
   N33        1.0     0.885458     0.872046     0.343370    Uiso  ? N
   N34        1.0     0.778847     0.754700     0.106843    Uiso  ? N
   N35        1.0     0.564046     0.852532     0.857541    Uiso  ? N
   N36        1.0     0.440134     0.752552     0.607754    Uiso  ? N
