
#======================================================================
# CRYSTAL DATA
#----------------------------------------------------------------------
data_VESTA_phase_1

_chemical_name_common                  'Al   Mg   Hf   N                      '
_cell_length_a                         9.887345
_cell_length_b                         9.941892
_cell_length_c                         9.196374
_cell_angle_alpha                      89.917526
_cell_angle_beta                       90.034065
_cell_angle_gamma                      60.064941
_cell_volume                           783.391512
_space_group_name_H-M_alt              'P 1'
_space_group_IT_number                 1

loop_
_space_group_symop_operation_xyz
   'x, y, z'

loop_
   _atom_site_label
   _atom_site_occupancy
   _atom_site_fract_x
   _atom_site_fract_y
   _atom_site_fract_z
   _atom_site_adp_type
   _atom_site_U_iso_or_equiv
   _atom_site_type_symbol
   Al1        1.0     0.105059     0.103450     0.345140    Uiso  ? Al
   Al2        1.0     0.206986     0.217013     0.091982    Uiso  ? Al
   Al3        1.0     0.882801     0.210642     0.585981    Uiso  ? Al
   Al4        1.0     0.442456     0.097371     0.323644    Uiso  ? Al
   Al5        1.0     0.563093     0.214996     0.099047    Uiso  ? Al
   Al6        1.0     0.107951     0.100641     0.824241    Uiso  ? Al
   Al7        1.0     0.219594     0.212682     0.576120    Uiso  ? Al
   Al8        1.0     0.782843     0.092165     0.347110    Uiso  ? Al
   Al9        1.0     0.884303     0.210798     0.077353    Uiso  ? Al
   Al10       1.0     0.554400     0.214692     0.571514    Uiso  ? Al
   Al11       1.0     0.111672     0.431144     0.332998    Uiso  ? Al
   Al12       1.0     0.221424     0.535311     0.076888    Uiso  ? Al
   Al13       1.0     0.780577     0.428034     0.831970    Uiso  ? Al
   Al14       1.0     0.893182     0.529697     0.577722    Uiso  ? Al
   Al15       1.0     0.438831     0.433471     0.333140    Uiso  ? Al
   Al16       1.0     0.560553     0.532166     0.080658    Uiso  ? Al
   Al17       1.0     0.105650     0.431415     0.831009    Uiso  ? Al
   Al18       1.0     0.224356     0.536893     0.587598    Uiso  ? Al
   Al19       1.0     0.778763     0.425132     0.331300    Uiso  ? Al
   Al20       1.0     0.889289     0.535855     0.085634    Uiso  ? Al
   Al21       1.0     0.443319     0.430475     0.831016    Uiso  ? Al
   Al22       1.0     0.558978     0.529650     0.582828    Uiso  ? Al
   Al23       1.0     0.107013     0.755924     0.359060    Uiso  ? Al
   Al24       1.0     0.789510     0.748215     0.837993    Uiso  ? Al
   Al25       1.0     0.451030     0.751983     0.337240    Uiso  ? Al
   Al26       1.0     0.564903     0.860116     0.092451    Uiso  ? Al
   Al27       1.0     0.221258     0.870469     0.580978    Uiso  ? Al
   Al28       1.0     0.787004     0.756488     0.331394    Uiso  ? Al
   Al29       1.0     0.883915     0.872586     0.086384    Uiso  ? Al
   Al30       1.0     0.444190     0.752831     0.833418    Uiso  ? Al
   Mg1        1.0     0.778588     0.096831     0.834769    Uiso  ? Mg
   Mg2        1.0     0.889321     0.874628     0.597424    Uiso  ? Mg
   Mg3        1.0     0.108821     0.759415     0.832535    Uiso  ? Mg
   Hf1        1.0     0.442675     0.102572     0.861805    Uiso  ? Hf
   Hf2        1.0     0.217992     0.874596     0.101104    Uiso  ? Hf
   Hf3        1.0     0.558655     0.870310     0.594946    Uiso  ? Hf
   N1         1.0     0.224751     0.207594     0.367870    Uiso  ? N
   N2         1.0     0.097425     0.113857     0.134282    Uiso  ? N
   N3         1.0     0.896815     0.213405     0.869546    Uiso  ? N
   N4         1.0     0.766265     0.110908     0.601747    Uiso  ? N
   N5         1.0     0.549247     0.208873     0.358793    Uiso  ? N
   N6         1.0     0.442719     0.089535     0.112275    Uiso  ? N
   N7         1.0     0.202406     0.217912     0.880418    Uiso  ? N
   N8         1.0     0.115735     0.094453     0.612858    Uiso  ? N
   N9         1.0     0.888594     0.210885     0.377986    Uiso  ? N
   N10        1.0     0.782678     0.096526     0.129590    Uiso  ? N
   N11        1.0     0.551125     0.226079     0.890584    Uiso  ? N
   N12        1.0     0.437113     0.114064     0.624677    Uiso  ? N
   N13        1.0     0.223416     0.533791     0.377186    Uiso  ? N
   N14        1.0     0.109678     0.430647     0.126656    Uiso  ? N
   N15        1.0     0.890382     0.534515     0.878205    Uiso  ? N
   N16        1.0     0.777545     0.429373     0.623665    Uiso  ? N
   N17        1.0     0.557880     0.535496     0.375444    Uiso  ? N
   N18        1.0     0.440663     0.436119     0.127475    Uiso  ? N
   N19        1.0     0.228400     0.523538     0.869324    Uiso  ? N
   N20        1.0     0.110340     0.425527     0.621496    Uiso  ? N
   N21        1.0     0.890012     0.535690     0.369678    Uiso  ? N
   N22        1.0     0.776569     0.427073     0.123459    Uiso  ? N
   N23        1.0     0.555920     0.537815     0.872004    Uiso  ? N
   N24        1.0     0.445728     0.426313     0.621256    Uiso  ? N
   N25        1.0     0.225739     0.874257     0.361912    Uiso  ? N
   N26        1.0     0.105637     0.749517     0.125843    Uiso  ? N
   N27        1.0     0.877625     0.867923     0.876647    Uiso  ? N
   N28        1.0     0.789899     0.738403     0.624936    Uiso  ? N
   N29        1.0     0.555346     0.873803     0.363154    Uiso  ? N
   N30        1.0     0.461904     0.747674     0.126487    Uiso  ? N
   N31        1.0     0.229263     0.884345     0.870228    Uiso  ? N
   N32        1.0     0.125724     0.753906     0.599555    Uiso  ? N
   N33        1.0     0.886540     0.871325     0.360384    Uiso  ? N
   N34        1.0     0.778578     0.754712     0.123749    Uiso  ? N
   N35        1.0     0.563519     0.854179     0.864289    Uiso  ? N
   N36        1.0     0.440186     0.749109     0.619508    Uiso  ? N
