
#======================================================================
# CRYSTAL DATA
#----------------------------------------------------------------------
data_VESTA_phase_1

_chemical_name_common                  'Al   Mg   Hf   N                      '
_cell_length_a                         9.657584
_cell_length_b                         9.685795
_cell_length_c                         10.086620
_cell_angle_alpha                      89.908836
_cell_angle_beta                       89.897415
_cell_angle_gamma                      60.136631
_cell_volume                           818.230231
_space_group_name_H-M_alt              'P 1'
_space_group_IT_number                 1

loop_
_space_group_symop_operation_xyz
   'x, y, z'

loop_
   _atom_site_label
   _atom_site_occupancy
   _atom_site_fract_x
   _atom_site_fract_y
   _atom_site_fract_z
   _atom_site_adp_type
   _atom_site_U_iso_or_equiv
   _atom_site_type_symbol
   Al1        1.0     0.104279     0.101886     0.392508    Uiso  ? Al
   Al2        1.0     0.224569     0.203599     0.141671    Uiso  ? Al
   Al3        1.0     0.771377     0.111851     0.892241    Uiso  ? Al
   Al4        1.0     0.890857     0.212025     0.643137    Uiso  ? Al
   Al5        1.0     0.443322     0.100093     0.391822    Uiso  ? Al
   Al6        1.0     0.548093     0.210775     0.142195    Uiso  ? Al
   Al7        1.0     0.111946     0.096234     0.892316    Uiso  ? Al
   Al8        1.0     0.217278     0.202218     0.644641    Uiso  ? Al
   Al9        1.0     0.774644     0.102373     0.389068    Uiso  ? Al
   Al10       1.0     0.888378     0.214191     0.141601    Uiso  ? Al
   Al11       1.0     0.556813     0.207545     0.643592    Uiso  ? Al
   Al12       1.0     0.108456     0.421999     0.386837    Uiso  ? Al
   Al13       1.0     0.227280     0.531135     0.145629    Uiso  ? Al
   Al14       1.0     0.781412     0.426066     0.889688    Uiso  ? Al
   Al15       1.0     0.886407     0.530971     0.643189    Uiso  ? Al
   Al16       1.0     0.453095     0.418950     0.387024    Uiso  ? Al
   Al17       1.0     0.560220     0.532409     0.134175    Uiso  ? Al
   Al18       1.0     0.110202     0.419595     0.893130    Uiso  ? Al
   Al19       1.0     0.782006     0.421956     0.393409    Uiso  ? Al
   Al20       1.0     0.888549     0.533444     0.142875    Uiso  ? Al
   Al21       1.0     0.448740     0.423743     0.893602    Uiso  ? Al
   Al22       1.0     0.563691     0.536510     0.647294    Uiso  ? Al
   Al23       1.0     0.106584     0.764571     0.382661    Uiso  ? Al
   Al24       1.0     0.220747     0.877586     0.132471    Uiso  ? Al
   Al25       1.0     0.552312     0.877776     0.139891    Uiso  ? Al
   Al26       1.0     0.779351     0.757880     0.389863    Uiso  ? Al
   Al27       1.0     0.443894     0.764424     0.893941    Uiso  ? Al
   Al28       1.0     0.550910     0.869877     0.646187    Uiso  ? Al
   Mg1        1.0     0.443843     0.094252     0.886546    Uiso  ? Mg
   Mg2        1.0     0.771174     0.751626     0.890689    Uiso  ? Mg
   Mg3        1.0     0.123835     0.753944     0.896447    Uiso  ? Mg
   Mg4        1.0     0.225457     0.880912     0.650596    Uiso  ? Mg
   Hf1        1.0     0.227031     0.530840     0.632781    Uiso  ? Hf
   Hf2        1.0     0.881045     0.879563     0.650136    Uiso  ? Hf
   Hf3        1.0     0.444397     0.758856     0.378747    Uiso  ? Hf
   Hf4        1.0     0.884753     0.876150     0.124816    Uiso  ? Hf
   N1         1.0     0.222615     0.204054     0.333095    Uiso  ? N
   N2         1.0     0.107247     0.099764     0.085987    Uiso  ? N
   N3         1.0     0.889662     0.207505     0.833099    Uiso  ? N
   N4         1.0     0.771829     0.111026     0.578612    Uiso  ? N
   N5         1.0     0.556310     0.205000     0.333205    Uiso  ? N
   N6         1.0     0.445001     0.095626     0.095184    Uiso  ? N
   N7         1.0     0.208187     0.211531     0.830632    Uiso  ? N
   N8         1.0     0.101547     0.108473     0.578287    Uiso  ? N
   N9         1.0     0.887453     0.207965     0.331606    Uiso  ? N
   N10        1.0     0.764892     0.120956     0.083771    Uiso  ? N
   N11        1.0     0.562684     0.215470     0.828486    Uiso  ? N
   N12        1.0     0.444297     0.096403     0.584332    Uiso  ? N
   N13        1.0     0.225392     0.534640     0.342265    Uiso  ? N
   N14        1.0     0.110856     0.427071     0.088289    Uiso  ? N
   N15        1.0     0.898101     0.522493     0.828960    Uiso  ? N
   N16        1.0     0.776446     0.427151     0.582809    Uiso  ? N
   N17        1.0     0.567853     0.518370     0.325236    Uiso  ? N
   N18        1.0     0.443175     0.427641     0.085295    Uiso  ? N
   N19        1.0     0.230952     0.519401     0.836214    Uiso  ? N
   N20        1.0     0.101814     0.419002     0.575440    Uiso  ? N
   N21        1.0     0.887569     0.536690     0.334258    Uiso  ? N
   N22        1.0     0.779218     0.428202     0.080995    Uiso  ? N
   N23        1.0     0.555103     0.539068     0.838927    Uiso  ? N
   N24        1.0     0.464894     0.420267     0.576135    Uiso  ? N
   N25        1.0     0.203099     0.885706     0.328276    Uiso  ? N
   N26        1.0     0.127431     0.748336     0.102502    Uiso  ? N
   N27        1.0     0.880733     0.888747     0.856939    Uiso  ? N
   N28        1.0     0.772783     0.751705     0.581189    Uiso  ? N
   N29        1.0     0.562448     0.882226     0.333233    Uiso  ? N
   N30        1.0     0.446770     0.759559     0.098000    Uiso  ? N
   N31        1.0     0.228793     0.879734     0.853066    Uiso  ? N
   N32        1.0     0.108579     0.765398     0.573697    Uiso  ? N
   N33        1.0     0.883454     0.876845     0.340481    Uiso  ? N
   N34        1.0     0.769963     0.749947     0.096507    Uiso  ? N
   N35        1.0     0.548088     0.864503     0.827493    Uiso  ? N
   N36        1.0     0.458511     0.748551     0.581150    Uiso  ? N
