
#======================================================================
# CRYSTAL DATA
#----------------------------------------------------------------------
data_VESTA_phase_1

_chemical_name_common                  'Al   Mg   Hf   N                      '
_cell_length_a                         10.120023
_cell_length_b                         10.165178
_cell_length_c                         8.732812
_cell_angle_alpha                      89.938164
_cell_angle_beta                       89.926895
_cell_angle_gamma                      60.064888
_cell_volume                           778.510391
_space_group_name_H-M_alt              'P 1'
_space_group_IT_number                 1

loop_
_space_group_symop_operation_xyz
   'x, y, z'

loop_
   _atom_site_label
   _atom_site_occupancy
   _atom_site_fract_x
   _atom_site_fract_y
   _atom_site_fract_z
   _atom_site_adp_type
   _atom_site_U_iso_or_equiv
   _atom_site_type_symbol
   Al1        1.0     0.106856     0.098967     0.346401    Uiso  ? Al
   Al2        1.0     0.223444     0.200934     0.093944    Uiso  ? Al
   Al3        1.0     0.773807     0.110692     0.841515    Uiso  ? Al
   Al4        1.0     0.888744     0.215190     0.588099    Uiso  ? Al
   Al5        1.0     0.445594     0.097343     0.350120    Uiso  ? Al
   Al6        1.0     0.552727     0.207056     0.087975    Uiso  ? Al
   Al7        1.0     0.108840     0.099670     0.838941    Uiso  ? Al
   Al8        1.0     0.220625     0.202996     0.593019    Uiso  ? Al
   Al9        1.0     0.770159     0.110741     0.346368    Uiso  ? Al
   Al10       1.0     0.890648     0.209926     0.092604    Uiso  ? Al
   Al11       1.0     0.553393     0.208417     0.595760    Uiso  ? Al
   Al12       1.0     0.108836     0.422278     0.338425    Uiso  ? Al
   Al13       1.0     0.226057     0.532434     0.096418    Uiso  ? Al
   Al14       1.0     0.781765     0.423770     0.844778    Uiso  ? Al
   Al15       1.0     0.886507     0.531182     0.595877    Uiso  ? Al
   Al16       1.0     0.450841     0.421419     0.332702    Uiso  ? Al
   Al17       1.0     0.558719     0.537287     0.085893    Uiso  ? Al
   Al18       1.0     0.108780     0.418452     0.859207    Uiso  ? Al
   Al19       1.0     0.779866     0.424478     0.337221    Uiso  ? Al
   Al20       1.0     0.887445     0.533985     0.091608    Uiso  ? Al
   Al21       1.0     0.452500     0.423247     0.853967    Uiso  ? Al
   Al22       1.0     0.564868     0.531590     0.604675    Uiso  ? Al
   Al23       1.0     0.116010     0.759738     0.348746    Uiso  ? Al
   Al24       1.0     0.222852     0.878543     0.090852    Uiso  ? Al
   Al25       1.0     0.550529     0.875247     0.075388    Uiso  ? Al
   Al26       1.0     0.773616     0.755415     0.351847    Uiso  ? Al
   Al27       1.0     0.443327     0.760780     0.843670    Uiso  ? Al
   Al28       1.0     0.553125     0.874355     0.616987    Uiso  ? Al
   Mg1        1.0     0.440206     0.100314     0.847024    Uiso  ? Mg
   Mg2        1.0     0.776076     0.749826     0.849614    Uiso  ? Mg
   Mg3        1.0     0.120726     0.759830     0.856791    Uiso  ? Mg
   Mg4        1.0     0.220166     0.881125     0.611036    Uiso  ? Mg
   Hf1        1.0     0.227256     0.527448     0.605279    Uiso  ? Hf
   Hf2        1.0     0.881304     0.877774     0.604898    Uiso  ? Hf
   Hf3        1.0     0.446044     0.760877     0.356289    Uiso  ? Hf
   Hf4        1.0     0.884391     0.876255     0.099699    Uiso  ? Hf
   N1         1.0     0.222018     0.205012     0.357401    Uiso  ? N
   N2         1.0     0.107685     0.096978     0.117490    Uiso  ? N
   N3         1.0     0.889369     0.207108     0.866214    Uiso  ? N
   N4         1.0     0.770335     0.115664     0.605683    Uiso  ? N
   N5         1.0     0.553592     0.209725     0.362857    Uiso  ? N
   N6         1.0     0.447443     0.092922     0.115801    Uiso  ? N
   N7         1.0     0.209812     0.209499     0.866677    Uiso  ? N
   N8         1.0     0.100940     0.110198     0.608602    Uiso  ? N
   N9         1.0     0.887383     0.210520     0.361375    Uiso  ? N
   N10        1.0     0.769358     0.113492     0.118802    Uiso  ? N
   N11        1.0     0.563570     0.211874     0.863113    Uiso  ? N
   N12        1.0     0.442990     0.098683     0.598336    Uiso  ? N
   N13        1.0     0.227101     0.532724     0.350656    Uiso  ? N
   N14        1.0     0.110297     0.427182     0.111583    Uiso  ? N
   N15        1.0     0.896023     0.522606     0.864493    Uiso  ? N
   N16        1.0     0.778150     0.426736     0.616079    Uiso  ? N
   N17        1.0     0.564463     0.521683     0.362184    Uiso  ? N
   N18        1.0     0.446521     0.427734     0.106951    Uiso  ? N
   N19        1.0     0.230015     0.520541     0.861131    Uiso  ? N
   N20        1.0     0.101946     0.418185     0.605734    Uiso  ? N
   N21        1.0     0.887959     0.534870     0.358809    Uiso  ? N
   N22        1.0     0.776319     0.427498     0.111272    Uiso  ? N
   N23        1.0     0.557352     0.538084     0.860862    Uiso  ? N
   N24        1.0     0.461751     0.420583     0.617432    Uiso  ? N
   N25        1.0     0.209626     0.881216     0.350091    Uiso  ? N
   N26        1.0     0.124432     0.752129     0.112775    Uiso  ? N
   N27        1.0     0.878171     0.891729     0.854384    Uiso  ? N
   N28        1.0     0.774369     0.748704     0.597557    Uiso  ? N
   N29        1.0     0.560034     0.881022     0.367602    Uiso  ? N
   N30        1.0     0.447648     0.758047     0.104715    Uiso  ? N
   N31        1.0     0.227617     0.883340     0.865130    Uiso  ? N
   N32        1.0     0.112962     0.758569     0.594368    Uiso  ? N
   N33        1.0     0.885146     0.876919     0.353241    Uiso  ? N
   N34        1.0     0.768871     0.753188     0.115027    Uiso  ? N
   N35        1.0     0.547910     0.868263     0.852207    Uiso  ? N
   N36        1.0     0.457262     0.749312     0.609852    Uiso  ? N
