
#======================================================================
# CRYSTAL DATA
#----------------------------------------------------------------------
data_VESTA_phase_1

_chemical_name_common                  'Al   Mg   Hf   N                      '
_cell_length_a                         9.743099
_cell_length_b                         9.779969
_cell_length_c                         9.839865
_cell_angle_alpha                      89.915878
_cell_angle_beta                       89.927017
_cell_angle_gamma                      60.110176
_cell_volume                           812.895851
_space_group_name_H-M_alt              'P 1'
_space_group_IT_number                 1

loop_
_space_group_symop_operation_xyz
   'x, y, z'

loop_
   _atom_site_label
   _atom_site_occupancy
   _atom_site_fract_x
   _atom_site_fract_y
   _atom_site_fract_z
   _atom_site_adp_type
   _atom_site_U_iso_or_equiv
   _atom_site_type_symbol
   Al1        1.0     0.105092     0.100676     0.381121    Uiso  ? Al
   Al2        1.0     0.225251     0.202851     0.129815    Uiso  ? Al
   Al3        1.0     0.771376     0.112773     0.881369    Uiso  ? Al
   Al4        1.0     0.890479     0.212599     0.631913    Uiso  ? Al
   Al5        1.0     0.444014     0.099404     0.380426    Uiso  ? Al
   Al6        1.0     0.547994     0.210093     0.130060    Uiso  ? Al
   Al7        1.0     0.110522     0.098327     0.882147    Uiso  ? Al
   Al8        1.0     0.216712     0.202803     0.633732    Uiso  ? Al
   Al9        1.0     0.773959     0.104113     0.376548    Uiso  ? Al
   Al10       1.0     0.888676     0.214217     0.131178    Uiso  ? Al
   Al11       1.0     0.557014     0.208511     0.633004    Uiso  ? Al
   Al12       1.0     0.107324     0.420575     0.373649    Uiso  ? Al
   Al13       1.0     0.227287     0.530746     0.136330    Uiso  ? Al
   Al14       1.0     0.781633     0.425556     0.879068    Uiso  ? Al
   Al15       1.0     0.886848     0.530266     0.632457    Uiso  ? Al
   Al16       1.0     0.455132     0.418378     0.375303    Uiso  ? Al
   Al17       1.0     0.561323     0.530393     0.122415    Uiso  ? Al
   Al18       1.0     0.110888     0.419581     0.882995    Uiso  ? Al
   Al19       1.0     0.781367     0.422765     0.382632    Uiso  ? Al
   Al20       1.0     0.888137     0.533677     0.130584    Uiso  ? Al
   Al21       1.0     0.447529     0.424238     0.882566    Uiso  ? Al
   Al22       1.0     0.562804     0.537721     0.636304    Uiso  ? Al
   Al23       1.0     0.107466     0.766116     0.368967    Uiso  ? Al
   Al24       1.0     0.219897     0.877857     0.113007    Uiso  ? Al
   Al25       1.0     0.553322     0.878398     0.124654    Uiso  ? Al
   Al26       1.0     0.778151     0.757825     0.377540    Uiso  ? Al
   Al27       1.0     0.445018     0.762478     0.886292    Uiso  ? Al
   Al28       1.0     0.550639     0.869249     0.636789    Uiso  ? Al
   Mg1        1.0     0.443266     0.095554     0.873014    Uiso  ? Mg
   Mg2        1.0     0.772515     0.750765     0.875811    Uiso  ? Mg
   Mg3        1.0     0.123720     0.751605     0.881397    Uiso  ? Mg
   Mg4        1.0     0.226773     0.880463     0.641346    Uiso  ? Mg
   Hf1        1.0     0.226669     0.530178     0.615280    Uiso  ? Hf
   Hf2        1.0     0.880923     0.880633     0.633872    Uiso  ? Hf
   Hf3        1.0     0.443963     0.760039     0.362074    Uiso  ? Hf
   Hf4        1.0     0.885040     0.875420     0.110872    Uiso  ? Hf
   N1         1.0     0.223355     0.202891     0.324908    Uiso  ? N
   N2         1.0     0.106162     0.101665     0.078225    Uiso  ? N
   N3         1.0     0.889370     0.207850     0.825602    Uiso  ? N
   N4         1.0     0.771009     0.113502     0.570255    Uiso  ? N
   N5         1.0     0.555928     0.205163     0.324844    Uiso  ? N
   N6         1.0     0.444809     0.096090     0.085465    Uiso  ? N
   N7         1.0     0.207691     0.211903     0.823920    Uiso  ? N
   N8         1.0     0.101921     0.107610     0.571698    Uiso  ? N
   N9         1.0     0.887604     0.208855     0.324425    Uiso  ? N
   N10        1.0     0.765688     0.120140     0.077355    Uiso  ? N
   N11        1.0     0.562778     0.216118     0.822098    Uiso  ? N
   N12        1.0     0.444893     0.096263     0.577781    Uiso  ? N
   N13        1.0     0.225730     0.534065     0.337461    Uiso  ? N
   N14        1.0     0.111442     0.427030     0.082030    Uiso  ? N
   N15        1.0     0.898874     0.521134     0.822534    Uiso  ? N
   N16        1.0     0.775930     0.427766     0.575807    Uiso  ? N
   N17        1.0     0.568218     0.518201     0.317050    Uiso  ? N
   N18        1.0     0.442468     0.427547     0.078193    Uiso  ? N
   N19        1.0     0.231296     0.517871     0.824823    Uiso  ? N
   N20        1.0     0.100648     0.417839     0.566367    Uiso  ? N
   N21        1.0     0.886571     0.537008     0.325584    Uiso  ? N
   N22        1.0     0.779513     0.427548     0.073291    Uiso  ? N
   N23        1.0     0.554579     0.539261     0.832533    Uiso  ? N
   N24        1.0     0.465902     0.420394     0.568513    Uiso  ? N
   N25        1.0     0.202906     0.886503     0.317161    Uiso  ? N
   N26        1.0     0.126804     0.746849     0.094784    Uiso  ? N
   N27        1.0     0.880313     0.889884     0.846930    Uiso  ? N
   N28        1.0     0.772289     0.750982     0.574461    Uiso  ? N
   N29        1.0     0.562573     0.883013     0.323273    Uiso  ? N
   N30        1.0     0.448257     0.757960     0.092542    Uiso  ? N
   N31        1.0     0.228721     0.879627     0.852868    Uiso  ? N
   N32        1.0     0.110519     0.766068     0.566450    Uiso  ? N
   N33        1.0     0.883037     0.877379     0.334259    Uiso  ? N
   N34        1.0     0.771176     0.749712     0.087175    Uiso  ? N
   N35        1.0     0.546976     0.864359     0.823381    Uiso  ? N
   N36        1.0     0.458406     0.749234     0.571523    Uiso  ? N
