
#======================================================================
# CRYSTAL DATA
#----------------------------------------------------------------------
data_VESTA_phase_1

_chemical_name_common                  'Al   Mg   Hf   N                      '
_cell_length_a                         9.663461
_cell_length_b                         9.689672
_cell_length_c                         10.104131
_cell_angle_alpha                      89.956055
_cell_angle_beta                       89.903694
_cell_angle_gamma                      60.049557
_cell_volume                           819.761221
_space_group_name_H-M_alt              'P 1'
_space_group_IT_number                 1

loop_
_space_group_symop_operation_xyz
   'x, y, z'

loop_
   _atom_site_label
   _atom_site_occupancy
   _atom_site_fract_x
   _atom_site_fract_y
   _atom_site_fract_z
   _atom_site_adp_type
   _atom_site_U_iso_or_equiv
   _atom_site_type_symbol
   Al1        1.0     0.105409     0.098357     0.308542    Uiso  ? Al
   Al2        1.0     0.221167     0.204875     0.058707    Uiso  ? Al
   Al3        1.0     0.773027     0.107735     0.813973    Uiso  ? Al
   Al4        1.0     0.890458     0.213732     0.563791    Uiso  ? Al
   Al5        1.0     0.443757     0.099838     0.311185    Uiso  ? Al
   Al6        1.0     0.550815     0.211739     0.058070    Uiso  ? Al
   Al7        1.0     0.110749     0.099378     0.812565    Uiso  ? Al
   Al8        1.0     0.220900     0.200704     0.560603    Uiso  ? Al
   Al9        1.0     0.773031     0.107007     0.309427    Uiso  ? Al
   Al10       1.0     0.888841     0.212225     0.057413    Uiso  ? Al
   Al11       1.0     0.554750     0.206714     0.560699    Uiso  ? Al
   Al12       1.0     0.109653     0.423802     0.305786    Uiso  ? Al
   Al13       1.0     0.228330     0.528844     0.053474    Uiso  ? Al
   Al14       1.0     0.780326     0.427100     0.813024    Uiso  ? Al
   Al15       1.0     0.885126     0.533358     0.560362    Uiso  ? Al
   Al16       1.0     0.448556     0.421041     0.305156    Uiso  ? Al
   Al17       1.0     0.557077     0.537273     0.055930    Uiso  ? Al
   Al18       1.0     0.108766     0.418378     0.817963    Uiso  ? Al
   Al19       1.0     0.782363     0.421146     0.309556    Uiso  ? Al
   Al20       1.0     0.888892     0.531244     0.058336    Uiso  ? Al
   Al21       1.0     0.452429     0.422864     0.817698    Uiso  ? Al
   Al22       1.0     0.566368     0.532507     0.567799    Uiso  ? Al
   Al23       1.0     0.114691     0.758500     0.301923    Uiso  ? Al
   Al24       1.0     0.226544     0.876206     0.052541    Uiso  ? Al
   Al25       1.0     0.549366     0.872357     0.053268    Uiso  ? Al
   Al26       1.0     0.777762     0.755003     0.310109    Uiso  ? Al
   Al27       1.0     0.446567     0.762900     0.808973    Uiso  ? Al
   Al28       1.0     0.553858     0.876180     0.564987    Uiso  ? Al
   Mg1        1.0     0.443421     0.095712     0.814767    Uiso  ? Mg
   Mg2        1.0     0.774343     0.754800     0.812792    Uiso  ? Mg
   Mg3        1.0     0.116384     0.760400     0.821075    Uiso  ? Mg
   Mg4        1.0     0.220983     0.882016     0.571389    Uiso  ? Mg
   Hf1        1.0     0.227436     0.529521     0.569801    Uiso  ? Hf
   Hf2        1.0     0.882449     0.879638     0.560739    Uiso  ? Hf
   Hf3        1.0     0.443945     0.759905     0.322844    Uiso  ? Hf
   Hf4        1.0     0.883121     0.876508     0.063891    Uiso  ? Hf
   N1         1.0     0.220386     0.205401     0.366298    Uiso  ? N
   N2         1.0     0.108389     0.095244     0.118981    Uiso  ? N
   N3         1.0     0.888253     0.208388     0.869935    Uiso  ? N
   N4         1.0     0.769023     0.116063     0.620598    Uiso  ? N
   N5         1.0     0.555430     0.207528     0.368435    Uiso  ? N
   N6         1.0     0.445502     0.094786     0.119602    Uiso  ? N
   N7         1.0     0.209866     0.209778     0.875389    Uiso  ? N
   N8         1.0     0.101005     0.111901     0.623530    Uiso  ? N
   N9         1.0     0.888956     0.206557     0.371148    Uiso  ? N
   N10        1.0     0.768409     0.115741     0.123015    Uiso  ? N
   N11        1.0     0.563453     0.213293     0.874599    Uiso  ? N
   N12        1.0     0.443606     0.098060     0.605028    Uiso  ? N
   N13        1.0     0.223481     0.536585     0.359490    Uiso  ? N
   N14        1.0     0.110576     0.427972     0.118580    Uiso  ? N
   N15        1.0     0.895255     0.523845     0.873954    Uiso  ? N
   N16        1.0     0.779492     0.427540     0.621391    Uiso  ? N
   N17        1.0     0.565385     0.518005     0.373868    Uiso  ? N
   N18        1.0     0.444446     0.429353     0.117665    Uiso  ? N
   N19        1.0     0.231674     0.518567     0.863923    Uiso  ? N
   N20        1.0     0.100808     0.418468     0.622162    Uiso  ? N
   N21        1.0     0.889359     0.535016     0.367483    Uiso  ? N
   N22        1.0     0.775723     0.427635     0.120663    Uiso  ? N
   N23        1.0     0.556047     0.539862     0.867354    Uiso  ? N
   N24        1.0     0.464386     0.418733     0.625421    Uiso  ? N
   N25        1.0     0.203710     0.881129     0.361003    Uiso  ? N
   N26        1.0     0.128355     0.750648     0.111183    Uiso  ? N
   N27        1.0     0.876954     0.891481     0.863391    Uiso  ? N
   N28        1.0     0.773980     0.751614     0.605069    Uiso  ? N
   N29        1.0     0.562814     0.882221     0.370513    Uiso  ? N
   N30        1.0     0.444170     0.758154     0.116549    Uiso  ? N
   N31        1.0     0.230070     0.881592     0.866880    Uiso  ? N
   N32        1.0     0.110606     0.759924     0.617469    Uiso  ? N
   N33        1.0     0.888312     0.873354     0.345870    Uiso  ? N
   N34        1.0     0.768203     0.749846     0.121318    Uiso  ? N
   N35        1.0     0.548589     0.865593     0.872742    Uiso  ? N
   N36        1.0     0.460081     0.751725     0.610416    Uiso  ? N
