
#======================================================================
# CRYSTAL DATA
#----------------------------------------------------------------------
data_VESTA_phase_1

_chemical_name_common                  'Al   Mg   Hf   N                      '
_cell_length_a                         10.155352
_cell_length_b                         10.200092
_cell_length_c                         8.632644
_cell_angle_alpha                      89.942261
_cell_angle_beta                       89.921867
_cell_angle_gamma                      60.087383
_cell_volume                           775.094791
_space_group_name_H-M_alt              'P 1'
_space_group_IT_number                 1

loop_
_space_group_symop_operation_xyz
   'x, y, z'

loop_
   _atom_site_label
   _atom_site_occupancy
   _atom_site_fract_x
   _atom_site_fract_y
   _atom_site_fract_z
   _atom_site_adp_type
   _atom_site_U_iso_or_equiv
   _atom_site_type_symbol
   Al1        1.0     0.107109     0.100232     0.360571    Uiso  ? Al
   Al2        1.0     0.225109     0.199596     0.105973    Uiso  ? Al
   Al3        1.0     0.773394     0.110518     0.860674    Uiso  ? Al
   Al4        1.0     0.888746     0.213704     0.609272    Uiso  ? Al
   Al5        1.0     0.444561     0.097573     0.354076    Uiso  ? Al
   Al6        1.0     0.550981     0.207161     0.104016    Uiso  ? Al
   Al7        1.0     0.108973     0.098346     0.857874    Uiso  ? Al
   Al8        1.0     0.219293     0.204317     0.614445    Uiso  ? Al
   Al9        1.0     0.770221     0.111102     0.353884    Uiso  ? Al
   Al10       1.0     0.890798     0.211353     0.110355    Uiso  ? Al
   Al11       1.0     0.554744     0.208384     0.611840    Uiso  ? Al
   Al12       1.0     0.107791     0.420305     0.347049    Uiso  ? Al
   Al13       1.0     0.226152     0.532929     0.106223    Uiso  ? Al
   Al14       1.0     0.782050     0.423495     0.862861    Uiso  ? Al
   Al15       1.0     0.888220     0.530619     0.614139    Uiso  ? Al
   Al16       1.0     0.452737     0.421016     0.345736    Uiso  ? Al
   Al17       1.0     0.560053     0.535198     0.099502    Uiso  ? Al
   Al18       1.0     0.109685     0.419722     0.875140    Uiso  ? Al
   Al19       1.0     0.780070     0.425044     0.358771    Uiso  ? Al
   Al20       1.0     0.886288     0.534844     0.106763    Uiso  ? Al
   Al21       1.0     0.450133     0.423855     0.869204    Uiso  ? Al
   Al22       1.0     0.563771     0.533051     0.621237    Uiso  ? Al
   Al23       1.0     0.115871     0.760811     0.349190    Uiso  ? Al
   Al24       1.0     0.221885     0.878126     0.093851    Uiso  ? Al
   Al25       1.0     0.551009     0.875488     0.079082    Uiso  ? Al
   Al26       1.0     0.773579     0.754525     0.353849    Uiso  ? Al
   Al27       1.0     0.442817     0.761327     0.851555    Uiso  ? Al
   Al28       1.0     0.553118     0.873791     0.618667    Uiso  ? Al
   Mg1        1.0     0.441613     0.099317     0.852954    Uiso  ? Mg
   Mg2        1.0     0.775639     0.750219     0.852682    Uiso  ? Mg
   Mg3        1.0     0.121300     0.758654     0.856976    Uiso  ? Mg
   Mg4        1.0     0.220213     0.881782     0.614616    Uiso  ? Mg
   Hf1        1.0     0.227011     0.527342     0.603664    Uiso  ? Hf
   Hf2        1.0     0.880773     0.879003     0.605275    Uiso  ? Hf
   Hf3        1.0     0.446022     0.760735     0.355122    Uiso  ? Hf
   Hf4        1.0     0.885234     0.874739     0.100722    Uiso  ? Hf
   N1         1.0     0.223018     0.202817     0.341995    Uiso  ? N
   N2         1.0     0.107139     0.097695     0.099970    Uiso  ? N
   N3         1.0     0.888590     0.207815     0.848717    Uiso  ? N
   N4         1.0     0.769769     0.115268     0.592152    Uiso  ? N
   N5         1.0     0.554457     0.207524     0.345351    Uiso  ? N
   N6         1.0     0.447290     0.092175     0.108927    Uiso  ? N
   N7         1.0     0.209442     0.211661     0.852434    Uiso  ? N
   N8         1.0     0.101623     0.109843     0.596419    Uiso  ? N
   N9         1.0     0.888077     0.210199     0.346190    Uiso  ? N
   N10        1.0     0.770296     0.113120     0.104300    Uiso  ? N
   N11        1.0     0.562290     0.214063     0.850919    Uiso  ? N
   N12        1.0     0.443027     0.099295     0.594225    Uiso  ? N
   N13        1.0     0.226577     0.533652     0.344604    Uiso  ? N
   N14        1.0     0.110185     0.426982     0.105798    Uiso  ? N
   N15        1.0     0.898034     0.521839     0.850292    Uiso  ? N
   N16        1.0     0.776421     0.428270     0.598195    Uiso  ? N
   N17        1.0     0.565226     0.523738     0.339390    Uiso  ? N
   N18        1.0     0.445371     0.427197     0.101380    Uiso  ? N
   N19        1.0     0.230288     0.519826     0.857020    Uiso  ? N
   N20        1.0     0.102184     0.418264     0.585568    Uiso  ? N
   N21        1.0     0.886631     0.535995     0.343461    Uiso  ? N
   N22        1.0     0.778355     0.426566     0.095557    Uiso  ? N
   N23        1.0     0.556745     0.536297     0.855037    Uiso  ? N
   N24        1.0     0.462060     0.421556     0.594316    Uiso  ? N
   N25        1.0     0.209266     0.882811     0.342137    Uiso  ? N
   N26        1.0     0.123757     0.751735     0.110724    Uiso  ? N
   N27        1.0     0.878374     0.891820     0.852813    Uiso  ? N
   N28        1.0     0.774486     0.748533     0.593738    Uiso  ? N
   N29        1.0     0.559831     0.880575     0.359821    Uiso  ? N
   N30        1.0     0.447344     0.758194     0.098272    Uiso  ? N
   N31        1.0     0.227525     0.881857     0.863204    Uiso  ? N
   N32        1.0     0.113066     0.758763     0.590756    Uiso  ? N
   N33        1.0     0.884665     0.877651     0.351404    Uiso  ? N
   N34        1.0     0.769291     0.753601     0.110011    Uiso  ? N
   N35        1.0     0.548178     0.867899     0.850175    Uiso  ? N
   N36        1.0     0.457245     0.748808     0.607374    Uiso  ? N
