
#======================================================================
# CRYSTAL DATA
#----------------------------------------------------------------------
data_VESTA_phase_1

_chemical_name_common                  'Al   Mg   Hf   N                      '
_cell_length_a                         9.663467
_cell_length_b                         9.689678
_cell_length_c                         10.104125
_cell_angle_alpha                      89.956093
_cell_angle_beta                       89.903740
_cell_angle_gamma                      60.049461
_cell_volume                           819.761103
_space_group_name_H-M_alt              'P 1'
_space_group_IT_number                 1

loop_
_space_group_symop_operation_xyz
   'x, y, z'

loop_
   _atom_site_label
   _atom_site_occupancy
   _atom_site_fract_x
   _atom_site_fract_y
   _atom_site_fract_z
   _atom_site_adp_type
   _atom_site_U_iso_or_equiv
   _atom_site_type_symbol
   Al1        1.0     0.105397     0.098362     0.312219    Uiso  ? Al
   Al2        1.0     0.221156     0.204879     0.062390    Uiso  ? Al
   Al3        1.0     0.773013     0.107739     0.817657    Uiso  ? Al
   Al4        1.0     0.890448     0.213738     0.567472    Uiso  ? Al
   Al5        1.0     0.443744     0.099841     0.314868    Uiso  ? Al
   Al6        1.0     0.550802     0.211742     0.061754    Uiso  ? Al
   Al7        1.0     0.110739     0.099382     0.816250    Uiso  ? Al
   Al8        1.0     0.220887     0.200712     0.564284    Uiso  ? Al
   Al9        1.0     0.773017     0.107010     0.313107    Uiso  ? Al
   Al10       1.0     0.888826     0.212230     0.061093    Uiso  ? Al
   Al11       1.0     0.554732     0.206720     0.564381    Uiso  ? Al
   Al12       1.0     0.109639     0.423806     0.309464    Uiso  ? Al
   Al13       1.0     0.228317     0.528848     0.057158    Uiso  ? Al
   Al14       1.0     0.780314     0.427106     0.816706    Uiso  ? Al
   Al15       1.0     0.885117     0.533362     0.564042    Uiso  ? Al
   Al16       1.0     0.448543     0.421045     0.308834    Uiso  ? Al
   Al17       1.0     0.557064     0.537278     0.059609    Uiso  ? Al
   Al18       1.0     0.108752     0.418383     0.821643    Uiso  ? Al
   Al19       1.0     0.782350     0.421153     0.313235    Uiso  ? Al
   Al20       1.0     0.888879     0.531249     0.062018    Uiso  ? Al
   Al21       1.0     0.452414     0.422868     0.821380    Uiso  ? Al
   Al22       1.0     0.566355     0.532512     0.571478    Uiso  ? Al
   Al23       1.0     0.114677     0.758502     0.305604    Uiso  ? Al
   Al24       1.0     0.226532     0.876209     0.056226    Uiso  ? Al
   Al25       1.0     0.549354     0.872360     0.056951    Uiso  ? Al
   Al26       1.0     0.777750     0.755006     0.313792    Uiso  ? Al
   Al27       1.0     0.446555     0.762906     0.812651    Uiso  ? Al
   Al28       1.0     0.553847     0.876184     0.568665    Uiso  ? Al
   Mg1        1.0     0.443407     0.095716     0.818448    Uiso  ? Mg
   Mg2        1.0     0.774330     0.754803     0.816472    Uiso  ? Mg
   Mg3        1.0     0.116372     0.760402     0.824757    Uiso  ? Mg
   Mg4        1.0     0.220970     0.882020     0.575069    Uiso  ? Mg
   Hf1        1.0     0.227417     0.529513     0.573476    Uiso  ? Hf
   Hf2        1.0     0.882443     0.879620     0.564423    Uiso  ? Hf
   Hf3        1.0     0.443940     0.759908     0.326522    Uiso  ? Hf
   Hf4        1.0     0.883107     0.876510     0.067574    Uiso  ? Hf
   N1         1.0     0.220372     0.205404     0.369979    Uiso  ? N
   N2         1.0     0.108375     0.095248     0.122662    Uiso  ? N
   N3         1.0     0.888239     0.208391     0.873612    Uiso  ? N
   N4         1.0     0.769007     0.116076     0.624281    Uiso  ? N
   N5         1.0     0.555419     0.207532     0.372119    Uiso  ? N
   N6         1.0     0.445489     0.094790     0.123285    Uiso  ? N
   N7         1.0     0.209854     0.209780     0.879071    Uiso  ? N
   N8         1.0     0.100990     0.111903     0.627212    Uiso  ? N
   N9         1.0     0.888944     0.206559     0.374831    Uiso  ? N
   N10        1.0     0.768397     0.115745     0.126698    Uiso  ? N
   N11        1.0     0.563442     0.213297     0.878276    Uiso  ? N
   N12        1.0     0.443595     0.098063     0.608709    Uiso  ? N
   N13        1.0     0.223469     0.536590     0.363169    Uiso  ? N
   N14        1.0     0.110563     0.427975     0.122260    Uiso  ? N
   N15        1.0     0.895241     0.523848     0.877634    Uiso  ? N
   N16        1.0     0.779477     0.427540     0.625071    Uiso  ? N
   N17        1.0     0.565373     0.518007     0.377549    Uiso  ? N
   N18        1.0     0.444435     0.429356     0.121345    Uiso  ? N
   N19        1.0     0.231662     0.518572     0.867606    Uiso  ? N
   N20        1.0     0.100799     0.418474     0.625842    Uiso  ? N
   N21        1.0     0.889346     0.535019     0.371164    Uiso  ? N
   N22        1.0     0.775710     0.427638     0.124343    Uiso  ? N
   N23        1.0     0.556033     0.539866     0.871031    Uiso  ? N
   N24        1.0     0.464380     0.418735     0.629102    Uiso  ? N
   N25        1.0     0.203692     0.881137     0.364684    Uiso  ? N
   N26        1.0     0.128341     0.750654     0.114865    Uiso  ? N
   N27        1.0     0.876941     0.891487     0.867066    Uiso  ? N
   N28        1.0     0.773969     0.751626     0.608748    Uiso  ? N
   N29        1.0     0.562799     0.882224     0.374194    Uiso  ? N
   N30        1.0     0.444157     0.758158     0.120231    Uiso  ? N
   N31        1.0     0.230057     0.881596     0.870561    Uiso  ? N
   N32        1.0     0.110585     0.759942     0.621149    Uiso  ? N
   N33        1.0     0.888299     0.873361     0.349556    Uiso  ? N
   N34        1.0     0.768191     0.749851     0.125000    Uiso  ? N
   N35        1.0     0.548574     0.865596     0.876420    Uiso  ? N
   N36        1.0     0.460067     0.751728     0.614094    Uiso  ? N
