
#======================================================================
# CRYSTAL DATA
#----------------------------------------------------------------------
data_VESTA_phase_1

_chemical_name_common                  'Al   Mg   Hf   N                      '
_cell_length_a                         10.044950
_cell_length_b                         10.090075
_cell_length_c                         8.954303
_cell_angle_alpha                      89.945007
_cell_angle_beta                       89.941246
_cell_angle_gamma                      60.057781
_cell_volume                           786.424194
_space_group_name_H-M_alt              'P 1'
_space_group_IT_number                 1

loop_
_space_group_symop_operation_xyz
   'x, y, z'

loop_
   _atom_site_label
   _atom_site_occupancy
   _atom_site_fract_x
   _atom_site_fract_y
   _atom_site_fract_z
   _atom_site_adp_type
   _atom_site_U_iso_or_equiv
   _atom_site_type_symbol
   Al1        1.0     0.106419     0.098611     0.339750    Uiso  ? Al
   Al2        1.0     0.222595     0.202010     0.087748    Uiso  ? Al
   Al3        1.0     0.773339     0.111197     0.835801    Uiso  ? Al
   Al4        1.0     0.889070     0.215404     0.583250    Uiso  ? Al
   Al5        1.0     0.445688     0.097316     0.345524    Uiso  ? Al
   Al6        1.0     0.552885     0.207639     0.083286    Uiso  ? Al
   Al7        1.0     0.108948     0.100509     0.833561    Uiso  ? Al
   Al8        1.0     0.220480     0.202847     0.584504    Uiso  ? Al
   Al9        1.0     0.770902     0.109886     0.341846    Uiso  ? Al
   Al10       1.0     0.890227     0.210255     0.086581    Uiso  ? Al
   Al11       1.0     0.553092     0.208689     0.587982    Uiso  ? Al
   Al12       1.0     0.109780     0.423538     0.331527    Uiso  ? Al
   Al13       1.0     0.226245     0.531612     0.085966    Uiso  ? Al
   Al14       1.0     0.781528     0.424271     0.838435    Uiso  ? Al
   Al15       1.0     0.886274     0.530926     0.587025    Uiso  ? Al
   Al16       1.0     0.449300     0.422173     0.327530    Uiso  ? Al
   Al17       1.0     0.558054     0.538676     0.080765    Uiso  ? Al
   Al18       1.0     0.107671     0.417113     0.846951    Uiso  ? Al
   Al19       1.0     0.780098     0.423892     0.331975    Uiso  ? Al
   Al20       1.0     0.888058     0.533072     0.085471    Uiso  ? Al
   Al21       1.0     0.454061     0.422532     0.847495    Uiso  ? Al
   Al22       1.0     0.565999     0.529934     0.595845    Uiso  ? Al
   Al23       1.0     0.115668     0.758921     0.346172    Uiso  ? Al
   Al24       1.0     0.224833     0.877657     0.085390    Uiso  ? Al
   Al25       1.0     0.549664     0.874429     0.070095    Uiso  ? Al
   Al26       1.0     0.774096     0.756242     0.348555    Uiso  ? Al
   Al27       1.0     0.444004     0.759716     0.834591    Uiso  ? Al
   Al28       1.0     0.553456     0.874922     0.613274    Uiso  ? Al
   Mg1        1.0     0.439723     0.101250     0.842567    Uiso  ? Mg
   Mg2        1.0     0.776814     0.749222     0.845941    Uiso  ? Mg
   Mg3        1.0     0.119805     0.760373     0.854303    Uiso  ? Mg
   Mg4        1.0     0.219593     0.881905     0.608137    Uiso  ? Mg
   Hf1        1.0     0.227586     0.527352     0.605103    Uiso  ? Hf
   Hf2        1.0     0.881028     0.877958     0.604464    Uiso  ? Hf
   Hf3        1.0     0.445462     0.761446     0.356532    Uiso  ? Hf
   Hf4        1.0     0.884157     0.876592     0.097443    Uiso  ? Hf
   N1         1.0     0.221018     0.206106     0.363624    Uiso  ? N
   N2         1.0     0.107910     0.096248     0.122473    Uiso  ? N
   N3         1.0     0.889142     0.207325     0.871341    Uiso  ? N
   N4         1.0     0.769696     0.116882     0.611592    Uiso  ? N
   N5         1.0     0.553437     0.210275     0.368009    Uiso  ? N
   N6         1.0     0.447478     0.092482     0.119817    Uiso  ? N
   N7         1.0     0.209634     0.209003     0.874471    Uiso  ? N
   N8         1.0     0.100530     0.111471     0.615757    Uiso  ? N
   N9         1.0     0.887684     0.210237     0.367373    Uiso  ? N
   N10        1.0     0.769186     0.114107     0.124601    Uiso  ? N
   N11        1.0     0.564150     0.211726     0.870298    Uiso  ? N
   N12        1.0     0.442321     0.099837     0.602716    Uiso  ? N
   N13        1.0     0.226699     0.532796     0.359318    Uiso  ? N
   N14        1.0     0.110674     0.427844     0.117025    Uiso  ? N
   N15        1.0     0.895469     0.522110     0.871976    Uiso  ? N
   N16        1.0     0.778843     0.426479     0.621615    Uiso  ? N
   N17        1.0     0.564808     0.520137     0.370413    Uiso  ? N
   N18        1.0     0.445749     0.428656     0.111897    Uiso  ? N
   N19        1.0     0.230489     0.519786     0.861708    Uiso  ? N
   N20        1.0     0.101072     0.417429     0.617891    Uiso  ? N
   N21        1.0     0.888982     0.534259     0.365520    Uiso  ? N
   N22        1.0     0.775778     0.427732     0.117677    Uiso  ? N
   N23        1.0     0.557293     0.539003     0.865810    Uiso  ? N
   N24        1.0     0.463258     0.419471     0.625151    Uiso  ? N
   N25        1.0     0.208272     0.881500     0.357065    Uiso  ? N
   N26        1.0     0.125844     0.751398     0.114020    Uiso  ? N
   N27        1.0     0.877610     0.891798     0.856069    Uiso  ? N
   N28        1.0     0.774957     0.747875     0.601606    Uiso  ? N
   N29        1.0     0.560507     0.881860     0.375426    Uiso  ? N
   N30        1.0     0.447547     0.758571     0.112651    Uiso  ? N
   N31        1.0     0.228690     0.883114     0.866593    Uiso  ? N
   N32        1.0     0.112668     0.758865     0.599894    Uiso  ? N
   N33        1.0     0.885774     0.876117     0.354135    Uiso  ? N
   N34        1.0     0.767972     0.752925     0.118721    Uiso  ? N
   N35        1.0     0.547555     0.867924     0.854160    Uiso  ? N
   N36        1.0     0.457790     0.748689     0.610323    Uiso  ? N
