
#======================================================================
# CRYSTAL DATA
#----------------------------------------------------------------------
data_VESTA_phase_1

_chemical_name_common                  'Al   Mg   Hf   N '
_cell_length_a                         9.657537
_cell_length_b                         9.685824
_cell_length_c                         10.086663
_cell_angle_alpha                      89.909531
_cell_angle_beta                       89.897697
_cell_angle_gamma                      60.135715
_cell_volume                           818.224677
_space_group_name_H-M_alt              'P 1'
_space_group_IT_number                 1

loop_
_space_group_symop_operation_xyz
   'x, y, z'

loop_
   _atom_site_label
   _atom_site_occupancy
   _atom_site_fract_x
   _atom_site_fract_y
   _atom_site_fract_z
   _atom_site_adp_type
   _atom_site_U_iso_or_equiv
   _atom_site_type_symbol
   Al1        1.0     0.104219     0.101911     0.410787    Uiso  ? Al
   Al2        1.0     0.224501     0.203625     0.159958    Uiso  ? Al
   Al3        1.0     0.771302     0.111875     0.910505    Uiso  ? Al
   Al4        1.0     0.890817     0.212026     0.661422    Uiso  ? Al
   Al5        1.0     0.443265     0.100126     0.410103    Uiso  ? Al
   Al6        1.0     0.548031     0.210803     0.160473    Uiso  ? Al
   Al7        1.0     0.111877     0.096253     0.910601    Uiso  ? Al
   Al8        1.0     0.217237     0.202211     0.662925    Uiso  ? Al
   Al9        1.0     0.774584     0.102420     0.407353    Uiso  ? Al
   Al10       1.0     0.888304     0.214228     0.159868    Uiso  ? Al
   Al11       1.0     0.556758     0.207553     0.661880    Uiso  ? Al
   Al12       1.0     0.108388     0.422028     0.405119    Uiso  ? Al
   Al13       1.0     0.227207     0.531156     0.163907    Uiso  ? Al
   Al14       1.0     0.781347     0.426080     0.907972    Uiso  ? Al
   Al15       1.0     0.886360     0.530968     0.661476    Uiso  ? Al
   Al16       1.0     0.453043     0.418983     0.405307    Uiso  ? Al
   Al17       1.0     0.560156     0.532433     0.152450    Uiso  ? Al
   Al18       1.0     0.110137     0.419605     0.911403    Uiso  ? Al
   Al19       1.0     0.781943     0.421996     0.411691    Uiso  ? Al
   Al20       1.0     0.888479     0.533480     0.161145    Uiso  ? Al
   Al21       1.0     0.448661     0.423757     0.911885    Uiso  ? Al
   Al22       1.0     0.563644     0.536505     0.665597    Uiso  ? Al
   Al23       1.0     0.106521     0.764611     0.400926    Uiso  ? Al
   Al24       1.0     0.220673     0.877613     0.150703    Uiso  ? Al
   Al25       1.0     0.552247     0.877809     0.158175    Uiso  ? Al
   Al26       1.0     0.779283     0.757913     0.408143    Uiso  ? Al
   Al27       1.0     0.443836     0.764425     0.912249    Uiso  ? Al
   Al28       1.0     0.550853     0.869867     0.664472    Uiso  ? Al
   Mg1        1.0     0.443775     0.094262     0.904830    Uiso  ? Mg
   Mg2        1.0     0.771101     0.751651     0.908953    Uiso  ? Mg
   Mg3        1.0     0.123750     0.753950     0.914712    Uiso  ? Mg
   Mg4        1.0     0.225419     0.880902     0.668913    Uiso  ? Mg
   Hf1        1.0     0.226981     0.530842     0.651060    Uiso  ? Hf
   Hf2        1.0     0.880986     0.879574     0.668409    Uiso  ? Hf
   Hf3        1.0     0.444331     0.758890     0.397044    Uiso  ? Hf
   Hf4        1.0     0.884656     0.876199     0.143088    Uiso  ? Hf
   N1         1.0     0.222550     0.204085     0.351375    Uiso  ? N
   N2         1.0     0.107175     0.099800     0.104261    Uiso  ? N
   N3         1.0     0.889600     0.207523     0.851373    Uiso  ? N
   N4         1.0     0.771778     0.111046     0.596890    Uiso  ? N
   N5         1.0     0.556253     0.205037     0.351482    Uiso  ? N
   N6         1.0     0.444930     0.095656     0.113470    Uiso  ? N
   N7         1.0     0.208123     0.211539     0.848906    Uiso  ? N
   N8         1.0     0.101515     0.108452     0.596558    Uiso  ? N
   N9         1.0     0.887392     0.208006     0.349875    Uiso  ? N
   N10        1.0     0.764824     0.120993     0.102033    Uiso  ? N
   N11        1.0     0.562600     0.215488     0.846761    Uiso  ? N
   N12        1.0     0.444254     0.096403     0.602606    Uiso  ? N
   N13        1.0     0.225330     0.534671     0.360550    Uiso  ? N
   N14        1.0     0.110791     0.427090     0.106563    Uiso  ? N
   N15        1.0     0.898033     0.522507     0.847236    Uiso  ? N
   N16        1.0     0.776399     0.427152     0.601086    Uiso  ? N
   N17        1.0     0.567787     0.518412     0.343507    Uiso  ? N
   N18        1.0     0.443099     0.427674     0.103577    Uiso  ? N
   N19        1.0     0.230879     0.519413     0.854467    Uiso  ? N
   N20        1.0     0.101765     0.418999     0.593713    Uiso  ? N
   N21        1.0     0.887505     0.536726     0.352529    Uiso  ? N
   N22        1.0     0.779149     0.428236     0.099270    Uiso  ? N
   N23        1.0     0.555039     0.539072     0.857225    Uiso  ? N
   N24        1.0     0.464850     0.420273     0.594411    Uiso  ? N
   N25        1.0     0.203025     0.885743     0.346518    Uiso  ? N
   N26        1.0     0.127365     0.748349     0.120772    Uiso  ? N
   N27        1.0     0.880653     0.888774     0.875181    Uiso  ? N
   N28        1.0     0.772728     0.751701     0.599463    Uiso  ? N
   N29        1.0     0.562377     0.882255     0.351513    Uiso  ? N
   N30        1.0     0.446707     0.759584     0.116277    Uiso  ? N
   N31        1.0     0.228727     0.879736     0.871389    Uiso  ? N
   N32        1.0     0.108535     0.765408     0.591958    Uiso  ? N
   N33        1.0     0.883385     0.876887     0.358759    Uiso  ? N
   N34        1.0     0.769894     0.749983     0.114778    Uiso  ? N
   N35        1.0     0.548006     0.864513     0.845766    Uiso  ? N
   N36        1.0     0.458456     0.748539     0.599417    Uiso  ? N
