
#======================================================================
# CRYSTAL DATA
#----------------------------------------------------------------------
data_VESTA_phase_1

_chemical_name_common                  'Al   Mg   Hf   N                      '
_cell_length_a                         10.151783
_cell_length_b                         10.196847
_cell_length_c                         8.643489
_cell_angle_alpha                      89.933426
_cell_angle_beta                       89.919243
_cell_angle_gamma                      60.069908
_cell_volume                           775.412768
_space_group_name_H-M_alt              'P 1'
_space_group_IT_number                 1

loop_
_space_group_symop_operation_xyz
   'x, y, z'

loop_
   _atom_site_label
   _atom_site_occupancy
   _atom_site_fract_x
   _atom_site_fract_y
   _atom_site_fract_z
   _atom_site_adp_type
   _atom_site_U_iso_or_equiv
   _atom_site_type_symbol
   Al1        1.0     0.107103     0.099167     0.349916    Uiso  ? Al
   Al2        1.0     0.224130     0.200354     0.098651    Uiso  ? Al
   Al3        1.0     0.773791     0.110548     0.845288    Uiso  ? Al
   Al4        1.0     0.888731     0.214867     0.591890    Uiso  ? Al
   Al5        1.0     0.445366     0.097385     0.351702    Uiso  ? Al
   Al6        1.0     0.552407     0.207059     0.091377    Uiso  ? Al
   Al7        1.0     0.108853     0.099201     0.843307    Uiso  ? Al
   Al8        1.0     0.220443     0.203257     0.599855    Uiso  ? Al
   Al9        1.0     0.769971     0.111057     0.348324    Uiso  ? Al
   Al10       1.0     0.890714     0.209979     0.096017    Uiso  ? Al
   Al11       1.0     0.553666     0.208201     0.599858    Uiso  ? Al
   Al12       1.0     0.108326     0.421497     0.343257    Uiso  ? Al
   Al13       1.0     0.226197     0.532684     0.100610    Uiso  ? Al
   Al14       1.0     0.781785     0.423651     0.849254    Uiso  ? Al
   Al15       1.0     0.886913     0.531188     0.602356    Uiso  ? Al
   Al16       1.0     0.451375     0.421193     0.336354    Uiso  ? Al
   Al17       1.0     0.558945     0.536509     0.089824    Uiso  ? Al
   Al18       1.0     0.109270     0.419001     0.867322    Uiso  ? Al
   Al19       1.0     0.779845     0.424713     0.341367    Uiso  ? Al
   Al20       1.0     0.887043     0.534505     0.096855    Uiso  ? Al
   Al21       1.0     0.451855     0.423467     0.857424    Uiso  ? Al
   Al22       1.0     0.564408     0.532364     0.609606    Uiso  ? Al
   Al23       1.0     0.116243     0.760052     0.349107    Uiso  ? Al
   Al24       1.0     0.222138     0.878704     0.092562    Uiso  ? Al
   Al25       1.0     0.550886     0.875583     0.078142    Uiso  ? Al
   Al26       1.0     0.773412     0.754973     0.352696    Uiso  ? Al
   Al27       1.0     0.443132     0.761222     0.847481    Uiso  ? Al
   Al28       1.0     0.553048     0.874181     0.618067    Uiso  ? Al
   Mg1        1.0     0.440651     0.099787     0.849275    Uiso  ? Mg
   Mg2        1.0     0.775659     0.750071     0.851232    Uiso  ? Mg
   Mg3        1.0     0.121110     0.759570     0.857138    Uiso  ? Mg
   Mg4        1.0     0.220247     0.881076     0.612002    Uiso  ? Mg
   Hf1        1.0     0.226952     0.527497     0.605034    Uiso  ? Hf
   Hf2        1.0     0.881312     0.877792     0.604874    Uiso  ? Hf
   Hf3        1.0     0.446130     0.760706     0.355914    Uiso  ? Hf
   Hf4        1.0     0.884604     0.875996     0.100195    Uiso  ? Hf
   N1         1.0     0.222656     0.204013     0.352622    Uiso  ? N
   N2         1.0     0.107596     0.097212     0.113347    Uiso  ? N
   N3         1.0     0.889303     0.207170     0.862629    Uiso  ? N
   N4         1.0     0.770442     0.115194     0.602709    Uiso  ? N
   N5         1.0     0.553795     0.209206     0.359192    Uiso  ? N
   N6         1.0     0.447457     0.093087     0.113648    Uiso  ? N
   N7         1.0     0.209766     0.210270     0.861314    Uiso  ? N
   N8         1.0     0.101185     0.109767     0.605100    Uiso  ? N
   N9         1.0     0.887425     0.210479     0.357936    Uiso  ? N
   N10        1.0     0.769520     0.113240     0.115166    Uiso  ? N
   N11        1.0     0.563140     0.212249     0.859469    Uiso  ? N
   N12        1.0     0.443220     0.098300     0.596636    Uiso  ? N
   N13        1.0     0.227274     0.532952     0.347491    Uiso  ? N
   N14        1.0     0.110297     0.426902     0.109220    Uiso  ? N
   N15        1.0     0.896812     0.522536     0.859630    Uiso  ? N
   N16        1.0     0.777647     0.427128     0.611965    Uiso  ? N
   N17        1.0     0.564325     0.522529     0.355980    Uiso  ? N
   N18        1.0     0.446519     0.427340     0.104891    Uiso  ? N
   N19        1.0     0.229820     0.520506     0.860516    Uiso  ? N
   N20        1.0     0.102137     0.418495     0.596308    Uiso  ? N
   N21        1.0     0.887158     0.535449     0.353352    Uiso  ? N
   N22        1.0     0.776782     0.427240     0.107152    Uiso  ? N
   N23        1.0     0.557224     0.537595     0.858756    Uiso  ? N
   N24        1.0     0.461263     0.421135     0.611961    Uiso  ? N
   N25        1.0     0.209944     0.881348     0.347330    Uiso  ? N
   N26        1.0     0.123933     0.752265     0.112177    Uiso  ? N
   N27        1.0     0.878338     0.891779     0.853751    Uiso  ? N
   N28        1.0     0.774167     0.748872     0.595936    Uiso  ? N
   N29        1.0     0.559860     0.880704     0.363540    Uiso  ? N
   N30        1.0     0.447567     0.757915     0.101563    Uiso  ? N
   N31        1.0     0.227384     0.883161     0.864476    Uiso  ? N
   N32        1.0     0.113048     0.758440     0.592968    Uiso  ? N
   N33        1.0     0.884927     0.877347     0.352806    Uiso  ? N
   N34        1.0     0.769296     0.753465     0.113178    Uiso  ? N
   N35        1.0     0.548031     0.868306     0.851797    Uiso  ? N
   N36        1.0     0.457169     0.749471     0.609468    Uiso  ? N
