
#======================================================================
# CRYSTAL DATA
#----------------------------------------------------------------------
data_VESTA_phase_1

_chemical_name_common                  'Al   Mg   Hf   N                      '
_cell_length_a                         9.657582
_cell_length_b                         9.685790
_cell_length_c                         10.086625
_cell_angle_alpha                      89.908829
_cell_angle_beta                       89.897385
_cell_angle_gamma                      60.136654
_cell_volume                           818.230241
_space_group_name_H-M_alt              'P 1'
_space_group_IT_number                 1

loop_
_space_group_symop_operation_xyz
   'x, y, z'

loop_
   _atom_site_label
   _atom_site_occupancy
   _atom_site_fract_x
   _atom_site_fract_y
   _atom_site_fract_z
   _atom_site_adp_type
   _atom_site_U_iso_or_equiv
   _atom_site_type_symbol
   Al1        1.0     0.104253     0.101896     0.399917    Uiso  ? Al
   Al2        1.0     0.224546     0.203607     0.149076    Uiso  ? Al
   Al3        1.0     0.771351     0.111858     0.899647    Uiso  ? Al
   Al4        1.0     0.890830     0.212034     0.650546    Uiso  ? Al
   Al5        1.0     0.443297     0.100100     0.399228    Uiso  ? Al
   Al6        1.0     0.548069     0.210781     0.149599    Uiso  ? Al
   Al7        1.0     0.111920     0.096241     0.899721    Uiso  ? Al
   Al8        1.0     0.217254     0.202226     0.652051    Uiso  ? Al
   Al9        1.0     0.774617     0.102381     0.396472    Uiso  ? Al
   Al10       1.0     0.888349     0.214200     0.149005    Uiso  ? Al
   Al11       1.0     0.556788     0.207552     0.651002    Uiso  ? Al
   Al12       1.0     0.108428     0.422007     0.394243    Uiso  ? Al
   Al13       1.0     0.227256     0.531141     0.153032    Uiso  ? Al
   Al14       1.0     0.781386     0.426074     0.897094    Uiso  ? Al
   Al15       1.0     0.886381     0.530980     0.650598    Uiso  ? Al
   Al16       1.0     0.453072     0.418956     0.394429    Uiso  ? Al
   Al17       1.0     0.560196     0.532415     0.141578    Uiso  ? Al
   Al18       1.0     0.110176     0.419604     0.900536    Uiso  ? Al
   Al19       1.0     0.781980     0.421965     0.400816    Uiso  ? Al
   Al20       1.0     0.888522     0.533453     0.150280    Uiso  ? Al
   Al21       1.0     0.448714     0.423751     0.901008    Uiso  ? Al
   Al22       1.0     0.563665     0.536519     0.654702    Uiso  ? Al
   Al23       1.0     0.106557     0.764580     0.390065    Uiso  ? Al
   Al24       1.0     0.220721     0.877595     0.139873    Uiso  ? Al
   Al25       1.0     0.552289     0.877786     0.147294    Uiso  ? Al
   Al26       1.0     0.779324     0.757888     0.397267    Uiso  ? Al
   Al27       1.0     0.443868     0.764430     0.901344    Uiso  ? Al
   Al28       1.0     0.550884     0.869884     0.653598    Uiso  ? Al
   Mg1        1.0     0.443818     0.094260     0.893951    Uiso  ? Mg
   Mg2        1.0     0.771149     0.751634     0.898093    Uiso  ? Mg
   Mg3        1.0     0.123809     0.753952     0.903849    Uiso  ? Mg
   Mg4        1.0     0.225432     0.880920     0.658002    Uiso  ? Mg
   Hf1        1.0     0.227003     0.530848     0.640198    Uiso  ? Hf
   Hf2        1.0     0.881016     0.879572     0.657552    Uiso  ? Hf
   Hf3        1.0     0.444379     0.758862     0.386162    Uiso  ? Hf
   Hf4        1.0     0.884710     0.876164     0.132217    Uiso  ? Hf
   N1         1.0     0.222589     0.204062     0.340497    Uiso  ? N
   N2         1.0     0.107222     0.099771     0.093391    Uiso  ? N
   N3         1.0     0.889637     0.207513     0.840499    Uiso  ? N
   N4         1.0     0.771803     0.111036     0.586011    Uiso  ? N
   N5         1.0     0.556284     0.205010     0.340608    Uiso  ? N
   N6         1.0     0.444973     0.095634     0.102588    Uiso  ? N
   N7         1.0     0.208162     0.211539     0.838032    Uiso  ? N
   N8         1.0     0.101522     0.108480     0.585684    Uiso  ? N
   N9         1.0     0.887428     0.207972     0.339009    Uiso  ? N
   N10        1.0     0.764869     0.120962     0.091175    Uiso  ? N
   N11        1.0     0.562657     0.215479     0.835883    Uiso  ? N
   N12        1.0     0.444271     0.096411     0.591733    Uiso  ? N
   N13        1.0     0.225366     0.534649     0.349670    Uiso  ? N
   N14        1.0     0.110831     0.427079     0.095694    Uiso  ? N
   N15        1.0     0.898076     0.522500     0.836358    Uiso  ? N
   N16        1.0     0.776420     0.427158     0.590209    Uiso  ? N
   N17        1.0     0.567826     0.518378     0.332638    Uiso  ? N
   N18        1.0     0.443146     0.427652     0.092699    Uiso  ? N
   N19        1.0     0.230926     0.519410     0.843607    Uiso  ? N
   N20        1.0     0.101788     0.419010     0.582839    Uiso  ? N
   N21        1.0     0.887544     0.536698     0.341661    Uiso  ? N
   N22        1.0     0.779193     0.428209     0.088398    Uiso  ? N
   N23        1.0     0.555077     0.539076     0.846329    Uiso  ? N
   N24        1.0     0.464870     0.420274     0.583534    Uiso  ? N
   N25        1.0     0.203069     0.885716     0.335677    Uiso  ? N
   N26        1.0     0.127417     0.748338     0.109907    Uiso  ? N
   N27        1.0     0.880708     0.888754     0.864336    Uiso  ? N
   N28        1.0     0.772758     0.751713     0.588590    Uiso  ? N
   N29        1.0     0.562421     0.882234     0.340636    Uiso  ? N
   N30        1.0     0.446741     0.759567     0.105407    Uiso  ? N
   N31        1.0     0.228767     0.879742     0.860470    Uiso  ? N
   N32        1.0     0.108557     0.765404     0.581095    Uiso  ? N
   N33        1.0     0.883430     0.876853     0.347884    Uiso  ? N
   N34        1.0     0.769940     0.749956     0.103911    Uiso  ? N
   N35        1.0     0.548062     0.864513     0.834892    Uiso  ? N
   N36        1.0     0.458483     0.748560     0.588542    Uiso  ? N
