
#======================================================================
# CRYSTAL DATA
#----------------------------------------------------------------------
data_VESTA_phase_1

_chemical_name_common                  'Al   Mg   Hf   N                      '
_cell_length_a                         9.663595
_cell_length_b                         9.689829
_cell_length_c                         10.103773
_cell_angle_alpha                      89.956192
_cell_angle_beta                       89.904091
_cell_angle_gamma                      60.049141
_cell_volume                           819.753507
_space_group_name_H-M_alt              'P 1'
_space_group_IT_number                 1

loop_
_space_group_symop_operation_xyz
   'x, y, z'

loop_
   _atom_site_label
   _atom_site_occupancy
   _atom_site_fract_x
   _atom_site_fract_y
   _atom_site_fract_z
   _atom_site_adp_type
   _atom_site_U_iso_or_equiv
   _atom_site_type_symbol
   Al1        1.0     0.105383     0.098366     0.315983    Uiso  ? Al
   Al2        1.0     0.221143     0.204883     0.066149    Uiso  ? Al
   Al3        1.0     0.772999     0.107748     0.821409    Uiso  ? Al
   Al4        1.0     0.890433     0.213741     0.571226    Uiso  ? Al
   Al5        1.0     0.443732     0.099847     0.318624    Uiso  ? Al
   Al6        1.0     0.550790     0.211748     0.065514    Uiso  ? Al
   Al7        1.0     0.110724     0.099386     0.820005    Uiso  ? Al
   Al8        1.0     0.220875     0.200713     0.568042    Uiso  ? Al
   Al9        1.0     0.773006     0.107012     0.316872    Uiso  ? Al
   Al10       1.0     0.888815     0.212233     0.064856    Uiso  ? Al
   Al11       1.0     0.554721     0.206726     0.568137    Uiso  ? Al
   Al12       1.0     0.109628     0.423812     0.313229    Uiso  ? Al
   Al13       1.0     0.228303     0.528852     0.060911    Uiso  ? Al
   Al14       1.0     0.780300     0.427107     0.820464    Uiso  ? Al
   Al15       1.0     0.885100     0.533363     0.567800    Uiso  ? Al
   Al16       1.0     0.448526     0.421052     0.312597    Uiso  ? Al
   Al17       1.0     0.557048     0.537286     0.063373    Uiso  ? Al
   Al18       1.0     0.108738     0.418382     0.825401    Uiso  ? Al
   Al19       1.0     0.782335     0.421156     0.316994    Uiso  ? Al
   Al20       1.0     0.888867     0.531252     0.065780    Uiso  ? Al
   Al21       1.0     0.452406     0.422870     0.825137    Uiso  ? Al
   Al22       1.0     0.566342     0.532510     0.575236    Uiso  ? Al
   Al23       1.0     0.114662     0.758508     0.309370    Uiso  ? Al
   Al24       1.0     0.226521     0.876214     0.059987    Uiso  ? Al
   Al25       1.0     0.549339     0.872363     0.060711    Uiso  ? Al
   Al26       1.0     0.777737     0.755014     0.317553    Uiso  ? Al
   Al27       1.0     0.446541     0.762907     0.816407    Uiso  ? Al
   Al28       1.0     0.553832     0.876190     0.572428    Uiso  ? Al
   Mg1        1.0     0.443396     0.095720     0.822211    Uiso  ? Mg
   Mg2        1.0     0.774314     0.754800     0.820235    Uiso  ? Mg
   Mg3        1.0     0.116362     0.760407     0.828520    Uiso  ? Mg
   Mg4        1.0     0.220950     0.882027     0.578833    Uiso  ? Mg
   Hf1        1.0     0.227414     0.529522     0.577252    Uiso  ? Hf
   Hf2        1.0     0.882428     0.879637     0.568200    Uiso  ? Hf
   Hf3        1.0     0.443918     0.759914     0.330299    Uiso  ? Hf
   Hf4        1.0     0.883094     0.876517     0.071326    Uiso  ? Hf
   N1         1.0     0.220361     0.205409     0.373734    Uiso  ? N
   N2         1.0     0.108364     0.095253     0.126418    Uiso  ? N
   N3         1.0     0.888228     0.208395     0.877370    Uiso  ? N
   N4         1.0     0.768996     0.116077     0.628031    Uiso  ? N
   N5         1.0     0.555403     0.207537     0.375870    Uiso  ? N
   N6         1.0     0.445478     0.094794     0.127037    Uiso  ? N
   N7         1.0     0.209841     0.209784     0.882825    Uiso  ? N
   N8         1.0     0.100979     0.111910     0.630966    Uiso  ? N
   N9         1.0     0.888930     0.206567     0.378583    Uiso  ? N
   N10        1.0     0.768387     0.115746     0.130453    Uiso  ? N
   N11        1.0     0.563430     0.213299     0.882035    Uiso  ? N
   N12        1.0     0.443583     0.098068     0.612467    Uiso  ? N
   N13        1.0     0.223454     0.536594     0.366936    Uiso  ? N
   N14        1.0     0.110552     0.427980     0.126017    Uiso  ? N
   N15        1.0     0.895230     0.523848     0.881391    Uiso  ? N
   N16        1.0     0.779466     0.427546     0.628827    Uiso  ? N
   N17        1.0     0.565361     0.518010     0.381303    Uiso  ? N
   N18        1.0     0.444418     0.429363     0.125099    Uiso  ? N
   N19        1.0     0.231648     0.518572     0.871351    Uiso  ? N
   N20        1.0     0.100778     0.418473     0.629598    Uiso  ? N
   N21        1.0     0.889331     0.535025     0.374919    Uiso  ? N
   N22        1.0     0.775697     0.427644     0.128098    Uiso  ? N
   N23        1.0     0.556020     0.539872     0.874789    Uiso  ? N
   N24        1.0     0.464363     0.418739     0.632857    Uiso  ? N
   N25        1.0     0.203679     0.881141     0.368442    Uiso  ? N
   N26        1.0     0.128325     0.750658     0.118618    Uiso  ? N
   N27        1.0     0.876925     0.891489     0.870810    Uiso  ? N
   N28        1.0     0.773952     0.751617     0.612508    Uiso  ? N
   N29        1.0     0.562789     0.882232     0.377950    Uiso  ? N
   N30        1.0     0.444145     0.758163     0.123996    Uiso  ? N
   N31        1.0     0.230046     0.881600     0.874316    Uiso  ? N
   N32        1.0     0.110576     0.759941     0.624909    Uiso  ? N
   N33        1.0     0.888284     0.873364     0.353323    Uiso  ? N
   N34        1.0     0.768180     0.749856     0.128754    Uiso  ? N
   N35        1.0     0.548559     0.865599     0.880175    Uiso  ? N
   N36        1.0     0.460054     0.751733     0.617840    Uiso  ? N
