
#======================================================================
# CRYSTAL DATA
#----------------------------------------------------------------------
data_VESTA_phase_1

_chemical_name_common                  'Al   Mg   Hf   N                      '
_cell_length_a                         9.793182
_cell_length_b                         9.829055
_cell_length_c                         9.726042
_cell_angle_alpha                      89.965324
_cell_angle_beta                       89.962601
_cell_angle_gamma                      60.021477
_cell_volume                           810.953952
_space_group_name_H-M_alt              'P 1'
_space_group_IT_number                 1

loop_
_space_group_symop_operation_xyz
   'x, y, z'

loop_
   _atom_site_label
   _atom_site_occupancy
   _atom_site_fract_x
   _atom_site_fract_y
   _atom_site_fract_z
   _atom_site_adp_type
   _atom_site_U_iso_or_equiv
   _atom_site_type_symbol
   Al1        1.0     0.105591     0.097921     0.325740    Uiso  ? Al
   Al2        1.0     0.221392     0.204463     0.076349    Uiso  ? Al
   Al3        1.0     0.772150     0.110833     0.827797    Uiso  ? Al
   Al4        1.0     0.890249     0.214483     0.577387    Uiso  ? Al
   Al5        1.0     0.444631     0.098998     0.328216    Uiso  ? Al
   Al6        1.0     0.551526     0.211273     0.074969    Uiso  ? Al
   Al7        1.0     0.110243     0.100352     0.827230    Uiso  ? Al
   Al8        1.0     0.220860     0.201146     0.574898    Uiso  ? Al
   Al9        1.0     0.773233     0.106892     0.328579    Uiso  ? Al
   Al10       1.0     0.889100     0.211779     0.074352    Uiso  ? Al
   Al11       1.0     0.554021     0.207358     0.575323    Uiso  ? Al
   Al12       1.0     0.110588     0.424940     0.323495    Uiso  ? Al
   Al13       1.0     0.228035     0.528651     0.066851    Uiso  ? Al
   Al14       1.0     0.780553     0.426135     0.828597    Uiso  ? Al
   Al15       1.0     0.884846     0.532184     0.575166    Uiso  ? Al
   Al16       1.0     0.446685     0.422615     0.321362    Uiso  ? Al
   Al17       1.0     0.556172     0.539648     0.073195    Uiso  ? Al
   Al18       1.0     0.106996     0.415892     0.832292    Uiso  ? Al
   Al19       1.0     0.781621     0.421946     0.324119    Uiso  ? Al
   Al20       1.0     0.889267     0.531399     0.075768    Uiso  ? Al
   Al21       1.0     0.455735     0.421565     0.833322    Uiso  ? Al
   Al22       1.0     0.567898     0.529016     0.581861    Uiso  ? Al
   Al23       1.0     0.114694     0.758049     0.323429    Uiso  ? Al
   Al24       1.0     0.228369     0.875894     0.070045    Uiso  ? Al
   Al25       1.0     0.548532     0.872081     0.066543    Uiso  ? Al
   Al26       1.0     0.776780     0.756740     0.329649    Uiso  ? Al
   Al27       1.0     0.446412     0.761010     0.820381    Uiso  ? Al
   Al28       1.0     0.554542     0.877147     0.586781    Uiso  ? Al
   Mg1        1.0     0.442069     0.098085     0.832489    Uiso  ? Mg
   Mg2        1.0     0.774567     0.750704     0.832039    Uiso  ? Mg
   Mg3        1.0     0.118009     0.760978     0.841099    Uiso  ? Mg
   Mg4        1.0     0.218270     0.883490     0.593104    Uiso  ? Mg
   Hf1        1.0     0.227177     0.528673     0.596938    Uiso  ? Hf
   Hf2        1.0     0.881387     0.878473     0.589806    Uiso  ? Hf
   Hf3        1.0     0.443420     0.761264     0.349211    Uiso  ? Hf
   Hf4        1.0     0.882953     0.877444     0.080380    Uiso  ? Hf
   N1         1.0     0.220677     0.205508     0.375475    Uiso  ? N
   N2         1.0     0.108591     0.094876     0.129923    Uiso  ? N
   N3         1.0     0.888482     0.208084     0.880511    Uiso  ? N
   N4         1.0     0.768336     0.118538     0.627925    Uiso  ? N
   N5         1.0     0.554412     0.208738     0.377738    Uiso  ? N
   N6         1.0     0.446413     0.093849     0.129068    Uiso  ? N
   N7         1.0     0.209563     0.209364     0.886260    Uiso  ? N
   N8         1.0     0.100335     0.113247     0.632277    Uiso  ? N
   N9         1.0     0.888738     0.208134     0.380248    Uiso  ? N
   N10        1.0     0.769014     0.115166     0.134283    Uiso  ? N
   N11        1.0     0.564165     0.213099     0.884672    Uiso  ? N
   N12        1.0     0.442874     0.099715     0.616382    Uiso  ? N
   N13        1.0     0.224157     0.536084     0.376010    Uiso  ? N
   N14        1.0     0.111646     0.428573     0.129217    Uiso  ? N
   N15        1.0     0.895697     0.521727     0.884786    Uiso  ? N
   N16        1.0     0.779463     0.426922     0.631628    Uiso  ? N
   N17        1.0     0.565831     0.517211     0.382505    Uiso  ? N
   N18        1.0     0.443357     0.430240     0.126549    Uiso  ? N
   N19        1.0     0.232117     0.517047     0.867222    Uiso  ? N
   N20        1.0     0.099157     0.416843     0.631098    Uiso  ? N
   N21        1.0     0.888909     0.535143     0.376725    Uiso  ? N
   N22        1.0     0.775590     0.427792     0.129904    Uiso  ? N
   N23        1.0     0.555956     0.540692     0.877400    Uiso  ? N
   N24        1.0     0.466438     0.417685     0.635279    Uiso  ? N
   N25        1.0     0.203062     0.882000     0.373215    Uiso  ? N
   N26        1.0     0.127918     0.750175     0.120402    Uiso  ? N
   N27        1.0     0.875799     0.892021     0.867342    Uiso  ? N
   N28        1.0     0.773940     0.748264     0.616534    Uiso  ? N
   N29        1.0     0.562705     0.883599     0.383889    Uiso  ? N
   N30        1.0     0.445253     0.758825     0.130974    Uiso  ? N
   N31        1.0     0.231333     0.881876     0.875342    Uiso  ? N
   N32        1.0     0.111773     0.760001     0.627905    Uiso  ? N
   N33        1.0     0.887943     0.873985     0.361392    Uiso  ? N
   N34        1.0     0.768308     0.751503     0.130457    Uiso  ? N
   N35        1.0     0.546980     0.865826     0.876869    Uiso  ? N
   N36        1.0     0.459584     0.750255     0.613936    Uiso  ? N
