
#======================================================================
# CRYSTAL DATA
#----------------------------------------------------------------------
data_VESTA_phase_1

_chemical_name_common                  'Al   Mg   Hf   N                      '
_cell_length_a                         10.037069
_cell_length_b                         10.083855
_cell_length_c                         8.960744
_cell_angle_alpha                      89.940086
_cell_angle_beta                       89.917198
_cell_angle_gamma                      60.115898
_cell_volume                           786.346085
_space_group_name_H-M_alt              'P 1'
_space_group_IT_number                 1

loop_
_space_group_symop_operation_xyz
   'x, y, z'

loop_
   _atom_site_label
   _atom_site_occupancy
   _atom_site_fract_x
   _atom_site_fract_y
   _atom_site_fract_z
   _atom_site_adp_type
   _atom_site_U_iso_or_equiv
   _atom_site_type_symbol
   Al1        1.0     0.106904     0.100876     0.371776    Uiso  ? Al
   Al2        1.0     0.226100     0.198825     0.115077    Uiso  ? Al
   Al3        1.0     0.773024     0.111671     0.873491    Uiso  ? Al
   Al4        1.0     0.888733     0.213182     0.621280    Uiso  ? Al
   Al5        1.0     0.444293     0.097798     0.362919    Uiso  ? Al
   Al6        1.0     0.549514     0.207258     0.117113    Uiso  ? Al
   Al7        1.0     0.108000     0.099144     0.870365    Uiso  ? Al
   Al8        1.0     0.217036     0.205569     0.626654    Uiso  ? Al
   Al9        1.0     0.770841     0.109949     0.362123    Uiso  ? Al
   Al10       1.0     0.890513     0.213116     0.122628    Uiso  ? Al
   Al11       1.0     0.556202     0.209772     0.624126    Uiso  ? Al
   Al12       1.0     0.107236     0.419276     0.353672    Uiso  ? Al
   Al13       1.0     0.226353     0.532669     0.120590    Uiso  ? Al
   Al14       1.0     0.783158     0.422910     0.870993    Uiso  ? Al
   Al15       1.0     0.889404     0.529168     0.623989    Uiso  ? Al
   Al16       1.0     0.455341     0.420075     0.356757    Uiso  ? Al
   Al17       1.0     0.561399     0.533557     0.107391    Uiso  ? Al
   Al18       1.0     0.110615     0.420408     0.882690    Uiso  ? Al
   Al19       1.0     0.780036     0.425043     0.372808    Uiso  ? Al
   Al20       1.0     0.885420     0.534833     0.117402    Uiso  ? Al
   Al21       1.0     0.447612     0.424191     0.879706    Uiso  ? Al
   Al22       1.0     0.563052     0.533661     0.630120    Uiso  ? Al
   Al23       1.0     0.113454     0.763051     0.351856    Uiso  ? Al
   Al24       1.0     0.221694     0.877646     0.095137    Uiso  ? Al
   Al25       1.0     0.550934     0.875327     0.077796    Uiso  ? Al
   Al26       1.0     0.774474     0.755851     0.358936    Uiso  ? Al
   Al27       1.0     0.442648     0.759666     0.859757    Uiso  ? Al
   Al28       1.0     0.552426     0.872255     0.625437    Uiso  ? Al
   Mg1        1.0     0.441596     0.100610     0.857567    Uiso  ? Mg
   Mg2        1.0     0.777686     0.749459     0.855848    Uiso  ? Mg
   Mg3        1.0     0.121248     0.755597     0.860913    Uiso  ? Mg
   Mg4        1.0     0.221705     0.882082     0.622373    Uiso  ? Mg
   Hf1        1.0     0.227399     0.526974     0.603787    Uiso  ? Hf
   Hf2        1.0     0.880429     0.880622     0.609135    Uiso  ? Hf
   Hf3        1.0     0.446000     0.761471     0.354921    Uiso  ? Hf
   Hf4        1.0     0.884856     0.874719     0.101680    Uiso  ? Hf
   N1         1.0     0.223727     0.201408     0.332157    Uiso  ? N
   N2         1.0     0.105850     0.099292     0.088549    Uiso  ? N
   N3         1.0     0.888428     0.207654     0.837039    Uiso  ? N
   N4         1.0     0.769267     0.116518     0.580308    Uiso  ? N
   N5         1.0     0.554833     0.206157     0.334016    Uiso  ? N
   N6         1.0     0.446807     0.092619     0.099103    Uiso  ? N
   N7         1.0     0.207710     0.213042     0.842765    Uiso  ? N
   N8         1.0     0.101423     0.110163     0.586630    Uiso  ? N
   N9         1.0     0.888357     0.210625     0.336597    Uiso  ? N
   N10        1.0     0.769321     0.115380     0.094512    Uiso  ? N
   N11        1.0     0.562974     0.216383     0.839232    Uiso  ? N
   N12        1.0     0.443201     0.099514     0.591511    Uiso  ? N
   N13        1.0     0.226331     0.533942     0.343833    Uiso  ? N
   N14        1.0     0.110586     0.427218     0.100646    Uiso  ? N
   N15        1.0     0.900016     0.520062     0.839714    Uiso  ? N
   N16        1.0     0.775775     0.428504     0.589372    Uiso  ? N
   N17        1.0     0.567727     0.522434     0.327201    Uiso  ? N
   N18        1.0     0.443819     0.427058     0.095162    Uiso  ? N
   N19        1.0     0.231077     0.517984     0.844085    Uiso  ? N
   N20        1.0     0.101414     0.417171     0.573850    Uiso  ? N
   N21        1.0     0.885429     0.536567     0.334811    Uiso  ? N
   N22        1.0     0.779650     0.425979     0.084163    Uiso  ? N
   N23        1.0     0.555707     0.535915     0.848762    Uiso  ? N
   N24        1.0     0.464406     0.421056     0.578641    Uiso  ? N
   N25        1.0     0.207313     0.885209     0.333856    Uiso  ? N
   N26        1.0     0.124223     0.750112     0.108300    Uiso  ? N
   N27        1.0     0.878634     0.892004     0.851423    Uiso  ? N
   N28        1.0     0.773994     0.748231     0.590635    Uiso  ? N
   N29        1.0     0.560459     0.881731     0.352077    Uiso  ? N
   N30        1.0     0.447254     0.757476     0.096951    Uiso  ? N
   N31        1.0     0.227174     0.880829     0.862527    Uiso  ? N
   N32        1.0     0.113382     0.760296     0.584411    Uiso  ? N
   N33        1.0     0.884039     0.877487     0.349322    Uiso  ? N
   N34        1.0     0.769729     0.752687     0.103363    Uiso  ? N
   N35        1.0     0.548143     0.866624     0.847990    Uiso  ? N
   N36        1.0     0.457574     0.748518     0.598731    Uiso  ? N
