
#======================================================================
# CRYSTAL DATA
#----------------------------------------------------------------------
data_VESTA_phase_1

_chemical_name_common                  'Al   Mg   Hf   N                      '
_cell_length_a                         9.663474
_cell_length_b                         9.689692
_cell_length_c                         10.104100
_cell_angle_alpha                      89.955986
_cell_angle_beta                       89.903648
_cell_angle_gamma                      60.049679
_cell_volume                           819.762658
_space_group_name_H-M_alt              'P 1'
_space_group_IT_number                 1

loop_
_space_group_symop_operation_xyz
   'x, y, z'

loop_
   _atom_site_label
   _atom_site_occupancy
   _atom_site_fract_x
   _atom_site_fract_y
   _atom_site_fract_z
   _atom_site_adp_type
   _atom_site_U_iso_or_equiv
   _atom_site_type_symbol
   Al1        1.0     0.105447     0.098346     0.297666    Uiso  ? Al
   Al2        1.0     0.221206     0.204863     0.047835    Uiso  ? Al
   Al3        1.0     0.773063     0.107724     0.803097    Uiso  ? Al
   Al4        1.0     0.890496     0.213721     0.552914    Uiso  ? Al
   Al5        1.0     0.443794     0.099827     0.300313    Uiso  ? Al
   Al6        1.0     0.550853     0.211727     0.047198    Uiso  ? Al
   Al7        1.0     0.110787     0.099366     0.801691    Uiso  ? Al
   Al8        1.0     0.220937     0.200695     0.549729    Uiso  ? Al
   Al9        1.0     0.773068     0.106995     0.298555    Uiso  ? Al
   Al10       1.0     0.888877     0.212214     0.046538    Uiso  ? Al
   Al11       1.0     0.554785     0.206706     0.549827    Uiso  ? Al
   Al12       1.0     0.109691     0.423790     0.294908    Uiso  ? Al
   Al13       1.0     0.228368     0.528834     0.042602    Uiso  ? Al
   Al14       1.0     0.780364     0.427089     0.802148    Uiso  ? Al
   Al15       1.0     0.885165     0.533345     0.549488    Uiso  ? Al
   Al16       1.0     0.448594     0.421029     0.294279    Uiso  ? Al
   Al17       1.0     0.557115     0.537263     0.045052    Uiso  ? Al
   Al18       1.0     0.108804     0.418366     0.807091    Uiso  ? Al
   Al19       1.0     0.782400     0.421135     0.298682    Uiso  ? Al
   Al20       1.0     0.888929     0.531234     0.047464    Uiso  ? Al
   Al21       1.0     0.452465     0.422852     0.806824    Uiso  ? Al
   Al22       1.0     0.566404     0.532494     0.556924    Uiso  ? Al
   Al23       1.0     0.114729     0.758487     0.291050    Uiso  ? Al
   Al24       1.0     0.226582     0.876194     0.041669    Uiso  ? Al
   Al25       1.0     0.549404     0.872345     0.042393    Uiso  ? Al
   Al26       1.0     0.777801     0.754991     0.299237    Uiso  ? Al
   Al27       1.0     0.446604     0.762889     0.798094    Uiso  ? Al
   Al28       1.0     0.553895     0.876169     0.554109    Uiso  ? Al
   Mg1        1.0     0.443458     0.095700     0.803893    Uiso  ? Mg
   Mg2        1.0     0.774380     0.754787     0.801917    Uiso  ? Mg
   Mg3        1.0     0.116423     0.760388     0.810201    Uiso  ? Mg
   Mg4        1.0     0.221020     0.882005     0.560513    Uiso  ? Mg
   Hf1        1.0     0.227479     0.529502     0.558924    Uiso  ? Hf
   Hf2        1.0     0.882493     0.879620     0.549869    Uiso  ? Hf
   Hf3        1.0     0.443984     0.759891     0.311968    Uiso  ? Hf
   Hf4        1.0     0.883159     0.876496     0.053017    Uiso  ? Hf
   N1         1.0     0.220422     0.205390     0.355424    Uiso  ? N
   N2         1.0     0.108426     0.095233     0.108106    Uiso  ? N
   N3         1.0     0.888290     0.208377     0.859058    Uiso  ? N
   N4         1.0     0.769060     0.116053     0.609723    Uiso  ? N
   N5         1.0     0.555468     0.207516     0.357562    Uiso  ? N
   N6         1.0     0.445540     0.094774     0.108729    Uiso  ? N
   N7         1.0     0.209903     0.209766     0.864515    Uiso  ? N
   N8         1.0     0.101042     0.111889     0.612655    Uiso  ? N
   N9         1.0     0.888994     0.206545     0.360273    Uiso  ? N
   N10        1.0     0.768447     0.115728     0.112142    Uiso  ? N
   N11        1.0     0.563492     0.213280     0.863724    Uiso  ? N
   N12        1.0     0.443644     0.098047     0.594152    Uiso  ? N
   N13        1.0     0.223519     0.536573     0.348614    Uiso  ? N
   N14        1.0     0.110613     0.427960     0.107704    Uiso  ? N
   N15        1.0     0.895292     0.523833     0.863079    Uiso  ? N
   N16        1.0     0.779530     0.427527     0.610515    Uiso  ? N
   N17        1.0     0.565423     0.517993     0.362993    Uiso  ? N
   N18        1.0     0.444485     0.429341     0.106787    Uiso  ? N
   N19        1.0     0.231711     0.518556     0.853049    Uiso  ? N
   N20        1.0     0.100845     0.418456     0.611288    Uiso  ? N
   N21        1.0     0.889397     0.535004     0.356609    Uiso  ? N
   N22        1.0     0.775760     0.427623     0.109788    Uiso  ? N
   N23        1.0     0.556085     0.539851     0.856475    Uiso  ? N
   N24        1.0     0.464423     0.418721     0.614547    Uiso  ? N
   N25        1.0     0.203747     0.881119     0.350128    Uiso  ? N
   N26        1.0     0.128391     0.750638     0.100309    Uiso  ? N
   N27        1.0     0.876991     0.891470     0.852512    Uiso  ? N
   N28        1.0     0.774017     0.751603     0.594193    Uiso  ? N
   N29        1.0     0.562852     0.882209     0.359638    Uiso  ? N
   N30        1.0     0.444209     0.758142     0.105674    Uiso  ? N
   N31        1.0     0.230108     0.881581     0.856005    Uiso  ? N
   N32        1.0     0.110638     0.759920     0.606593    Uiso  ? N
   N33        1.0     0.888349     0.873343     0.335000    Uiso  ? N
   N34        1.0     0.768241     0.749835     0.110445    Uiso  ? N
   N35        1.0     0.548626     0.865581     0.861863    Uiso  ? N
   N36        1.0     0.460119     0.751714     0.599537    Uiso  ? N
