
#======================================================================
# CRYSTAL DATA
#----------------------------------------------------------------------
data_VESTA_phase_1

_chemical_name_common                  'Al   Mg   Hf   N                      '
_cell_length_a                         10.170711
_cell_length_b                         10.215112
_cell_length_c                         8.592645
_cell_angle_alpha                      89.935051
_cell_angle_beta                       89.919945
_cell_angle_gamma                      60.075771
_cell_volume                           773.717662
_space_group_name_H-M_alt              'P 1'
_space_group_IT_number                 1

loop_
_space_group_symop_operation_xyz
   'x, y, z'

loop_
   _atom_site_label
   _atom_site_occupancy
   _atom_site_fract_x
   _atom_site_fract_y
   _atom_site_fract_z
   _atom_site_adp_type
   _atom_site_U_iso_or_equiv
   _atom_site_type_symbol
   Al1        1.0     0.107193     0.099650     0.354655    Uiso  ? Al
   Al2        1.0     0.224697     0.200074     0.102737    Uiso  ? Al
   Al3        1.0     0.773499     0.110458     0.851877    Uiso  ? Al
   Al4        1.0     0.888817     0.214218     0.599578    Uiso  ? Al
   Al5        1.0     0.444905     0.097474     0.352875    Uiso  ? Al
   Al6        1.0     0.551700     0.207180     0.097114    Uiso  ? Al
   Al7        1.0     0.109050     0.098636     0.850277    Uiso  ? Al
   Al8        1.0     0.219956     0.203731     0.607627    Uiso  ? Al
   Al9        1.0     0.770109     0.111130     0.350642    Uiso  ? Al
   Al10       1.0     0.890726     0.210512     0.102066    Uiso  ? Al
   Al11       1.0     0.554132     0.208084     0.604968    Uiso  ? Al
   Al12       1.0     0.107973     0.420817     0.345688    Uiso  ? Al
   Al13       1.0     0.226240     0.532739     0.103314    Uiso  ? Al
   Al14       1.0     0.781732     0.423693     0.856413    Uiso  ? Al
   Al15       1.0     0.887555     0.531034     0.609154    Uiso  ? Al
   Al16       1.0     0.451906     0.421136     0.341289    Uiso  ? Al
   Al17       1.0     0.559427     0.535637     0.095570    Uiso  ? Al
   Al18       1.0     0.109474     0.419348     0.871565    Uiso  ? Al
   Al19       1.0     0.780008     0.424927     0.349789    Uiso  ? Al
   Al20       1.0     0.886804     0.534728     0.102328    Uiso  ? Al
   Al21       1.0     0.451088     0.423640     0.862805    Uiso  ? Al
   Al22       1.0     0.564014     0.533003     0.616037    Uiso  ? Al
   Al23       1.0     0.116279     0.760373     0.349147    Uiso  ? Al
   Al24       1.0     0.221804     0.878513     0.093609    Uiso  ? Al
   Al25       1.0     0.551073     0.875729     0.079939    Uiso  ? Al
   Al26       1.0     0.773399     0.754538     0.353249    Uiso  ? Al
   Al27       1.0     0.442978     0.761485     0.850448    Uiso  ? Al
   Al28       1.0     0.553070     0.874026     0.618548    Uiso  ? Al
   Mg1        1.0     0.441220     0.099387     0.851329    Uiso  ? Mg
   Mg2        1.0     0.775346     0.750230     0.852339    Uiso  ? Mg
   Mg3        1.0     0.121360     0.759224     0.856993    Uiso  ? Mg
   Mg4        1.0     0.220197     0.881374     0.613076    Uiso  ? Mg
   Hf1        1.0     0.226843     0.527540     0.604348    Uiso  ? Hf
   Hf2        1.0     0.881104     0.878177     0.604910    Uiso  ? Hf
   Hf3        1.0     0.446056     0.760676     0.355432    Uiso  ? Hf
   Hf4        1.0     0.884981     0.875355     0.100461    Uiso  ? Hf
   N1         1.0     0.222879     0.203429     0.347379    Uiso  ? N
   N2         1.0     0.107524     0.097471     0.106968    Uiso  ? N
   N3         1.0     0.888971     0.207550     0.856386    Uiso  ? N
   N4         1.0     0.770207     0.114948     0.598469    Uiso  ? N
   N5         1.0     0.554181     0.208355     0.353055    Uiso  ? N
   N6         1.0     0.447282     0.092917     0.111435    Uiso  ? N
   N7         1.0     0.209749     0.211015     0.856117    Uiso  ? N
   N8         1.0     0.101545     0.109586     0.601018    Uiso  ? N
   N9         1.0     0.887741     0.210185     0.352732    Uiso  ? N
   N10        1.0     0.769909     0.112988     0.109887    Uiso  ? N
   N11        1.0     0.562503     0.213052     0.855422    Uiso  ? N
   N12        1.0     0.443238     0.098461     0.595158    Uiso  ? N
   N13        1.0     0.226999     0.533216     0.345531    Uiso  ? N
   N14        1.0     0.110259     0.426802     0.107279    Uiso  ? N
   N15        1.0     0.897407     0.522303     0.854449    Uiso  ? N
   N16        1.0     0.776912     0.427862     0.604636    Uiso  ? N
   N17        1.0     0.564421     0.523453     0.346787    Uiso  ? N
   N18        1.0     0.445997     0.427123     0.103017    Uiso  ? N
   N19        1.0     0.229954     0.520269     0.859311    Uiso  ? N
   N20        1.0     0.102207     0.418578     0.590463    Uiso  ? N
   N21        1.0     0.886977     0.535801     0.347860    Uiso  ? N
   N22        1.0     0.777652     0.426922     0.101597    Uiso  ? N
   N23        1.0     0.557082     0.536868     0.856809    Uiso  ? N
   N24        1.0     0.461366     0.421593     0.603424    Uiso  ? N
   N25        1.0     0.209832     0.881915     0.344620    Uiso  ? N
   N26        1.0     0.123700     0.752065     0.111483    Uiso  ? N
   N27        1.0     0.878437     0.891741     0.853207    Uiso  ? N
   N28        1.0     0.774166     0.748836     0.594592    Uiso  ? N
   N29        1.0     0.559773     0.880477     0.360458    Uiso  ? N
   N30        1.0     0.447426     0.758025     0.099196    Uiso  ? N
   N31        1.0     0.227408     0.882562     0.863796    Uiso  ? N
   N32        1.0     0.113060     0.758502     0.591869    Uiso  ? N
   N33        1.0     0.884747     0.877727     0.352171    Uiso  ? N
   N34        1.0     0.769554     0.753562     0.111502    Uiso  ? N
   N35        1.0     0.548103     0.868232     0.851222    Uiso  ? N
   N36        1.0     0.457205     0.749259     0.608735    Uiso  ? N
