
#======================================================================
# CRYSTAL DATA
#----------------------------------------------------------------------
data_VESTA_phase_1

_chemical_name_common                  'Al   Mg   Hf   N                      '
_cell_length_a                         10.078269
_cell_length_b                         10.124598
_cell_length_c                         8.843097
_cell_angle_alpha                      89.944260
_cell_angle_beta                       89.919357
_cell_angle_gamma                      60.108570
_cell_volume                           782.298254
_space_group_name_H-M_alt              'P 1'
_space_group_IT_number                 1

loop_
_space_group_symop_operation_xyz
   'x, y, z'

loop_
   _atom_site_label
   _atom_site_occupancy
   _atom_site_fract_x
   _atom_site_fract_y
   _atom_site_fract_z
   _atom_site_adp_type
   _atom_site_U_iso_or_equiv
   _atom_site_type_symbol
   Al1        1.0     0.107038     0.100850     0.369122    Uiso  ? Al
   Al2        1.0     0.225784     0.198769     0.111985    Uiso  ? Al
   Al3        1.0     0.773289     0.111227     0.870845    Uiso  ? Al
   Al4        1.0     0.888646     0.213236     0.618564    Uiso  ? Al
   Al5        1.0     0.444243     0.097800     0.359100    Uiso  ? Al
   Al6        1.0     0.550035     0.207061     0.113634    Uiso  ? Al
   Al7        1.0     0.108191     0.098732     0.867208    Uiso  ? Al
   Al8        1.0     0.217761     0.205388     0.624044    Uiso  ? Al
   Al9        1.0     0.770497     0.110489     0.359539    Uiso  ? Al
   Al10       1.0     0.890726     0.212675     0.119947    Uiso  ? Al
   Al11       1.0     0.555741     0.209453     0.621438    Uiso  ? Al
   Al12       1.0     0.107430     0.419507     0.350934    Uiso  ? Al
   Al13       1.0     0.226163     0.532982     0.115457    Uiso  ? Al
   Al14       1.0     0.782952     0.422895     0.869031    Uiso  ? Al
   Al15       1.0     0.889297     0.529537     0.621580    Uiso  ? Al
   Al16       1.0     0.454569     0.420397     0.353039    Uiso  ? Al
   Al17       1.0     0.561068     0.534388     0.104741    Uiso  ? Al
   Al18       1.0     0.110303     0.420324     0.881187    Uiso  ? Al
   Al19       1.0     0.780038     0.425157     0.369603    Uiso  ? Al
   Al20       1.0     0.885397     0.534933     0.114250    Uiso  ? Al
   Al21       1.0     0.448309     0.424152     0.877772    Uiso  ? Al
   Al22       1.0     0.563290     0.533107     0.627991    Uiso  ? Al
   Al23       1.0     0.114322     0.762202     0.350440    Uiso  ? Al
   Al24       1.0     0.222025     0.877667     0.094183    Uiso  ? Al
   Al25       1.0     0.550792     0.875103     0.076180    Uiso  ? Al
   Al26       1.0     0.774200     0.755304     0.356528    Uiso  ? Al
   Al27       1.0     0.442631     0.760282     0.854678    Uiso  ? Al
   Al28       1.0     0.552846     0.872966     0.621234    Uiso  ? Al
   Mg1        1.0     0.441772     0.100071     0.855721    Uiso  ? Mg
   Mg2        1.0     0.777039     0.749826     0.854005    Uiso  ? Mg
   Mg3        1.0     0.121143     0.756741     0.858893    Uiso  ? Mg
   Mg4        1.0     0.220907     0.882155     0.619230    Uiso  ? Mg
   Hf1        1.0     0.227381     0.526880     0.603417    Uiso  ? Hf
   Hf2        1.0     0.880473     0.880199     0.607306    Uiso  ? Hf
   Hf3        1.0     0.446008     0.761158     0.354952    Uiso  ? Hf
   Hf4        1.0     0.885013     0.874629     0.101232    Uiso  ? Hf
   N1         1.0     0.223447     0.201713     0.334205    Uiso  ? N
   N2         1.0     0.106140     0.098570     0.091218    Uiso  ? N
   N3         1.0     0.888382     0.207673     0.839769    Uiso  ? N
   N4         1.0     0.769239     0.116217     0.583120    Uiso  ? N
   N5         1.0     0.554751     0.206449     0.336262    Uiso  ? N
   N6         1.0     0.447300     0.091716     0.102879    Uiso  ? N
   N7         1.0     0.208270     0.212703     0.846254    Uiso  ? N
   N8         1.0     0.101498     0.110310     0.589523    Uiso  ? N
   N9         1.0     0.888361     0.210578     0.339083    Uiso  ? N
   N10        1.0     0.769939     0.114510     0.097384    Uiso  ? N
   N11        1.0     0.562757     0.215792     0.842940    Uiso  ? N
   N12        1.0     0.442754     0.100239     0.592761    Uiso  ? N
   N13        1.0     0.226261     0.534057     0.344008    Uiso  ? N
   N14        1.0     0.110342     0.427269     0.102752    Uiso  ? N
   N15        1.0     0.899492     0.520626     0.843125    Uiso  ? N
   N16        1.0     0.775941     0.428499     0.591816    Uiso  ? N
   N17        1.0     0.567106     0.523030     0.330227    Uiso  ? N
   N18        1.0     0.444307     0.427144     0.097674    Uiso  ? N
   N19        1.0     0.230873     0.518578     0.848941    Uiso  ? N
   N20        1.0     0.101735     0.417393     0.576893    Uiso  ? N
   N21        1.0     0.885701     0.536354     0.336991    Uiso  ? N
   N22        1.0     0.779348     0.426002     0.086986    Uiso  ? N
   N23        1.0     0.555954     0.535887     0.851190    Uiso  ? N
   N24        1.0     0.463750     0.421135     0.582136    Uiso  ? N
   N25        1.0     0.207915     0.884505     0.337135    Uiso  ? N
   N26        1.0     0.124065     0.750809     0.109288    Uiso  ? N
   N27        1.0     0.878418     0.892027     0.852055    Uiso  ? N
   N28        1.0     0.774711     0.747964     0.592136    Uiso  ? N
   N29        1.0     0.560203     0.881291     0.357911    Uiso  ? N
   N30        1.0     0.447271     0.758041     0.097829    Uiso  ? N
   N31        1.0     0.227369     0.881040     0.862663    Uiso  ? N
   N32        1.0     0.113271     0.759605     0.587162    Uiso  ? N
   N33        1.0     0.884326     0.877410     0.350077    Uiso  ? N
   N34        1.0     0.769012     0.753348     0.106269    Uiso  ? N
   N35        1.0     0.548226     0.867052     0.848435    Uiso  ? N
   N36        1.0     0.457331     0.748346     0.602782    Uiso  ? N
