
#======================================================================
# CRYSTAL DATA
#----------------------------------------------------------------------
data_VESTA_phase_1

_chemical_name_common                  'Al   Mg   Hf   N                      '
_cell_length_a                         10.119599
_cell_length_b                         10.165075
_cell_length_c                         8.728801
_cell_angle_alpha                      89.945656
_cell_angle_beta                       89.921562
_cell_angle_gamma                      60.098629
_cell_volume                           778.376061
_space_group_name_H-M_alt              'P 1'
_space_group_IT_number                 1

loop_
_space_group_symop_operation_xyz
   'x, y, z'

loop_
   _atom_site_label
   _atom_site_occupancy
   _atom_site_fract_x
   _atom_site_fract_y
   _atom_site_fract_z
   _atom_site_adp_type
   _atom_site_U_iso_or_equiv
   _atom_site_type_symbol
   Al1        1.0     0.107095     0.100642     0.365453    Uiso  ? Al
   Al2        1.0     0.225445     0.199059     0.108941    Uiso  ? Al
   Al3        1.0     0.773408     0.110814     0.866854    Uiso  ? Al
   Al4        1.0     0.888651     0.213395     0.614928    Uiso  ? Al
   Al5        1.0     0.444345     0.097697     0.356050    Uiso  ? Al
   Al6        1.0     0.550498     0.207051     0.109394    Uiso  ? Al
   Al7        1.0     0.108559     0.098425     0.863225    Uiso  ? Al
   Al8        1.0     0.218548     0.204928     0.620026    Uiso  ? Al
   Al9        1.0     0.770281     0.110901     0.356798    Uiso  ? Al
   Al10       1.0     0.890829     0.212089     0.116065    Uiso  ? Al
   Al11       1.0     0.555269     0.208938     0.617501    Uiso  ? Al
   Al12       1.0     0.107630     0.419866     0.348681    Uiso  ? Al
   Al13       1.0     0.226089     0.533069     0.110299    Uiso  ? Al
   Al14       1.0     0.782550     0.423118     0.866517    Uiso  ? Al
   Al15       1.0     0.888864     0.530065     0.618289    Uiso  ? Al
   Al16       1.0     0.453661     0.420731     0.349384    Uiso  ? Al
   Al17       1.0     0.560636     0.534886     0.102199    Uiso  ? Al
   Al18       1.0     0.109972     0.420080     0.878611    Uiso  ? Al
   Al19       1.0     0.780062     0.425147     0.365082    Uiso  ? Al
   Al20       1.0     0.885722     0.534925     0.110659    Uiso  ? Al
   Al21       1.0     0.449181     0.424044     0.874369    Uiso  ? Al
   Al22       1.0     0.563516     0.532975     0.625079    Uiso  ? Al
   Al23       1.0     0.115166     0.761416     0.349555    Uiso  ? Al
   Al24       1.0     0.222029     0.877842     0.093852    Uiso  ? Al
   Al25       1.0     0.550863     0.875198     0.077180    Uiso  ? Al
   Al26       1.0     0.773872     0.754835     0.354875    Uiso  ? Al
   Al27       1.0     0.442686     0.760877     0.852414    Uiso  ? Al
   Al28       1.0     0.553062     0.873451     0.619281    Uiso  ? Al
   Mg1        1.0     0.441796     0.099577     0.854293    Uiso  ? Mg
   Mg2        1.0     0.776296     0.750099     0.853071    Uiso  ? Mg
   Mg3        1.0     0.121158     0.757821     0.857557    Uiso  ? Mg
   Mg4        1.0     0.220448     0.882033     0.616630    Uiso  ? Mg
   Hf1        1.0     0.227246     0.527036     0.603352    Uiso  ? Hf
   Hf2        1.0     0.880566     0.879689     0.606033    Uiso  ? Hf
   Hf3        1.0     0.446020     0.760897     0.355000    Uiso  ? Hf
   Hf4        1.0     0.885189     0.874575     0.100954    Uiso  ? Hf
   N1         1.0     0.223211     0.202196     0.337438    Uiso  ? N
   N2         1.0     0.106588     0.098032     0.094868    Uiso  ? N
   N3         1.0     0.888412     0.207758     0.843475    Uiso  ? N
   N4         1.0     0.769403     0.115779     0.586930    Uiso  ? N
   N5         1.0     0.554618     0.206895     0.339780    Uiso  ? N
   N6         1.0     0.447404     0.091626     0.106134    Uiso  ? N
   N7         1.0     0.208887     0.212225     0.849433    Uiso  ? N
   N8         1.0     0.101572     0.110175     0.592717    Uiso  ? N
   N9         1.0     0.888279     0.210417     0.342052    Uiso  ? N
   N10        1.0     0.770308     0.113708     0.100503    Uiso  ? N
   N11        1.0     0.562492     0.215000     0.846831    Uiso  ? N
   N12        1.0     0.442763     0.100071     0.593601    Uiso  ? N
   N13        1.0     0.226318     0.533978     0.344226    Uiso  ? N
   N14        1.0     0.110198     0.427187     0.104426    Uiso  ? N
   N15        1.0     0.898786     0.521256     0.846652    Uiso  ? N
   N16        1.0     0.776141     0.428430     0.594561    Uiso  ? N
   N17        1.0     0.566243     0.523502     0.334171    Uiso  ? N
   N18        1.0     0.444823     0.427214     0.099743    Uiso  ? N
   N19        1.0     0.230607     0.519233     0.853519    Uiso  ? N
   N20        1.0     0.102019     0.417785     0.580889    Uiso  ? N
   N21        1.0     0.886129     0.536165     0.339853    Uiso  ? N
   N22        1.0     0.778916     0.426203     0.090719    Uiso  ? N
   N23        1.0     0.556296     0.536024     0.853275    Uiso  ? N
   N24        1.0     0.462940     0.421316     0.587237    Uiso  ? N
   N25        1.0     0.208573     0.883696     0.339834    Uiso  ? N
   N26        1.0     0.123905     0.751350     0.110033    Uiso  ? N
   N27        1.0     0.878317     0.891970     0.852480    Uiso  ? N
   N28        1.0     0.774789     0.748136     0.593065    Uiso  ? N
   N29        1.0     0.559992     0.880896     0.359792    Uiso  ? N
   N30        1.0     0.447289     0.758260     0.098104    Uiso  ? N
   N31        1.0     0.227510     0.881366     0.862846    Uiso  ? N
   N32        1.0     0.113149     0.759108     0.589306    Uiso  ? N
   N33        1.0     0.884553     0.877448     0.350734    Uiso  ? N
   N34        1.0     0.768956     0.753601     0.108385    Uiso  ? N
   N35        1.0     0.548226     0.867471     0.849154    Uiso  ? N
   N36        1.0     0.457265     0.748458     0.605459    Uiso  ? N
