
#======================================================================
# CRYSTAL DATA
#----------------------------------------------------------------------
data_VESTA_phase_1

_chemical_name_common                  'Al   Mg   Hf   N                      '
_cell_length_a                         9.997826
_cell_length_b                         10.044486
_cell_length_c                         9.076110
_cell_angle_alpha                      89.935158
_cell_angle_beta                       89.916176
_cell_angle_gamma                      60.120113
_cell_volume                           790.291874
_space_group_name_H-M_alt              'P 1'
_space_group_IT_number                 1

loop_
_space_group_symop_operation_xyz
   'x, y, z'

loop_
   _atom_site_label
   _atom_site_occupancy
   _atom_site_fract_x
   _atom_site_fract_y
   _atom_site_fract_z
   _atom_site_adp_type
   _atom_site_U_iso_or_equiv
   _atom_site_type_symbol
   Al1        1.0     0.106728     0.100779     0.373727    Uiso  ? Al
   Al2        1.0     0.226293     0.199187     0.117952    Uiso  ? Al
   Al3        1.0     0.772696     0.112069     0.875316    Uiso  ? Al
   Al4        1.0     0.888878     0.213183     0.623445    Uiso  ? Al
   Al5        1.0     0.444472     0.097640     0.366668    Uiso  ? Al
   Al6        1.0     0.548998     0.207609     0.119924    Uiso  ? Al
   Al7        1.0     0.108005     0.099507     0.872895    Uiso  ? Al
   Al8        1.0     0.216483     0.205483     0.628313    Uiso  ? Al
   Al9        1.0     0.771246     0.109328     0.364490    Uiso  ? Al
   Al10       1.0     0.890244     0.213440     0.124536    Uiso  ? Al
   Al11       1.0     0.556606     0.209887     0.626024    Uiso  ? Al
   Al12       1.0     0.107090     0.419159     0.356589    Uiso  ? Al
   Al13       1.0     0.226574     0.532252     0.124859    Uiso  ? Al
   Al14       1.0     0.783174     0.423119     0.872569    Uiso  ? Al
   Al15       1.0     0.889236     0.529010     0.625736    Uiso  ? Al
   Al16       1.0     0.455903     0.419754     0.360250    Uiso  ? Al
   Al17       1.0     0.561669     0.532535     0.110030    Uiso  ? Al
   Al18       1.0     0.110857     0.420364     0.883398    Uiso  ? Al
   Al19       1.0     0.780081     0.424834     0.375123    Uiso  ? Al
   Al20       1.0     0.885709     0.534656     0.120065    Uiso  ? Al
   Al21       1.0     0.447137     0.424210     0.880697    Uiso  ? Al
   Al22       1.0     0.562785     0.534574     0.631609    Uiso  ? Al
   Al23       1.0     0.112615     0.763822     0.353681    Uiso  ? Al
   Al24       1.0     0.221106     0.877764     0.096612    Uiso  ? Al
   Al25       1.0     0.551295     0.875844     0.082770    Uiso  ? Al
   Al26       1.0     0.774628     0.756391     0.361905    Uiso  ? Al
   Al27       1.0     0.442805     0.759230     0.866688    Uiso  ? Al
   Al28       1.0     0.551899     0.871437     0.630846    Uiso  ? Al
   Mg1        1.0     0.441430     0.100899     0.859777    Uiso  ? Mg
   Mg2        1.0     0.778003     0.749142     0.858491    Uiso  ? Mg
   Mg3        1.0     0.121442     0.754547     0.863373    Uiso  ? Mg
   Mg4        1.0     0.222769     0.881820     0.625707    Uiso  ? Mg
   Hf1        1.0     0.227336     0.527256     0.604403    Uiso  ? Hf
   Hf2        1.0     0.880413     0.880953     0.611462    Uiso  ? Hf
   Hf3        1.0     0.445917     0.761695     0.354936    Uiso  ? Hf
   Hf4        1.0     0.884783     0.874775     0.102362    Uiso  ? Hf
   N1         1.0     0.223989     0.201251     0.330828    Uiso  ? N
   N2         1.0     0.105676     0.100059     0.086507    Uiso  ? N
   N3         1.0     0.888512     0.207688     0.834930    Uiso  ? N
   N4         1.0     0.769406     0.116664     0.578160    Uiso  ? N
   N5         1.0     0.554894     0.205942     0.332434    Uiso  ? N
   N6         1.0     0.446030     0.094053     0.095374    Uiso  ? N
   N7         1.0     0.207299     0.213214     0.839312    Uiso  ? N
   N8         1.0     0.101385     0.109799     0.584051    Uiso  ? N
   N9         1.0     0.888306     0.210570     0.334439    Uiso  ? N
   N10        1.0     0.768635     0.116215     0.091838    Uiso  ? N
   N11        1.0     0.563104     0.216763     0.835913    Uiso  ? N
   N12        1.0     0.443943     0.098216     0.589891    Uiso  ? N
   N13        1.0     0.226431     0.533747     0.343613    Uiso  ? N
   N14        1.0     0.110845     0.427110     0.098245    Uiso  ? N
   N15        1.0     0.900316     0.519669     0.836549    Uiso  ? N
   N16        1.0     0.775632     0.428482     0.587150    Uiso  ? N
   N17        1.0     0.568122     0.521778     0.324897    Uiso  ? N
   N18        1.0     0.443395     0.427021     0.092502    Uiso  ? N
   N19        1.0     0.231215     0.517540     0.839709    Uiso  ? N
   N20        1.0     0.101114     0.417081     0.571671    Uiso  ? N
   N21        1.0     0.885294     0.536777     0.333107    Uiso  ? N
   N22        1.0     0.779827     0.426081     0.081980    Uiso  ? N
   N23        1.0     0.555444     0.536223     0.846201    Uiso  ? N
   N24        1.0     0.464908     0.421040     0.576273    Uiso  ? N
   N25        1.0     0.206722     0.885770     0.330385    Uiso  ? N
   N26        1.0     0.124401     0.749371     0.107011    Uiso  ? N
   N27        1.0     0.878888     0.891919     0.850591    Uiso  ? N
   N28        1.0     0.772862     0.748820     0.588547    Uiso  ? N
   N29        1.0     0.560761     0.882177     0.343131    Uiso  ? N
   N30        1.0     0.447251     0.756777     0.095906    Uiso  ? N
   N31        1.0     0.227105     0.880634     0.862302    Uiso  ? N
   N32        1.0     0.113444     0.761106     0.581419    Uiso  ? N
   N33        1.0     0.883735     0.877582     0.348364    Uiso  ? N
   N34        1.0     0.770915     0.751731     0.099950    Uiso  ? N
   N35        1.0     0.547955     0.866194     0.847278    Uiso  ? N
   N36        1.0     0.458018     0.748907     0.593506    Uiso  ? N
