
#======================================================================
# CRYSTAL DATA
#----------------------------------------------------------------------
data_VESTA_phase_1

_chemical_name_common                  'Al   Mg   Hf   N                      '
_cell_length_a                         9.881021
_cell_length_b                         9.921584
_cell_length_c                         9.457459
_cell_angle_alpha                      89.958313
_cell_angle_beta                       89.962440
_cell_angle_gamma                      60.035328
_cell_volume                           803.234469
_space_group_name_H-M_alt              'P 1'
_space_group_IT_number                 1

loop_
_space_group_symop_operation_xyz
   'x, y, z'

loop_
   _atom_site_label
   _atom_site_occupancy
   _atom_site_fract_x
   _atom_site_fract_y
   _atom_site_fract_z
   _atom_site_adp_type
   _atom_site_U_iso_or_equiv
   _atom_site_type_symbol
   Al1        1.0     0.105857     0.097841     0.329375    Uiso  ? Al
   Al2        1.0     0.221673     0.203823     0.079822    Uiso  ? Al
   Al3        1.0     0.772165     0.111697     0.829502    Uiso  ? Al
   Al4        1.0     0.889927     0.214897     0.578512    Uiso  ? Al
   Al5        1.0     0.445242     0.098027     0.333100    Uiso  ? Al
   Al6        1.0     0.552026     0.210208     0.077475    Uiso  ? Al
   Al7        1.0     0.109687     0.100920     0.828526    Uiso  ? Al
   Al8        1.0     0.220630     0.201821     0.576557    Uiso  ? Al
   Al9        1.0     0.772691     0.107692     0.332643    Uiso  ? Al
   Al10       1.0     0.889363     0.211328     0.077576    Uiso  ? Al
   Al11       1.0     0.553498     0.207973     0.577899    Uiso  ? Al
   Al12       1.0     0.110746     0.424976     0.325741    Uiso  ? Al
   Al13       1.0     0.227574     0.529350     0.070290    Uiso  ? Al
   Al14       1.0     0.780842     0.425523     0.830906    Uiso  ? Al
   Al15       1.0     0.885381     0.531446     0.577489    Uiso  ? Al
   Al16       1.0     0.446828     0.422972     0.322892    Uiso  ? Al
   Al17       1.0     0.556472     0.539994     0.075493    Uiso  ? Al
   Al18       1.0     0.106637     0.415559     0.835095    Uiso  ? Al
   Al19       1.0     0.781061     0.422543     0.325957    Uiso  ? Al
   Al20       1.0     0.889011     0.531756     0.078718    Uiso  ? Al
   Al21       1.0     0.456175     0.421462     0.836765    Uiso  ? Al
   Al22       1.0     0.567817     0.528277     0.584567    Uiso  ? Al
   Al23       1.0     0.115206     0.757942     0.330610    Uiso  ? Al
   Al24       1.0     0.228080     0.876138     0.073592    Uiso  ? Al
   Al25       1.0     0.548469     0.872678     0.065568    Uiso  ? Al
   Al26       1.0     0.775596     0.757112     0.335678    Uiso  ? Al
   Al27       1.0     0.445809     0.759660     0.822143    Uiso  ? Al
   Al28       1.0     0.554313     0.876671     0.596767    Uiso  ? Al
   Mg1        1.0     0.440697     0.100208     0.835328    Uiso  ? Mg
   Mg2        1.0     0.775922     0.749239     0.836674    Uiso  ? Mg
   Mg3        1.0     0.118521     0.761007     0.845254    Uiso  ? Mg
   Mg4        1.0     0.218237     0.883456     0.598979    Uiso  ? Mg
   Hf1        1.0     0.227346     0.528003     0.601833    Uiso  ? Hf
   Hf2        1.0     0.880941     0.878265     0.597687    Uiso  ? Hf
   Hf3        1.0     0.443904     0.761781     0.353682    Uiso  ? Hf
   Hf4        1.0     0.883354     0.877335     0.086358    Uiso  ? Hf
   N1         1.0     0.220633     0.205862     0.371830    Uiso  ? N
   N2         1.0     0.108475     0.094855     0.127835    Uiso  ? N
   N3         1.0     0.888627     0.207941     0.877990    Uiso  ? N
   N4         1.0     0.768427     0.118728     0.622959    Uiso  ? N
   N5         1.0     0.553916     0.209511     0.374717    Uiso  ? N
   N6         1.0     0.447019     0.092897     0.126272    Uiso  ? N
   N7         1.0     0.209385     0.209240     0.883622    Uiso  ? N
   N8         1.0     0.100159     0.113334     0.627776    Uiso  ? N
   N9         1.0     0.888491     0.208932     0.376605    Uiso  ? N
   N10        1.0     0.769018     0.115074     0.131819    Uiso  ? N
   N11        1.0     0.564308     0.212699     0.881096    Uiso  ? N
   N12        1.0     0.442161     0.100641     0.612922    Uiso  ? N
   N13        1.0     0.225092     0.534950     0.373241    Uiso  ? N
   N14        1.0     0.111636     0.428668     0.126017    Uiso  ? N
   N15        1.0     0.895705     0.521270     0.881765    Uiso  ? N
   N16        1.0     0.779385     0.426679     0.628814    Uiso  ? N
   N17        1.0     0.565553     0.517916     0.379059    Uiso  ? N
   N18        1.0     0.443714     0.430079     0.122280    Uiso  ? N
   N19        1.0     0.231826     0.517427     0.863769    Uiso  ? N
   N20        1.0     0.099337     0.416623     0.627717    Uiso  ? N
   N21        1.0     0.889057     0.534759     0.373386    Uiso  ? N
   N22        1.0     0.775526     0.427771     0.126516    Uiso  ? N
   N23        1.0     0.556379     0.540423     0.874358    Uiso  ? N
   N24        1.0     0.466044     0.417874     0.632719    Uiso  ? N
   N25        1.0     0.204525     0.882013     0.370125    Uiso  ? N
   N26        1.0     0.127863     0.750190     0.117918    Uiso  ? N
   N27        1.0     0.876054     0.892158     0.862611    Uiso  ? N
   N28        1.0     0.774785     0.747199     0.612466    Uiso  ? N
   N29        1.0     0.562008     0.883418     0.383773    Uiso  ? N
   N30        1.0     0.446155     0.759171     0.126797    Uiso  ? N
   N31        1.0     0.230965     0.882220     0.871577    Uiso  ? N
   N32        1.0     0.112138     0.759529     0.620460    Uiso  ? N
   N33        1.0     0.887418     0.874585     0.358461    Uiso  ? N
   N34        1.0     0.767628     0.752237     0.126792    Uiso  ? N
   N35        1.0     0.546835     0.866621     0.867457    Uiso  ? N
   N36        1.0     0.459140     0.749051     0.611547    Uiso  ? N
