
#======================================================================
# CRYSTAL DATA
#----------------------------------------------------------------------
data_VESTA_phase_1

_chemical_name_common                  'Al   Mg   Hf   N                      '
_cell_length_a                         9.657586
_cell_length_b                         9.685793
_cell_length_c                         10.086616
_cell_angle_alpha                      89.908829
_cell_angle_beta                       89.897392
_cell_angle_gamma                      60.136646
_cell_volume                           818.229970
_space_group_name_H-M_alt              'P 1'
_space_group_IT_number                 1

loop_
_space_group_symop_operation_xyz
   'x, y, z'

loop_
   _atom_site_label
   _atom_site_occupancy
   _atom_site_fract_x
   _atom_site_fract_y
   _atom_site_fract_z
   _atom_site_adp_type
   _atom_site_U_iso_or_equiv
   _atom_site_type_symbol
   Al1        1.0     0.104240     0.101899     0.403582    Uiso  ? Al
   Al2        1.0     0.224532     0.203611     0.152741    Uiso  ? Al
   Al3        1.0     0.771338     0.111861     0.903309    Uiso  ? Al
   Al4        1.0     0.890817     0.212039     0.654210    Uiso  ? Al
   Al5        1.0     0.443284     0.100104     0.402892    Uiso  ? Al
   Al6        1.0     0.548057     0.210785     0.153265    Uiso  ? Al
   Al7        1.0     0.111907     0.096245     0.903386    Uiso  ? Al
   Al8        1.0     0.217242     0.202229     0.655716    Uiso  ? Al
   Al9        1.0     0.774604     0.102386     0.400144    Uiso  ? Al
   Al10       1.0     0.888336     0.214204     0.152670    Uiso  ? Al
   Al11       1.0     0.556774     0.207556     0.654667    Uiso  ? Al
   Al12       1.0     0.108415     0.422011     0.397911    Uiso  ? Al
   Al13       1.0     0.227242     0.531146     0.156704    Uiso  ? Al
   Al14       1.0     0.781374     0.426078     0.900763    Uiso  ? Al
   Al15       1.0     0.886368     0.530983     0.654263    Uiso  ? Al
   Al16       1.0     0.453061     0.418960     0.398100    Uiso  ? Al
   Al17       1.0     0.560183     0.532419     0.145244    Uiso  ? Al
   Al18       1.0     0.110163     0.419608     0.904202    Uiso  ? Al
   Al19       1.0     0.781966     0.421970     0.404481    Uiso  ? Al
   Al20       1.0     0.888510     0.533458     0.153946    Uiso  ? Al
   Al21       1.0     0.448701     0.423754     0.904675    Uiso  ? Al
   Al22       1.0     0.563653     0.536523     0.658373    Uiso  ? Al
   Al23       1.0     0.106544     0.764585     0.393733    Uiso  ? Al
   Al24       1.0     0.220708     0.877598     0.143538    Uiso  ? Al
   Al25       1.0     0.552278     0.877789     0.150963    Uiso  ? Al
   Al26       1.0     0.779311     0.757892     0.400937    Uiso  ? Al
   Al27       1.0     0.443855     0.764435     0.905017    Uiso  ? Al
   Al28       1.0     0.550870     0.869888     0.657267    Uiso  ? Al
   Mg1        1.0     0.443805     0.094264     0.897619    Uiso  ? Mg
   Mg2        1.0     0.771137     0.751638     0.901761    Uiso  ? Mg
   Mg3        1.0     0.123796     0.753955     0.907519    Uiso  ? Mg
   Mg4        1.0     0.225421     0.880923     0.661672    Uiso  ? Mg
   Hf1        1.0     0.226993     0.530851     0.643865    Uiso  ? Hf
   Hf2        1.0     0.881004     0.879576     0.661220    Uiso  ? Hf
   Hf3        1.0     0.444367     0.758864     0.389832    Uiso  ? Hf
   Hf4        1.0     0.884698     0.876165     0.135886    Uiso  ? Hf
   N1         1.0     0.222576     0.204066     0.344162    Uiso  ? N
   N2         1.0     0.107208     0.099776     0.097057    Uiso  ? N
   N3         1.0     0.889624     0.207518     0.844165    Uiso  ? N
   N4         1.0     0.771791     0.111039     0.589681    Uiso  ? N
   N5         1.0     0.556273     0.205013     0.344275    Uiso  ? N
   N6         1.0     0.444960     0.095638     0.106256    Uiso  ? N
   N7         1.0     0.208150     0.211543     0.841699    Uiso  ? N
   N8         1.0     0.101510     0.108482     0.589349    Uiso  ? N
   N9         1.0     0.887415     0.207975     0.342674    Uiso  ? N
   N10        1.0     0.764855     0.120969     0.094839    Uiso  ? N
   N11        1.0     0.562644     0.215482     0.839551    Uiso  ? N
   N12        1.0     0.444258     0.096415     0.595399    Uiso  ? N
   N13        1.0     0.225353     0.534653     0.353341    Uiso  ? N
   N14        1.0     0.110819     0.427083     0.099361    Uiso  ? N
   N15        1.0     0.898063     0.522503     0.840025    Uiso  ? N
   N16        1.0     0.776407     0.427163     0.593874    Uiso  ? N
   N17        1.0     0.567813     0.518382     0.336304    Uiso  ? N
   N18        1.0     0.443133     0.427656     0.096367    Uiso  ? N
   N19        1.0     0.230913     0.519414     0.847275    Uiso  ? N
   N20        1.0     0.101775     0.419013     0.586507    Uiso  ? N
   N21        1.0     0.887532     0.536702     0.345328    Uiso  ? N
   N22        1.0     0.779180     0.428212     0.092067    Uiso  ? N
   N23        1.0     0.555065     0.539080     0.850001    Uiso  ? N
   N24        1.0     0.464857     0.420279     0.587204    Uiso  ? N
   N25        1.0     0.203057     0.885720     0.339343    Uiso  ? N
   N26        1.0     0.127402     0.748343     0.113577    Uiso  ? N
   N27        1.0     0.880696     0.888757     0.868003    Uiso  ? N
   N28        1.0     0.772744     0.751716     0.592259    Uiso  ? N
   N29        1.0     0.562409     0.882237     0.344304    Uiso  ? N
   N30        1.0     0.446729     0.759571     0.109077    Uiso  ? N
   N31        1.0     0.228755     0.879745     0.864142    Uiso  ? N
   N32        1.0     0.108545     0.765409     0.584762    Uiso  ? N
   N33        1.0     0.883417     0.876858     0.351554    Uiso  ? N
   N34        1.0     0.769928     0.749962     0.107579    Uiso  ? N
   N35        1.0     0.548049     0.864517     0.838562    Uiso  ? N
   N36        1.0     0.458470     0.748564     0.592210    Uiso  ? N
