
#======================================================================
# CRYSTAL DATA
#----------------------------------------------------------------------
data_VESTA_phase_1

_chemical_name_common                  'Al   Mg   Hf   N                      '
_cell_length_a                         9.657680
_cell_length_b                         9.685891
_cell_length_c                         10.086380
_cell_angle_alpha                      89.908890
_cell_angle_beta                       89.897720
_cell_angle_gamma                      60.136318
_cell_volume                           818.224394
_space_group_name_H-M_alt              'P 1'
_space_group_IT_number                 1

loop_
_space_group_symop_operation_xyz
   'x, y, z'

loop_
   _atom_site_label
   _atom_site_occupancy
   _atom_site_fract_x
   _atom_site_fract_y
   _atom_site_fract_z
   _atom_site_adp_type
   _atom_site_U_iso_or_equiv
   _atom_site_type_symbol
   Al1        1.0     0.104292     0.101883     0.388790    Uiso  ? Al
   Al2        1.0     0.224584     0.203595     0.137949    Uiso  ? Al
   Al3        1.0     0.771389     0.111847     0.888520    Uiso  ? Al
   Al4        1.0     0.890869     0.212022     0.639419    Uiso  ? Al
   Al5        1.0     0.443336     0.100088     0.388100    Uiso  ? Al
   Al6        1.0     0.548108     0.210769     0.138474    Uiso  ? Al
   Al7        1.0     0.111958     0.096230     0.888596    Uiso  ? Al
   Al8        1.0     0.217293     0.202213     0.640927    Uiso  ? Al
   Al9        1.0     0.774656     0.102370     0.385351    Uiso  ? Al
   Al10       1.0     0.888388     0.214188     0.137879    Uiso  ? Al
   Al11       1.0     0.556826     0.207541     0.639877    Uiso  ? Al
   Al12       1.0     0.108466     0.421994     0.383120    Uiso  ? Al
   Al13       1.0     0.227294     0.531129     0.141914    Uiso  ? Al
   Al14       1.0     0.781425     0.426062     0.885971    Uiso  ? Al
   Al15       1.0     0.886419     0.530967     0.639472    Uiso  ? Al
   Al16       1.0     0.453113     0.418944     0.383310    Uiso  ? Al
   Al17       1.0     0.560235     0.532402     0.130453    Uiso  ? Al
   Al18       1.0     0.110215     0.419592     0.889412    Uiso  ? Al
   Al19       1.0     0.782017     0.421954     0.389690    Uiso  ? Al
   Al20       1.0     0.888561     0.533442     0.139156    Uiso  ? Al
   Al21       1.0     0.448751     0.423739     0.889884    Uiso  ? Al
   Al22       1.0     0.563703     0.536508     0.643581    Uiso  ? Al
   Al23       1.0     0.106596     0.764570     0.378939    Uiso  ? Al
   Al24       1.0     0.220758     0.877583     0.128743    Uiso  ? Al
   Al25       1.0     0.552330     0.877773     0.136169    Uiso  ? Al
   Al26       1.0     0.779362     0.757877     0.386143    Uiso  ? Al
   Al27       1.0     0.443907     0.764418     0.890227    Uiso  ? Al
   Al28       1.0     0.550922     0.869872     0.642477    Uiso  ? Al
   Mg1        1.0     0.443857     0.094249     0.882827    Uiso  ? Mg
   Mg2        1.0     0.771188     0.751620     0.886968    Uiso  ? Mg
   Mg3        1.0     0.123850     0.753936     0.892726    Uiso  ? Mg
   Mg4        1.0     0.225473     0.880907     0.646880    Uiso  ? Mg
   Hf1        1.0     0.227044     0.530835     0.629070    Uiso  ? Hf
   Hf2        1.0     0.881055     0.879560     0.646428    Uiso  ? Hf
   Hf3        1.0     0.444418     0.758850     0.375035    Uiso  ? Hf
   Hf4        1.0     0.884750     0.876148     0.121088    Uiso  ? Hf
   N1         1.0     0.222627     0.204050     0.329373    Uiso  ? N
   N2         1.0     0.107259     0.099761     0.082269    Uiso  ? N
   N3         1.0     0.889675     0.207501     0.829377    Uiso  ? N
   N4         1.0     0.771843     0.111024     0.574893    Uiso  ? N
   N5         1.0     0.556323     0.204998     0.329487    Uiso  ? N
   N6         1.0     0.445012     0.095623     0.091467    Uiso  ? N
   N7         1.0     0.208201     0.211527     0.826913    Uiso  ? N
   N8         1.0     0.101562     0.108467     0.574561    Uiso  ? N
   N9         1.0     0.887466     0.207960     0.327886    Uiso  ? N
   N10        1.0     0.764907     0.120953     0.080053    Uiso  ? N
   N11        1.0     0.562695     0.215467     0.824764    Uiso  ? N
   N12        1.0     0.444310     0.096399     0.580612    Uiso  ? N
   N13        1.0     0.225404     0.534636     0.338555    Uiso  ? N
   N14        1.0     0.110870     0.427068     0.084574    Uiso  ? N
   N15        1.0     0.898114     0.522486     0.825238    Uiso  ? N
   N16        1.0     0.776459     0.427147     0.579087    Uiso  ? N
   N17        1.0     0.567864     0.518366     0.321516    Uiso  ? N
   N18        1.0     0.443184     0.427640     0.081580    Uiso  ? N
   N19        1.0     0.230964     0.519397     0.832485    Uiso  ? N
   N20        1.0     0.101826     0.418997     0.571720    Uiso  ? N
   N21        1.0     0.887582     0.536686     0.330540    Uiso  ? N
   N22        1.0     0.779232     0.428196     0.077278    Uiso  ? N
   N23        1.0     0.555115     0.539064     0.835213    Uiso  ? N
   N24        1.0     0.464909     0.420263     0.572417    Uiso  ? N
   N25        1.0     0.203108     0.885704     0.324553    Uiso  ? N
   N26        1.0     0.127454     0.748326     0.098790    Uiso  ? N
   N27        1.0     0.880747     0.888742     0.853219    Uiso  ? N
   N28        1.0     0.772796     0.751701     0.577470    Uiso  ? N
   N29        1.0     0.562460     0.882222     0.329514    Uiso  ? N
   N30        1.0     0.446781     0.759555     0.094290    Uiso  ? N
   N31        1.0     0.228806     0.879729     0.849356    Uiso  ? N
   N32        1.0     0.108595     0.765395     0.569975    Uiso  ? N
   N33        1.0     0.883467     0.876842     0.336763    Uiso  ? N
   N34        1.0     0.769979     0.749945     0.092790    Uiso  ? N
   N35        1.0     0.548098     0.864500     0.823775    Uiso  ? N
   N36        1.0     0.458522     0.748548     0.577420    Uiso  ? N
