
#======================================================================
# CRYSTAL DATA
#----------------------------------------------------------------------
data_VESTA_phase_1

_chemical_name_common                  'Al   Mg   Hf   N                      '
_cell_length_a                         9.959026
_cell_length_b                         10.005110
_cell_length_c                         9.192089
_cell_angle_alpha                      89.930771
_cell_angle_beta                       89.916626
_cell_angle_gamma                      60.121670
_cell_volume                           794.171357
_space_group_name_H-M_alt              'P 1'
_space_group_IT_number                 1

loop_
_space_group_symop_operation_xyz
   'x, y, z'

loop_
   _atom_site_label
   _atom_site_occupancy
   _atom_site_fract_x
   _atom_site_fract_y
   _atom_site_fract_z
   _atom_site_adp_type
   _atom_site_U_iso_or_equiv
   _atom_site_type_symbol
   Al1        1.0     0.106515     0.100642     0.375287    Uiso  ? Al
   Al2        1.0     0.226328     0.199748     0.120538    Uiso  ? Al
   Al3        1.0     0.772356     0.112409     0.876696    Uiso  ? Al
   Al4        1.0     0.889069     0.213191     0.625297    Uiso  ? Al
   Al5        1.0     0.444664     0.097478     0.369953    Uiso  ? Al
   Al6        1.0     0.548558     0.208053     0.122229    Uiso  ? Al
   Al7        1.0     0.108176     0.099752     0.875038    Uiso  ? Al
   Al8        1.0     0.216148     0.205203     0.629486    Uiso  ? Al
   Al9        1.0     0.771679     0.108643     0.366737    Uiso  ? Al
   Al10       1.0     0.889955     0.213678     0.126024    Uiso  ? Al
   Al11       1.0     0.556899     0.209848     0.627530    Uiso  ? Al
   Al12       1.0     0.106975     0.419137     0.359606    Uiso  ? Al
   Al13       1.0     0.226783     0.531812     0.128278    Uiso  ? Al
   Al14       1.0     0.783038     0.423473     0.873928    Uiso  ? Al
   Al15       1.0     0.888909     0.529021     0.627133    Uiso  ? Al
   Al16       1.0     0.456266     0.419408     0.363486    Uiso  ? Al
   Al17       1.0     0.561875     0.531533     0.112549    Uiso  ? Al
   Al18       1.0     0.111029     0.420255     0.883643    Uiso  ? Al
   Al19       1.0     0.780184     0.424564     0.376926    Uiso  ? Al
   Al20       1.0     0.886147     0.534433     0.122347    Uiso  ? Al
   Al21       1.0     0.446841     0.424252     0.881208    Uiso  ? Al
   Al22       1.0     0.562554     0.535575     0.632706    Uiso  ? Al
   Al23       1.0     0.111758     0.764505     0.355857    Uiso  ? Al
   Al24       1.0     0.220496     0.877917     0.098371    Uiso  ? Al
   Al25       1.0     0.551802     0.876526     0.090599    Uiso  ? Al
   Al26       1.0     0.774761     0.756872     0.365088    Uiso  ? Al
   Al27       1.0     0.443191     0.759145     0.873350    Uiso  ? Al
   Al28       1.0     0.551410     0.870659     0.635394    Uiso  ? Al
   Mg1        1.0     0.441431     0.100695     0.862141    Uiso  ? Mg
   Mg2        1.0     0.777812     0.749004     0.861538    Uiso  ? Mg
   Mg3        1.0     0.121726     0.753601     0.866142    Uiso  ? Mg
   Mg4        1.0     0.223886     0.881474     0.629015    Uiso  ? Mg
   Hf1        1.0     0.227222     0.527648     0.605274    Uiso  ? Hf
   Hf2        1.0     0.880431     0.881163     0.614293    Uiso  ? Hf
   Hf3        1.0     0.445658     0.761712     0.355112    Uiso  ? Hf
   Hf4        1.0     0.884790     0.874817     0.103277    Uiso  ? Hf
   N1         1.0     0.224161     0.201220     0.329788    Uiso  ? N
   N2         1.0     0.105572     0.100774     0.084816    Uiso  ? N
   N3         1.0     0.888618     0.207756     0.833143    Uiso  ? N
   N4         1.0     0.769589     0.116660     0.576402    Uiso  ? N
   N5         1.0     0.554987     0.205746     0.331083    Uiso  ? N
   N6         1.0     0.445240     0.095483     0.092191    Uiso  ? N
   N7         1.0     0.207066     0.213232     0.836078    Uiso  ? N
   N8         1.0     0.101400     0.109326     0.581689    Uiso  ? N
   N9         1.0     0.888220     0.210438     0.332484    Uiso  ? N
   N10        1.0     0.767976     0.116991     0.089252    Uiso  ? N
   N11        1.0     0.563137     0.216966     0.832991    Uiso  ? N
   N12        1.0     0.444665     0.096942     0.587952    Uiso  ? N
   N13        1.0     0.226497     0.533556     0.343267    Uiso  ? N
   N14        1.0     0.111081     0.427009     0.095621    Uiso  ? N
   N15        1.0     0.900412     0.519485     0.833655    Uiso  ? N
   N16        1.0     0.775526     0.428440     0.585061    Uiso  ? N
   N17        1.0     0.568335     0.521086     0.323085    Uiso  ? N
   N18        1.0     0.443033     0.427052     0.089831    Uiso  ? N
   N19        1.0     0.231305     0.517249     0.835884    Uiso  ? N
   N20        1.0     0.100847     0.417063     0.570093    Uiso  ? N
   N21        1.0     0.885262     0.536954     0.331624    Uiso  ? N
   N22        1.0     0.779903     0.426253     0.080172    Uiso  ? N
   N23        1.0     0.555142     0.536776     0.843669    Uiso  ? N
   N24        1.0     0.465310     0.421022     0.574538    Uiso  ? N
   N25        1.0     0.206096     0.886184     0.327057    Uiso  ? N
   N26        1.0     0.124631     0.748649     0.105402    Uiso  ? N
   N27        1.0     0.879151     0.891764     0.849638    Uiso  ? N
   N28        1.0     0.771810     0.749441     0.586035    Uiso  ? N
   N29        1.0     0.561105     0.882570     0.334068    Uiso  ? N
   N30        1.0     0.447365     0.756241     0.095290    Uiso  ? N
   N31        1.0     0.227236     0.880400     0.861940    Uiso  ? N
   N32        1.0     0.113414     0.761988     0.578377    Uiso  ? N
   N33        1.0     0.883414     0.877675     0.347041    Uiso  ? N
   N34        1.0     0.772081     0.750764     0.096576    Uiso  ? N
   N35        1.0     0.547693     0.865793     0.845373    Uiso  ? N
   N36        1.0     0.458480     0.749333     0.588061    Uiso  ? N
