
#======================================================================
# CRYSTAL DATA
#----------------------------------------------------------------------
data_VESTA_phase_1

_chemical_name_common                  'Al   Mg   Hf   N                      '
_cell_length_a                         9.964363
_cell_length_b                         10.008142
_cell_length_c                         9.199839
_cell_angle_alpha                      89.951111
_cell_angle_beta                       89.954109
_cell_angle_gamma                      60.048752
_cell_volume                           794.926192
_space_group_name_H-M_alt              'P 1'
_space_group_IT_number                 1

loop_
_space_group_symop_operation_xyz
   'x, y, z'

loop_
   _atom_site_label
   _atom_site_occupancy
   _atom_site_fract_x
   _atom_site_fract_y
   _atom_site_fract_z
   _atom_site_adp_type
   _atom_site_U_iso_or_equiv
   _atom_site_type_symbol
   Al1        1.0     0.106108     0.098155     0.333948    Uiso  ? Al
   Al2        1.0     0.222076     0.202985     0.083513    Uiso  ? Al
   Al3        1.0     0.772655     0.111669     0.832044    Uiso  ? Al
   Al4        1.0     0.889522     0.215239     0.580366    Uiso  ? Al
   Al5        1.0     0.445581     0.097459     0.339307    Uiso  ? Al
   Al6        1.0     0.552551     0.208855     0.080128    Uiso  ? Al
   Al7        1.0     0.109227     0.100989     0.830484    Uiso  ? Al
   Al8        1.0     0.220451     0.202449     0.579522    Uiso  ? Al
   Al9        1.0     0.771833     0.108816     0.337110    Uiso  ? Al
   Al10       1.0     0.889738     0.210790     0.081578    Uiso  ? Al
   Al11       1.0     0.553147     0.208505     0.581984    Uiso  ? Al
   Al12       1.0     0.110473     0.424472     0.328059    Uiso  ? Al
   Al13       1.0     0.226877     0.530486     0.076606    Uiso  ? Al
   Al14       1.0     0.781180     0.424893     0.834071    Uiso  ? Al
   Al15       1.0     0.885931     0.530975     0.581255    Uiso  ? Al
   Al16       1.0     0.447783     0.422796     0.324648    Uiso  ? Al
   Al17       1.0     0.557191     0.539626     0.077807    Uiso  ? Al
   Al18       1.0     0.106897     0.416046     0.839720    Uiso  ? Al
   Al19       1.0     0.780528     0.423204     0.328485    Uiso  ? Al
   Al20       1.0     0.888570     0.532330     0.081791    Uiso  ? Al
   Al21       1.0     0.455490     0.421832     0.841589    Uiso  ? Al
   Al22       1.0     0.567087     0.528681     0.589099    Uiso  ? Al
   Al23       1.0     0.115471     0.758236     0.339367    Uiso  ? Al
   Al24       1.0     0.226771     0.876727     0.078890    Uiso  ? Al
   Al25       1.0     0.548893     0.873537     0.066560    Uiso  ? Al
   Al26       1.0     0.774686     0.756883     0.342672    Uiso  ? Al
   Al27       1.0     0.444901     0.759145     0.826865    Uiso  ? Al
   Al28       1.0     0.553869     0.875784     0.606617    Uiso  ? Al
   Mg1        1.0     0.439845     0.101384     0.838587    Uiso  ? Mg
   Mg2        1.0     0.776857     0.748857     0.841482    Uiso  ? Mg
   Mg3        1.0     0.119015     0.760817     0.849855    Uiso  ? Mg
   Mg4        1.0     0.218829     0.882874     0.604002    Uiso  ? Mg
   Hf1        1.0     0.227552     0.527517     0.604167    Uiso  ? Hf
   Hf2        1.0     0.880798     0.878157     0.602476    Uiso  ? Hf
   Hf3        1.0     0.444665     0.761855     0.355851    Uiso  ? Hf
   Hf4        1.0     0.883851     0.876944     0.092831    Uiso  ? Hf
   N1         1.0     0.220630     0.206192     0.367966    Uiso  ? N
   N2         1.0     0.108213     0.095373     0.125482    Uiso  ? N
   N3         1.0     0.888840     0.207665     0.875035    Uiso  ? N
   N4         1.0     0.768937     0.118058     0.617439    Uiso  ? N
   N5         1.0     0.553574     0.210119     0.371599    Uiso  ? N
   N6         1.0     0.447389     0.092386     0.123285    Uiso  ? N
   N7         1.0     0.209430     0.209081     0.879863    Uiso  ? N
   N8         1.0     0.100240     0.112681     0.622335    Uiso  ? N
   N9         1.0     0.888132     0.209652     0.372397    Uiso  ? N
   N10        1.0     0.769075     0.114707     0.128735    Uiso  ? N
   N11        1.0     0.564351     0.212133     0.876389    Uiso  ? N
   N12        1.0     0.441947     0.100686     0.608032    Uiso  ? N
   N13        1.0     0.226040     0.533629     0.367545    Uiso  ? N
   N14        1.0     0.111249     0.428417     0.121945    Uiso  ? N
   N15        1.0     0.895548     0.521489     0.877583    Uiso  ? N
   N16        1.0     0.779194     0.426527     0.625589    Uiso  ? N
   N17        1.0     0.565184     0.518904     0.375333    Uiso  ? N
   N18        1.0     0.444611     0.429507     0.117282    Uiso  ? N
   N19        1.0     0.231178     0.518536     0.862263    Uiso  ? N
   N20        1.0     0.100072     0.416857     0.623811    Uiso  ? N
   N21        1.0     0.889209     0.534333     0.369794    Uiso  ? N
   N22        1.0     0.775566     0.427758     0.122557    Uiso  ? N
   N23        1.0     0.556893     0.539815     0.870550    Uiso  ? N
   N24        1.0     0.464869     0.418511     0.629722    Uiso  ? N
   N25        1.0     0.206431     0.881878     0.364533    Uiso  ? N
   N26        1.0     0.127177     0.750623     0.115805    Uiso  ? N
   N27        1.0     0.876790     0.892017     0.858784    Uiso  ? N
   N28        1.0     0.775193     0.747176     0.606940    Uiso  ? N
   N29        1.0     0.561178     0.882760     0.381131    Uiso  ? N
   N30        1.0     0.446999     0.759076     0.120461    Uiso  ? N
   N31        1.0     0.229980     0.882639     0.868654    Uiso  ? N
   N32        1.0     0.112369     0.759167     0.609746    Uiso  ? N
   N33        1.0     0.886618     0.875324     0.355651    Uiso  ? N
   N34        1.0     0.767453     0.752683     0.122751    Uiso  ? N
   N35        1.0     0.547129     0.867355     0.859107    Uiso  ? N
   N36        1.0     0.458502     0.748441     0.610693    Uiso  ? N
