
#======================================================================
# CRYSTAL DATA
#----------------------------------------------------------------------
data_VESTA_phase_1

_chemical_name_common                  'Al   Mg   Hf   N                      '
_cell_length_a                         9.659666
_cell_length_b                         9.688162
_cell_length_c                         10.080805
_cell_angle_alpha                      89.909554
_cell_angle_beta                       89.900085
_cell_angle_gamma                      60.133923
_cell_volume                           818.112498
_space_group_name_H-M_alt              'P 1'
_space_group_IT_number                 1

loop_
_space_group_symop_operation_xyz
   'x, y, z'

loop_
   _atom_site_label
   _atom_site_occupancy
   _atom_site_fract_x
   _atom_site_fract_y
   _atom_site_fract_z
   _atom_site_adp_type
   _atom_site_U_iso_or_equiv
   _atom_site_type_symbol
   Al1        1.0     0.104326     0.101845     0.384933    Uiso  ? Al
   Al2        1.0     0.224617     0.203575     0.134075    Uiso  ? Al
   Al3        1.0     0.771396     0.111889     0.884684    Uiso  ? Al
   Al4        1.0     0.890878     0.212030     0.635556    Uiso  ? Al
   Al5        1.0     0.443364     0.100083     0.384248    Uiso  ? Al
   Al6        1.0     0.548115     0.210749     0.134591    Uiso  ? Al
   Al7        1.0     0.111938     0.096273     0.884776    Uiso  ? Al
   Al8        1.0     0.217290     0.202219     0.637073    Uiso  ? Al
   Al9        1.0     0.774662     0.102387     0.381447    Uiso  ? Al
   Al10       1.0     0.888408     0.214187     0.134057    Uiso  ? Al
   Al11       1.0     0.556848     0.207565     0.636029    Uiso  ? Al
   Al12       1.0     0.108437     0.421953     0.379217    Uiso  ? Al
   Al13       1.0     0.227308     0.531110     0.138119    Uiso  ? Al
   Al14       1.0     0.781437     0.426045     0.882128    Uiso  ? Al
   Al15       1.0     0.886434     0.530952     0.635621    Uiso  ? Al
   Al16       1.0     0.453185     0.418921     0.379446    Uiso  ? Al
   Al17       1.0     0.560276     0.532331     0.126588    Uiso  ? Al
   Al18       1.0     0.110247     0.419579     0.885553    Uiso  ? Al
   Al19       1.0     0.782014     0.421972     0.385844    Uiso  ? Al
   Al20       1.0     0.888561     0.533445     0.135264    Uiso  ? Al
   Al21       1.0     0.448728     0.423746     0.886002    Uiso  ? Al
   Al22       1.0     0.563688     0.536553     0.639712    Uiso  ? Al
   Al23       1.0     0.106599     0.764640     0.375025    Uiso  ? Al
   Al24       1.0     0.220741     0.877585     0.124706    Uiso  ? Al
   Al25       1.0     0.552379     0.877793     0.132258    Uiso  ? Al
   Al26       1.0     0.779368     0.757886     0.382250    Uiso  ? Al
   Al27       1.0     0.443951     0.764373     0.886481    Uiso  ? Al
   Al28       1.0     0.550929     0.869853     0.638606    Uiso  ? Al
   Mg1        1.0     0.443864     0.094254     0.878905    Uiso  ? Mg
   Mg2        1.0     0.771201     0.751589     0.883018    Uiso  ? Mg
   Mg3        1.0     0.123902     0.753827     0.888770    Uiso  ? Mg
   Mg4        1.0     0.225546     0.880886     0.643097    Uiso  ? Mg
   Hf1        1.0     0.227029     0.530830     0.624986    Uiso  ? Hf
   Hf2        1.0     0.881064     0.879598     0.642498    Uiso  ? Hf
   Hf3        1.0     0.444417     0.758879     0.370990    Uiso  ? Hf
   Hf4        1.0     0.884779     0.876110     0.117089    Uiso  ? Hf
   N1         1.0     0.222655     0.204018     0.325573    Uiso  ? N
   N2         1.0     0.107243     0.099809     0.078481    Uiso  ? N
   N3         1.0     0.889680     0.207504     0.825594    Uiso  ? N
   N4         1.0     0.771843     0.111066     0.571087    Uiso  ? N
   N5         1.0     0.556323     0.205002     0.325678    Uiso  ? N
   N6         1.0     0.445026     0.095625     0.087619    Uiso  ? N
   N7         1.0     0.208199     0.211521     0.823150    Uiso  ? N
   N8         1.0     0.101594     0.108430     0.570809    Uiso  ? N
   N9         1.0     0.887481     0.207979     0.324122    Uiso  ? N
   N10        1.0     0.764935     0.120947     0.076299    Uiso  ? N
   N11        1.0     0.562715     0.215470     0.821009    Uiso  ? N
   N12        1.0     0.444333     0.096410     0.576851    Uiso  ? N
   N13        1.0     0.225415     0.534627     0.334863    Uiso  ? N
   N14        1.0     0.110903     0.427067     0.080800    Uiso  ? N
   N15        1.0     0.898138     0.522444     0.821480    Uiso  ? N
   N16        1.0     0.776455     0.427165     0.575319    Uiso  ? N
   N17        1.0     0.567888     0.518339     0.317715    Uiso  ? N
   N18        1.0     0.443168     0.427633     0.077785    Uiso  ? N
   N19        1.0     0.230986     0.519336     0.828544    Uiso  ? N
   N20        1.0     0.101794     0.418958     0.567899    Uiso  ? N
   N21        1.0     0.887562     0.536696     0.326720    Uiso  ? N
   N22        1.0     0.779251     0.428171     0.073490    Uiso  ? N
   N23        1.0     0.555103     0.539075     0.831450    Uiso  ? N
   N24        1.0     0.464960     0.420263     0.568635    Uiso  ? N
   N25        1.0     0.203094     0.885730     0.320664    Uiso  ? N
   N26        1.0     0.127478     0.748259     0.094970    Uiso  ? N
   N27        1.0     0.880749     0.888760     0.849446    Uiso  ? N
   N28        1.0     0.772821     0.751692     0.573700    Uiso  ? N
   N29        1.0     0.562484     0.882251     0.325693    Uiso  ? N
   N30        1.0     0.446839     0.759515     0.090594    Uiso  ? N
   N31        1.0     0.228823     0.879716     0.845758    Uiso  ? N
   N32        1.0     0.108625     0.765458     0.566197    Uiso  ? N
   N33        1.0     0.883468     0.876857     0.332937    Uiso  ? N
   N34        1.0     0.770011     0.749932     0.088942    Uiso  ? N
   N35        1.0     0.548064     0.864479     0.820024    Uiso  ? N
   N36        1.0     0.458534     0.748563     0.573538    Uiso  ? N
