
#======================================================================
# CRYSTAL DATA
#----------------------------------------------------------------------
data_VESTA_phase_1

_chemical_name_common                  'Al   Mg   Hf   N                      '
_cell_length_a                         9.701810
_cell_length_b                         9.731328
_cell_length_c                         9.996289
_cell_angle_alpha                      89.965866
_cell_angle_beta                       89.941238
_cell_angle_gamma                      60.022781
_cell_volume                           817.511250
_space_group_name_H-M_alt              'P 1'
_space_group_IT_number                 1

loop_
_space_group_symop_operation_xyz
   'x, y, z'

loop_
   _atom_site_label
   _atom_site_occupancy
   _atom_site_fract_x
   _atom_site_fract_y
   _atom_site_fract_z
   _atom_site_adp_type
   _atom_site_U_iso_or_equiv
   _atom_site_type_symbol
   Al1        1.0     0.105364     0.098328     0.322951    Uiso  ? Al
   Al2        1.0     0.221227     0.204843     0.073294    Uiso  ? Al
   Al3        1.0     0.772673     0.108861     0.827217    Uiso  ? Al
   Al4        1.0     0.890435     0.213988     0.577115    Uiso  ? Al
   Al5        1.0     0.443955     0.099796     0.325291    Uiso  ? Al
   Al6        1.0     0.551052     0.211779     0.072583    Uiso  ? Al
   Al7        1.0     0.110688     0.099588     0.826413    Uiso  ? Al
   Al8        1.0     0.220956     0.200709     0.574236    Uiso  ? Al
   Al9        1.0     0.773242     0.106775     0.324714    Uiso  ? Al
   Al10       1.0     0.888898     0.212121     0.071817    Uiso  ? Al
   Al11       1.0     0.554531     0.206879     0.574199    Uiso  ? Al
   Al12       1.0     0.109956     0.424268     0.320728    Uiso  ? Al
   Al13       1.0     0.228213     0.528679     0.066391    Uiso  ? Al
   Al14       1.0     0.780338     0.426769     0.827038    Uiso  ? Al
   Al15       1.0     0.884797     0.532980     0.574056    Uiso  ? Al
   Al16       1.0     0.447709     0.421656     0.319560    Uiso  ? Al
   Al17       1.0     0.556583     0.538270     0.070674    Uiso  ? Al
   Al18       1.0     0.108107     0.417376     0.831323    Uiso  ? Al
   Al19       1.0     0.782130     0.421405     0.323129    Uiso  ? Al
   Al20       1.0     0.889125     0.531256     0.072971    Uiso  ? Al
   Al21       1.0     0.453686     0.422336     0.831512    Uiso  ? Al
   Al22       1.0     0.566994     0.531174     0.581037    Uiso  ? Al
   Al23       1.0     0.114365     0.758446     0.317721    Uiso  ? Al
   Al24       1.0     0.227312     0.876044     0.067433    Uiso  ? Al
   Al25       1.0     0.549045     0.872099     0.067236    Uiso  ? Al
   Al26       1.0     0.777644     0.755711     0.325184    Uiso  ? Al
   Al27       1.0     0.446493     0.762441     0.821389    Uiso  ? Al
   Al28       1.0     0.554136     0.876717     0.580067    Uiso  ? Al
   Mg1        1.0     0.443263     0.096138     0.829633    Uiso  ? Mg
   Mg2        1.0     0.774002     0.753285     0.827876    Uiso  ? Mg
   Mg3        1.0     0.117053     0.760610     0.836663    Uiso  ? Mg
   Mg4        1.0     0.219623     0.882736     0.587021    Uiso  ? Mg
   Hf1        1.0     0.227229     0.529334     0.588064    Uiso  ? Hf
   Hf2        1.0     0.882043     0.879084     0.579465    Uiso  ? Hf
   Hf3        1.0     0.443563     0.760421     0.341157    Uiso  ? Hf
   Hf4        1.0     0.882907     0.876973     0.077340    Uiso  ? Hf
   N1         1.0     0.220519     0.205375     0.378727    Uiso  ? N
   N2         1.0     0.108494     0.095221     0.131828    Uiso  ? N
   N3         1.0     0.888335     0.208211     0.882692    Uiso  ? N
   N4         1.0     0.768711     0.117141     0.632349    Uiso  ? N
   N5         1.0     0.555055     0.207927     0.380738    Uiso  ? N
   N6         1.0     0.445768     0.094670     0.131929    Uiso  ? N
   N7         1.0     0.209835     0.209567     0.888224    Uiso  ? N
   N8         1.0     0.100775     0.112420     0.635911    Uiso  ? N
   N9         1.0     0.888885     0.207156     0.383472    Uiso  ? N
   N10        1.0     0.768758     0.115418     0.136118    Uiso  ? N
   N11        1.0     0.563794     0.213254     0.887325    Uiso  ? N
   N12        1.0     0.443529     0.098516     0.618250    Uiso  ? N
   N13        1.0     0.223516     0.536638     0.374871    Uiso  ? N
   N14        1.0     0.111049     0.428195     0.131518    Uiso  ? N
   N15        1.0     0.895441     0.522979     0.886889    Uiso  ? N
   N16        1.0     0.779444     0.427309     0.634083    Uiso  ? N
   N17        1.0     0.565686     0.517404     0.385976    Uiso  ? N
   N18        1.0     0.443875     0.429809     0.130035    Uiso  ? N
   N19        1.0     0.231879     0.517823     0.873903    Uiso  ? N
   N20        1.0     0.100008     0.417794     0.634401    Uiso  ? N
   N21        1.0     0.889065     0.535174     0.379844    Uiso  ? N
   N22        1.0     0.775684     0.427740     0.132966    Uiso  ? N
   N23        1.0     0.555851     0.540301     0.879977    Uiso  ? N
   N24        1.0     0.465369     0.418235     0.637891    Uiso  ? N
   N25        1.0     0.202931     0.881641     0.374378    Uiso  ? N
   N26        1.0     0.127963     0.750526     0.123501    Uiso  ? N
   N27        1.0     0.876354     0.891617     0.873532    Uiso  ? N
   N28        1.0     0.773615     0.750368     0.618481    Uiso  ? N
   N29        1.0     0.562912     0.882942     0.383756    Uiso  ? N
   N30        1.0     0.444458     0.758340     0.131545    Uiso  ? N
   N31        1.0     0.230671     0.881618     0.879281    Uiso  ? N
   N32        1.0     0.111070     0.760126     0.631064    Uiso  ? N
   N33        1.0     0.888192     0.873538     0.361242    Uiso  ? N
   N34        1.0     0.768556     0.750438     0.133704    Uiso  ? N
   N35        1.0     0.547884     0.865401     0.884313    Uiso  ? N
   N36        1.0     0.459819     0.751420     0.619914    Uiso  ? N
