
#======================================================================
# CRYSTAL DATA
#----------------------------------------------------------------------
data_VESTA_phase_1

_chemical_name_common                  'Al   Mg   Hf   N                      '
_cell_length_a                         9.837754
_cell_length_b                         9.876146
_cell_length_c                         9.590611
_cell_angle_alpha                      89.962021
_cell_angle_beta                       89.963882
_cell_angle_gamma                      60.027931
_cell_volume                           807.202423
_space_group_name_H-M_alt              'P 1'
_space_group_IT_number                 1

loop_
_space_group_symop_operation_xyz
   'x, y, z'

loop_
   _atom_site_label
   _atom_site_occupancy
   _atom_site_fract_x
   _atom_site_fract_y
   _atom_site_fract_z
   _atom_site_adp_type
   _atom_site_U_iso_or_equiv
   _atom_site_type_symbol
   Al1        1.0     0.105729     0.097822     0.327459    Uiso  ? Al
   Al2        1.0     0.221515     0.204172     0.078057    Uiso  ? Al
   Al3        1.0     0.772087     0.111400     0.828545    Uiso  ? Al
   Al4        1.0     0.890098     0.214697     0.577860    Uiso  ? Al
   Al5        1.0     0.444963     0.098486     0.330445    Uiso  ? Al
   Al6        1.0     0.551766     0.210796     0.076212    Uiso  ? Al
   Al7        1.0     0.109962     0.100686     0.827810    Uiso  ? Al
   Al8        1.0     0.220747     0.201477     0.575592    Uiso  ? Al
   Al9        1.0     0.773016     0.107224     0.330565    Uiso  ? Al
   Al10       1.0     0.889220     0.211567     0.075880    Uiso  ? Al
   Al11       1.0     0.553749     0.207660     0.576440    Uiso  ? Al
   Al12       1.0     0.110725     0.425034     0.324653    Uiso  ? Al
   Al13       1.0     0.227844     0.528922     0.068223    Uiso  ? Al
   Al14       1.0     0.780691     0.425831     0.829657    Uiso  ? Al
   Al15       1.0     0.885089     0.531797     0.576171    Uiso  ? Al
   Al16       1.0     0.446636     0.422864     0.322140    Uiso  ? Al
   Al17       1.0     0.556252     0.539925     0.074360    Uiso  ? Al
   Al18       1.0     0.106730     0.415604     0.833482    Uiso  ? Al
   Al19       1.0     0.781342     0.422237     0.324957    Uiso  ? Al
   Al20       1.0     0.889170     0.531551     0.077236    Uiso  ? Al
   Al21       1.0     0.456123     0.421445     0.834859    Uiso  ? Al
   Al22       1.0     0.567957     0.528488     0.583001    Uiso  ? Al
   Al23       1.0     0.114972     0.757950     0.326772    Uiso  ? Al
   Al24       1.0     0.228374     0.875973     0.071624    Uiso  ? Al
   Al25       1.0     0.548437     0.872327     0.065928    Uiso  ? Al
   Al26       1.0     0.776180     0.757005     0.332469    Uiso  ? Al
   Al27       1.0     0.446175     0.760275     0.820907    Uiso  ? Al
   Al28       1.0     0.554483     0.876991     0.591523    Uiso  ? Al
   Mg1        1.0     0.441351     0.099204     0.833886    Uiso  ? Mg
   Mg2        1.0     0.775225     0.749831     0.834315    Uiso  ? Mg
   Mg3        1.0     0.118295     0.761022     0.843166    Uiso  ? Mg
   Mg4        1.0     0.218145     0.883547     0.596142    Uiso  ? Mg
   Hf1        1.0     0.227246     0.528323     0.599801    Uiso  ? Hf
   Hf2        1.0     0.881134     0.878341     0.594092    Uiso  ? Hf
   Hf3        1.0     0.443605     0.761567     0.351798    Uiso  ? Hf
   Hf4        1.0     0.883123     0.877445     0.083134    Uiso  ? Hf
   N1         1.0     0.220669     0.205671     0.373684    Uiso  ? N
   N2         1.0     0.108556     0.094801     0.128902    Uiso  ? N
   N3         1.0     0.888550     0.208028     0.879294    Uiso  ? N
   N4         1.0     0.768323     0.118761     0.625519    Uiso  ? N
   N5         1.0     0.554147     0.209132     0.376231    Uiso  ? N
   N6         1.0     0.446734     0.093347     0.127675    Uiso  ? N
   N7         1.0     0.209448     0.209305     0.885051    Uiso  ? N
   N8         1.0     0.100211     0.113388     0.630128    Uiso  ? N
   N9         1.0     0.888627     0.208543     0.378483    Uiso  ? N
   N10        1.0     0.769020     0.115137     0.133116    Uiso  ? N
   N11        1.0     0.564247     0.212932     0.883006    Uiso  ? N
   N12        1.0     0.442482     0.100256     0.614854    Uiso  ? N
   N13        1.0     0.224604     0.535573     0.375025    Uiso  ? N
   N14        1.0     0.111699     0.428661     0.127723    Uiso  ? N
   N15        1.0     0.895729     0.521406     0.883402    Uiso  ? N
   N16        1.0     0.779438     0.426786     0.630261    Uiso  ? N
   N17        1.0     0.565714     0.517508     0.380789    Uiso  ? N
   N18        1.0     0.443451     0.430219     0.124509    Uiso  ? N
   N19        1.0     0.232030     0.517115     0.865169    Uiso  ? N
   N20        1.0     0.099155     0.416665     0.629429    Uiso  ? N
   N21        1.0     0.888963     0.534979     0.375079    Uiso  ? N
   N22        1.0     0.775548     0.427784     0.128265    Uiso  ? N
   N23        1.0     0.556144     0.540615     0.875951    Uiso  ? N
   N24        1.0     0.466367     0.417711     0.634008    Uiso  ? N
   N25        1.0     0.203698     0.882022     0.371961    Uiso  ? N
   N26        1.0     0.127943     0.750132     0.119079    Uiso  ? N
   N27        1.0     0.875847     0.892130     0.864851    Uiso  ? N
   N28        1.0     0.774370     0.747598     0.614749    Uiso  ? N
   N29        1.0     0.562395     0.883582     0.384022    Uiso  ? N
   N30        1.0     0.445697     0.759039     0.129217    Uiso  ? N
   N31        1.0     0.231248     0.882041     0.873367    Uiso  ? N
   N32        1.0     0.111987     0.759763     0.624695    Uiso  ? N
   N33        1.0     0.887717     0.874267     0.360092    Uiso  ? N
   N34        1.0     0.767947     0.751909     0.128675    Uiso  ? N
   N35        1.0     0.546830     0.866216     0.872242    Uiso  ? N
   N36        1.0     0.459395     0.749617     0.612450    Uiso  ? N
