
#======================================================================
# CRYSTAL DATA
#----------------------------------------------------------------------
data_VESTA_phase_1

_chemical_name_common                  'Al   Mg   Hf   N                      '
_cell_length_a                         9.919044
_cell_length_b                         9.964187
_cell_length_c                         9.312824
_cell_angle_alpha                      89.926979
_cell_angle_beta                       89.918427
_cell_angle_gamma                      60.120968
_cell_volume                           798.088867
_space_group_name_H-M_alt              'P 1'
_space_group_IT_number                 1

loop_
_space_group_symop_operation_xyz
   'x, y, z'

loop_
   _atom_site_label
   _atom_site_occupancy
   _atom_site_fract_x
   _atom_site_fract_y
   _atom_site_fract_z
   _atom_site_adp_type
   _atom_site_U_iso_or_equiv
   _atom_site_type_symbol
   Al1        1.0     0.106269     0.100498     0.376643    Uiso  ? Al
   Al2        1.0     0.226225     0.200410     0.122858    Uiso  ? Al
   Al3        1.0     0.772036     0.112684     0.877830    Uiso  ? Al
   Al4        1.0     0.889297     0.213178     0.626961    Uiso  ? Al
   Al5        1.0     0.444762     0.097505     0.372781    Uiso  ? Al
   Al6        1.0     0.548235     0.208524     0.124177    Uiso  ? Al
   Al7        1.0     0.108472     0.099858     0.876944    Uiso  ? Al
   Al8        1.0     0.216023     0.204787     0.630457    Uiso  ? Al
   Al9        1.0     0.772132     0.107882     0.368942    Uiso  ? Al
   Al10       1.0     0.889661     0.213860     0.127304    Uiso  ? Al
   Al11       1.0     0.557069     0.209703     0.628870    Uiso  ? Al
   Al12       1.0     0.106889     0.419201     0.362695    Uiso  ? Al
   Al13       1.0     0.226958     0.531404     0.131019    Uiso  ? Al
   Al14       1.0     0.782793     0.423909     0.875181    Uiso  ? Al
   Al15       1.0     0.888494     0.529153     0.628381    Uiso  ? Al
   Al16       1.0     0.456449     0.419043     0.366492    Uiso  ? Al
   Al17       1.0     0.561995     0.530710     0.114915    Uiso  ? Al
   Al18       1.0     0.111139     0.420115     0.883631    Uiso  ? Al
   Al19       1.0     0.780337     0.424246     0.378436    Uiso  ? Al
   Al20       1.0     0.886629     0.534213     0.124352    Uiso  ? Al
   Al21       1.0     0.446697     0.424313     0.881500    Uiso  ? Al
   Al22       1.0     0.562399     0.536476     0.633602    Uiso  ? Al
   Al23       1.0     0.110862     0.765115     0.358350    Uiso  ? Al
   Al24       1.0     0.220025     0.878035     0.100323    Uiso  ? Al
   Al25       1.0     0.552365     0.877236     0.099593    Uiso  ? Al
   Al26       1.0     0.775047     0.757244     0.368206    Uiso  ? Al
   Al27       1.0     0.443776     0.759426     0.878654    Uiso  ? Al
   Al28       1.0     0.551023     0.870008     0.638011    Uiso  ? Al
   Mg1        1.0     0.441638     0.099990     0.864495    Uiso  ? Mg
   Mg2        1.0     0.777112     0.749090     0.864645    Uiso  ? Mg
   Mg3        1.0     0.122095     0.752751     0.869162    Uiso  ? Mg
   Mg4        1.0     0.224911     0.881125     0.632226    Uiso  ? Mg
   Hf1        1.0     0.227098     0.528103     0.606452    Uiso  ? Hf
   Hf2        1.0     0.880465     0.881278     0.617656    Uiso  ? Hf
   Hf3        1.0     0.445246     0.761535     0.355590    Uiso  ? Hf
   Hf4        1.0     0.884842     0.874873     0.104431    Uiso  ? Hf
   N1         1.0     0.224212     0.201318     0.328804    Uiso  ? N
   N2         1.0     0.105517     0.101392     0.083314    Uiso  ? N
   N3         1.0     0.888745     0.207836     0.831500    Uiso  ? N
   N4         1.0     0.769800     0.116470     0.574879    Uiso  ? N
   N5         1.0     0.555129     0.205564     0.329748    Uiso  ? N
   N6         1.0     0.444685     0.096447     0.089727    Uiso  ? N
   N7         1.0     0.206999     0.213114     0.833108    Uiso  ? N
   N8         1.0     0.101473     0.108821     0.579462    Uiso  ? N
   N9         1.0     0.888109     0.210235     0.330649    Uiso  ? N
   N10        1.0     0.767388     0.117710     0.086677    Uiso  ? N
   N11        1.0     0.563089     0.217021     0.830400    Uiso  ? N
   N12        1.0     0.445154     0.096087     0.585818    Uiso  ? N
   N13        1.0     0.226491     0.533425     0.342725    Uiso  ? N
   N14        1.0     0.111283     0.426949     0.092811    Uiso  ? N
   N15        1.0     0.900332     0.519505     0.831014    Uiso  ? N
   N16        1.0     0.775478     0.428380     0.583037    Uiso  ? N
   N17        1.0     0.568415     0.520378     0.321571    Uiso  ? N
   N18        1.0     0.442724     0.427139     0.087192    Uiso  ? N
   N19        1.0     0.231359     0.517095     0.832524    Uiso  ? N
   N20        1.0     0.100614     0.417089     0.568921    Uiso  ? N
   N21        1.0     0.885336     0.537077     0.330220    Uiso  ? N
   N22        1.0     0.779907     0.426468     0.078578    Uiso  ? N
   N23        1.0     0.554854     0.537446     0.841230    Uiso  ? N
   N24        1.0     0.465623     0.420972     0.573134    Uiso  ? N
   N25        1.0     0.205409     0.886463     0.324016    Uiso  ? N
   N26        1.0     0.124938     0.747974     0.103451    Uiso  ? N
   N27        1.0     0.879415     0.891521     0.848669    Uiso  ? N
   N28        1.0     0.771177     0.749912     0.583362    Uiso  ? N
   N29        1.0     0.561476     0.882873     0.327484    Uiso  ? N
   N30        1.0     0.447653     0.756061     0.095074    Uiso  ? N
   N31        1.0     0.227517     0.880150     0.861373    Uiso  ? N
   N32        1.0     0.113248     0.762914     0.575395    Uiso  ? N
   N33        1.0     0.883122     0.877740     0.345198    Uiso  ? N
   N34        1.0     0.772774     0.750053     0.093621    Uiso  ? N
   N35        1.0     0.547400     0.865424     0.841855    Uiso  ? N
   N36        1.0     0.458771     0.749623     0.583099    Uiso  ? N
