
#======================================================================
# CRYSTAL DATA
#----------------------------------------------------------------------
data_VESTA_phase_1

_chemical_name_common                  'Al   Mg   Hf   N                      '
_cell_length_a                         9.923131
_cell_length_b                         9.965501
_cell_length_c                         9.327198
_cell_angle_alpha                      89.954575
_cell_angle_beta                       89.959038
_cell_angle_gamma                      60.042435
_cell_volume                           799.125636
_space_group_name_H-M_alt              'P 1'
_space_group_IT_number                 1

loop_
_space_group_symop_operation_xyz
   'x, y, z'

loop_
   _atom_site_label
   _atom_site_occupancy
   _atom_site_fract_x
   _atom_site_fract_y
   _atom_site_fract_z
   _atom_site_adp_type
   _atom_site_U_iso_or_equiv
   _atom_site_type_symbol
   Al1        1.0     0.105981     0.097962     0.331523    Uiso  ? Al
   Al2        1.0     0.221861     0.203426     0.081635    Uiso  ? Al
   Al3        1.0     0.772365     0.111768     0.830659    Uiso  ? Al
   Al4        1.0     0.889735     0.215080     0.579343    Uiso  ? Al
   Al5        1.0     0.445448     0.097678     0.336099    Uiso  ? Al
   Al6        1.0     0.552295     0.209546     0.078773    Uiso  ? Al
   Al7        1.0     0.109437     0.101025     0.829406    Uiso  ? Al
   Al8        1.0     0.220525     0.202153     0.577845    Uiso  ? Al
   Al9        1.0     0.772286     0.108241     0.334828    Uiso  ? Al
   Al10       1.0     0.889534     0.211066     0.079466    Uiso  ? Al
   Al11       1.0     0.553292     0.208266     0.579731    Uiso  ? Al
   Al12       1.0     0.110662     0.424784     0.326844    Uiso  ? Al
   Al13       1.0     0.227240     0.529891     0.073068    Uiso  ? Al
   Al14       1.0     0.781006     0.425210     0.832367    Uiso  ? Al
   Al15       1.0     0.885672     0.531164     0.579166    Uiso  ? Al
   Al16       1.0     0.447220     0.422947     0.323697    Uiso  ? Al
   Al17       1.0     0.556795     0.539887     0.076627    Uiso  ? Al
   Al18       1.0     0.106697     0.415717     0.837153    Uiso  ? Al
   Al19       1.0     0.780787     0.422866     0.327128    Uiso  ? Al
   Al20       1.0     0.888806     0.532017     0.080226    Uiso  ? Al
   Al21       1.0     0.455949     0.421596     0.839017    Uiso  ? Al
   Al22       1.0     0.567514     0.528353     0.586583    Uiso  ? Al
   Al23       1.0     0.115368     0.758035     0.334915    Uiso  ? Al
   Al24       1.0     0.227530     0.876387     0.076017    Uiso  ? Al
   Al25       1.0     0.548626     0.873092     0.065737    Uiso  ? Al
   Al26       1.0     0.775091     0.757064     0.339160    Uiso  ? Al
   Al27       1.0     0.445368     0.759262     0.824120    Uiso  ? Al
   Al28       1.0     0.554094     0.876249     0.601974    Uiso  ? Al
   Mg1        1.0     0.440182     0.100962     0.836878    Uiso  ? Mg
   Mg2        1.0     0.776501     0.748924     0.839082    Uiso  ? Mg
   Mg3        1.0     0.118743     0.760942     0.847477    Uiso  ? Mg
   Mg4        1.0     0.218484     0.883229     0.601595    Uiso  ? Mg
   Hf1        1.0     0.227456     0.527729     0.603236    Uiso  ? Hf
   Hf2        1.0     0.880823     0.878213     0.600487    Uiso  ? Hf
   Hf3        1.0     0.444269     0.761882     0.355000    Uiso  ? Hf
   Hf4        1.0     0.883610     0.877154     0.089708    Uiso  ? Hf
   N1         1.0     0.220606     0.206050     0.369926    Uiso  ? N
   N2         1.0     0.108357     0.095048     0.126703    Uiso  ? N
   N3         1.0     0.888722     0.207818     0.876578    Uiso  ? N
   N4         1.0     0.768637     0.118480     0.620256    Uiso  ? N
   N5         1.0     0.553723     0.209851     0.373181    Uiso  ? N
   N6         1.0     0.447241     0.092565     0.124820    Uiso  ? N
   N7         1.0     0.209381     0.209163     0.881912    Uiso  ? N
   N8         1.0     0.100170     0.113094     0.625190    Uiso  ? N
   N9         1.0     0.888327     0.209302     0.374586    Uiso  ? N
   N10        1.0     0.769035     0.114933     0.130372    Uiso  ? N
   N11        1.0     0.564349     0.212421     0.878902    Uiso  ? N
   N12        1.0     0.441974     0.100793     0.610616    Uiso  ? N
   N13        1.0     0.225584     0.534272     0.370738    Uiso  ? N
   N14        1.0     0.111480     0.428588     0.124092    Uiso  ? N
   N15        1.0     0.895637     0.521307     0.879835    Uiso  ? N
   N16        1.0     0.779304     0.426593     0.627266    Uiso  ? N
   N17        1.0     0.565372     0.518386     0.377264    Uiso  ? N
   N18        1.0     0.444110     0.429837     0.119862    Uiso  ? N
   N19        1.0     0.231530     0.517923     0.862845    Uiso  ? N
   N20        1.0     0.099654     0.416692     0.625885    Uiso  ? N
   N21        1.0     0.889155     0.534526     0.371633    Uiso  ? N
   N22        1.0     0.775531     0.427761     0.124625    Uiso  ? N
   N23        1.0     0.556638     0.540149     0.872571    Uiso  ? N
   N24        1.0     0.465531     0.418146     0.631329    Uiso  ? N
   N25        1.0     0.205458     0.881972     0.367646    Uiso  ? N
   N26        1.0     0.127615     0.750354     0.116842    Uiso  ? N
   N27        1.0     0.876384     0.892113     0.860580    Uiso  ? N
   N28        1.0     0.775075     0.747069     0.609795    Uiso  ? N
   N29        1.0     0.561588     0.883135     0.382851    Uiso  ? N
   N30        1.0     0.446599     0.759187     0.123848    Uiso  ? N
   N31        1.0     0.230531     0.882418     0.870003    Uiso  ? N
   N32        1.0     0.112255     0.759331     0.615342    Uiso  ? N
   N33        1.0     0.887046     0.874940     0.356899    Uiso  ? N
   N34        1.0     0.767449     0.752492     0.124804    Uiso  ? N
   N35        1.0     0.546949     0.867005     0.862944    Uiso  ? N
   N36        1.0     0.458837     0.748640     0.611009    Uiso  ? N
