
#======================================================================
# CRYSTAL DATA
#----------------------------------------------------------------------
data_VESTA_phase_1

_chemical_name_common                  'Al   Mg   Hf   N                      '
_cell_length_a                         10.083665
_cell_length_b                         10.128950
_cell_length_c                         8.838799
_cell_angle_alpha                      89.941879
_cell_angle_beta                       89.934128
_cell_angle_gamma                      60.061295
_cell_volume                           782.301690
_space_group_name_H-M_alt              'P 1'
_space_group_IT_number                 1

loop_
_space_group_symop_operation_xyz
   'x, y, z'

loop_
   _atom_site_label
   _atom_site_occupancy
   _atom_site_fract_x
   _atom_site_fract_y
   _atom_site_fract_z
   _atom_site_adp_type
   _atom_site_U_iso_or_equiv
   _atom_site_type_symbol
   Al1        1.0     0.106624     0.098802     0.343032    Uiso  ? Al
   Al2        1.0     0.222948     0.201492     0.090441    Uiso  ? Al
   Al3        1.0     0.773634     0.110922     0.838373    Uiso  ? Al
   Al4        1.0     0.888872     0.215361     0.585339    Uiso  ? Al
   Al5        1.0     0.445678     0.097320     0.348088    Uiso  ? Al
   Al6        1.0     0.552882     0.207249     0.085349    Uiso  ? Al
   Al7        1.0     0.108876     0.100111     0.835847    Uiso  ? Al
   Al8        1.0     0.220571     0.202931     0.588153    Uiso  ? Al
   Al9        1.0     0.770490     0.110341     0.344182    Uiso  ? Al
   Al10       1.0     0.890466     0.210046     0.089486    Uiso  ? Al
   Al11       1.0     0.553196     0.208602     0.591718    Uiso  ? Al
   Al12       1.0     0.109321     0.422941     0.334359    Uiso  ? Al
   Al13       1.0     0.226074     0.532072     0.091332    Uiso  ? Al
   Al14       1.0     0.781674     0.423989     0.841284    Uiso  ? Al
   Al15       1.0     0.886367     0.531048     0.590948    Uiso  ? Al
   Al16       1.0     0.450127     0.421772     0.329770    Uiso  ? Al
   Al17       1.0     0.558430     0.538022     0.082936    Uiso  ? Al
   Al18       1.0     0.108207     0.417778     0.852220    Uiso  ? Al
   Al19       1.0     0.779954     0.424205     0.334286    Uiso  ? Al
   Al20       1.0     0.887776     0.533504     0.088017    Uiso  ? Al
   Al21       1.0     0.453248     0.422917     0.850688    Uiso  ? Al
   Al22       1.0     0.565413     0.530754     0.600058    Uiso  ? Al
   Al23       1.0     0.115817     0.759338     0.347877    Uiso  ? Al
   Al24       1.0     0.223792     0.878157     0.088415    Uiso  ? Al
   Al25       1.0     0.550105     0.874857     0.072611    Uiso  ? Al
   Al26       1.0     0.773853     0.755836     0.350525    Uiso  ? Al
   Al27       1.0     0.443624     0.760243     0.839192    Uiso  ? Al
   Al28       1.0     0.553271     0.874598     0.615420    Uiso  ? Al
   Mg1        1.0     0.439897     0.100835     0.844771    Uiso  ? Mg
   Mg2        1.0     0.776493     0.749524     0.847873    Uiso  ? Mg
   Mg3        1.0     0.120277     0.760094     0.855854    Uiso  ? Mg
   Mg4        1.0     0.219929     0.881439     0.609765    Uiso  ? Mg
   Hf1        1.0     0.227473     0.527384     0.605274    Uiso  ? Hf
   Hf2        1.0     0.881195     0.877842     0.604794    Uiso  ? Hf
   Hf3        1.0     0.445806     0.761147     0.356504    Uiso  ? Hf
   Hf4        1.0     0.884255     0.876441     0.098820    Uiso  ? Hf
   N1         1.0     0.221442     0.205725     0.360912    Uiso  ? N
   N2         1.0     0.107787     0.096661     0.120371    Uiso  ? N
   N3         1.0     0.889289     0.207181     0.869026    Uiso  ? N
   N4         1.0     0.770064     0.116245     0.608629    Uiso  ? N
   N5         1.0     0.553474     0.210090     0.365725    Uiso  ? N
   N6         1.0     0.447459     0.092693     0.117865    Uiso  ? N
   N7         1.0     0.209745     0.209122     0.870960    Uiso  ? N
   N8         1.0     0.100727     0.110799     0.612172    Uiso  ? N
   N9         1.0     0.887491     0.210428     0.364494    Uiso  ? N
   N10        1.0     0.769255     0.113789     0.121941    Uiso  ? N
   N11        1.0     0.563910     0.211711     0.866780    Uiso  ? N
   N12        1.0     0.442648     0.099247     0.600353    Uiso  ? N
   N13        1.0     0.226912     0.532668     0.354779    Uiso  ? N
   N14        1.0     0.110429     0.427505     0.114317    Uiso  ? N
   N15        1.0     0.895610     0.522423     0.868527    Uiso  ? N
   N16        1.0     0.778551     0.426546     0.619133    Uiso  ? N
   N17        1.0     0.564629     0.520876     0.366885    Uiso  ? N
   N18        1.0     0.446233     0.428186     0.109309    Uiso  ? N
   N19        1.0     0.230226     0.520267     0.861489    Uiso  ? N
   N20        1.0     0.101557     0.417801     0.613008    Uiso  ? N
   N21        1.0     0.888595     0.534460     0.362678    Uiso  ? N
   N22        1.0     0.775995     0.427661     0.114718    Uiso  ? N
   N23        1.0     0.557377     0.538549     0.863269    Uiso  ? N
   N24        1.0     0.462446     0.420023     0.621775    Uiso  ? N
   N25        1.0     0.209040     0.881302     0.353354    Uiso  ? N
   N26        1.0     0.125098     0.751809     0.113357    Uiso  ? N
   N27        1.0     0.877931     0.891736     0.855129    Uiso  ? N
   N28        1.0     0.774673     0.748322     0.599415    Uiso  ? N
   N29        1.0     0.560251     0.881414     0.371673    Uiso  ? N
   N30        1.0     0.447650     0.758284     0.108534    Uiso  ? N
   N31        1.0     0.228081     0.883293     0.865814    Uiso  ? N
   N32        1.0     0.112833     0.758712     0.596594    Uiso  ? N
   N33        1.0     0.885430     0.876510     0.353661    Uiso  ? N
   N34        1.0     0.768404     0.753028     0.116845    Uiso  ? N
   N35        1.0     0.547750     0.868131     0.852909    Uiso  ? N
   N36        1.0     0.457480     0.749012     0.610122    Uiso  ? N
