
#======================================================================
# CRYSTAL DATA
#----------------------------------------------------------------------
data_VESTA_phase_1

_chemical_name_common                  'Al   Mg   Hf   N '
_cell_length_a                         9.659941
_cell_length_b                         9.685335
_cell_length_c                         10.104781
_cell_angle_alpha                      89.957024
_cell_angle_beta                       89.905113
_cell_angle_gamma                      60.047722
_cell_volume                           819.133529
_space_group_name_H-M_alt              'P 1'
_space_group_IT_number                 1

loop_
_space_group_symop_operation_xyz
   'x, y, z'

loop_
   _atom_site_label
   _atom_site_occupancy
   _atom_site_fract_x
   _atom_site_fract_y
   _atom_site_fract_z
   _atom_site_adp_type
   _atom_site_U_iso_or_equiv
   _atom_site_type_symbol
   Al1        1.0     0.105442     0.098354     0.294076    Uiso  ? Al
   Al2        1.0     0.221226     0.204835     0.044243    Uiso  ? Al
   Al3        1.0     0.773102     0.107696     0.799504    Uiso  ? Al
   Al4        1.0     0.890537     0.213707     0.549325    Uiso  ? Al
   Al5        1.0     0.443789     0.099836     0.296741    Uiso  ? Al
   Al6        1.0     0.550853     0.211706     0.043610    Uiso  ? Al
   Al7        1.0     0.110823     0.099328     0.798109    Uiso  ? Al
   Al8        1.0     0.220980     0.200661     0.546145    Uiso  ? Al
   Al9        1.0     0.773074     0.106977     0.294971    Uiso  ? Al
   Al10       1.0     0.888879     0.212214     0.042945    Uiso  ? Al
   Al11       1.0     0.554818     0.206709     0.546241    Uiso  ? Al
   Al12       1.0     0.109682     0.423793     0.291302    Uiso  ? Al
   Al13       1.0     0.228367     0.528819     0.039028    Uiso  ? Al
   Al14       1.0     0.780378     0.427105     0.798551    Uiso  ? Al
   Al15       1.0     0.885208     0.533330     0.545894    Uiso  ? Al
   Al16       1.0     0.448587     0.421044     0.290671    Uiso  ? Al
   Al17       1.0     0.557116     0.537267     0.041440    Uiso  ? Al
   Al18       1.0     0.108839     0.418366     0.803508    Uiso  ? Al
   Al19       1.0     0.782385     0.421156     0.295098    Uiso  ? Al
   Al20       1.0     0.888923     0.531241     0.043875    Uiso  ? Al
   Al21       1.0     0.452470     0.422857     0.803240    Uiso  ? Al
   Al22       1.0     0.566405     0.532529     0.553356    Uiso  ? Al
   Al23       1.0     0.114694     0.758498     0.287455    Uiso  ? Al
   Al24       1.0     0.226564     0.876178     0.038084    Uiso  ? Al
   Al25       1.0     0.549399     0.872360     0.038814    Uiso  ? Al
   Al26       1.0     0.777794     0.755014     0.295662    Uiso  ? Al
   Al27       1.0     0.446610     0.762912     0.794518    Uiso  ? Al
   Al28       1.0     0.553912     0.876167     0.550548    Uiso  ? Al
   Mg1        1.0     0.443487     0.095717     0.800278    Uiso  ? Mg
   Mg2        1.0     0.774408     0.754796     0.798296    Uiso  ? Mg
   Mg3        1.0     0.116466     0.760330     0.806594    Uiso  ? Mg
   Mg4        1.0     0.221063     0.881972     0.556890    Uiso  ? Mg
   Hf1        1.0     0.227521     0.529460     0.555257    Uiso  ? Hf
   Hf2        1.0     0.882536     0.879612     0.546266    Uiso  ? Hf
   Hf3        1.0     0.443977     0.759915     0.308328    Uiso  ? Hf
   Hf4        1.0     0.883150     0.876474     0.049385    Uiso  ? Hf
   N1         1.0     0.220427     0.205384     0.351876    Uiso  ? N
   N2         1.0     0.108426     0.095224     0.104554    Uiso  ? N
   N3         1.0     0.888321     0.208368     0.855497    Uiso  ? N
   N4         1.0     0.769081     0.116076     0.606183    Uiso  ? N
   N5         1.0     0.555467     0.207527     0.354020    Uiso  ? N
   N6         1.0     0.445543     0.094767     0.105201    Uiso  ? N
   N7         1.0     0.209959     0.209727     0.860959    Uiso  ? N
   N8         1.0     0.101087     0.111850     0.609108    Uiso  ? N
   N9         1.0     0.888996     0.206545     0.356724    Uiso  ? N
   N10        1.0     0.768442     0.115737     0.108596    Uiso  ? N
   N11        1.0     0.563519     0.213250     0.860172    Uiso  ? N
   N12        1.0     0.443672     0.098063     0.590610    Uiso  ? N
   N13        1.0     0.223510     0.536572     0.345001    Uiso  ? N
   N14        1.0     0.110607     0.427943     0.104141    Uiso  ? N
   N15        1.0     0.895309     0.523852     0.859528    Uiso  ? N
   N16        1.0     0.779552     0.427530     0.606955    Uiso  ? N
   N17        1.0     0.565412     0.517999     0.359468    Uiso  ? N
   N18        1.0     0.444497     0.429342     0.103225    Uiso  ? N
   N19        1.0     0.231737     0.518543     0.849535    Uiso  ? N
   N20        1.0     0.100877     0.418430     0.607750    Uiso  ? N
   N21        1.0     0.889406     0.535009     0.353055    Uiso  ? N
   N22        1.0     0.775740     0.427639     0.106238    Uiso  ? N
   N23        1.0     0.556105     0.539857     0.852901    Uiso  ? N
   N24        1.0     0.464454     0.418726     0.611015    Uiso  ? N
   N25        1.0     0.203720     0.881119     0.346604    Uiso  ? N
   N26        1.0     0.128386     0.750633     0.096776    Uiso  ? N
   N27        1.0     0.877050     0.891418     0.848916    Uiso  ? N
   N28        1.0     0.774043     0.751595     0.590657    Uiso  ? N
   N29        1.0     0.562856     0.882221     0.356130    Uiso  ? N
   N30        1.0     0.444196     0.758150     0.102090    Uiso  ? N
   N31        1.0     0.230118     0.881542     0.852470    Uiso  ? N
   N32        1.0     0.110707     0.759885     0.603066    Uiso  ? N
   N33        1.0     0.888338     0.873354     0.331456    Uiso  ? N
   N34        1.0     0.768210     0.749840     0.106923    Uiso  ? N
   N35        1.0     0.548657     0.865600     0.858317    Uiso  ? N
   N36        1.0     0.460114     0.751745     0.596041    Uiso  ? N
