
#======================================================================
# CRYSTAL DATA
#----------------------------------------------------------------------
data_VESTA_phase_1

_chemical_name_common                  'Al   Mg   Hf   N                      '
_cell_length_a                         9.657582
_cell_length_b                         9.685789
_cell_length_c                         10.086637
_cell_angle_alpha                      89.908806
_cell_angle_beta                       89.897385
_cell_angle_gamma                      60.136589
_cell_volume                           818.230634
_space_group_name_H-M_alt              'P 1'
_space_group_IT_number                 1

loop_
_space_group_symop_operation_xyz
   'x, y, z'

loop_
   _atom_site_label
   _atom_site_occupancy
   _atom_site_fract_x
   _atom_site_fract_y
   _atom_site_fract_z
   _atom_site_adp_type
   _atom_site_U_iso_or_equiv
   _atom_site_type_symbol
   Al1        1.0     0.104266     0.101891     0.396265    Uiso  ? Al
   Al2        1.0     0.224557     0.203604     0.145423    Uiso  ? Al
   Al3        1.0     0.771363     0.111853     0.895990    Uiso  ? Al
   Al4        1.0     0.890842     0.212031     0.646892    Uiso  ? Al
   Al5        1.0     0.443310     0.100096     0.395575    Uiso  ? Al
   Al6        1.0     0.548082     0.210777     0.145947    Uiso  ? Al
   Al7        1.0     0.111932     0.096237     0.896067    Uiso  ? Al
   Al8        1.0     0.217267     0.202221     0.648399    Uiso  ? Al
   Al9        1.0     0.774629     0.102378     0.392828    Uiso  ? Al
   Al10       1.0     0.888361     0.214196     0.145352    Uiso  ? Al
   Al11       1.0     0.556799     0.207549     0.647349    Uiso  ? Al
   Al12       1.0     0.108441     0.422003     0.390596    Uiso  ? Al
   Al13       1.0     0.227267     0.531139     0.149387    Uiso  ? Al
   Al14       1.0     0.781399     0.426070     0.893444    Uiso  ? Al
   Al15       1.0     0.886393     0.530975     0.646945    Uiso  ? Al
   Al16       1.0     0.453085     0.418953     0.390784    Uiso  ? Al
   Al17       1.0     0.560208     0.532412     0.137927    Uiso  ? Al
   Al18       1.0     0.110189     0.419600     0.896884    Uiso  ? Al
   Al19       1.0     0.781991     0.421962     0.397165    Uiso  ? Al
   Al20       1.0     0.888534     0.533452     0.146630    Uiso  ? Al
   Al21       1.0     0.448726     0.423746     0.897357    Uiso  ? Al
   Al22       1.0     0.563678     0.536516     0.651055    Uiso  ? Al
   Al23       1.0     0.106570     0.764576     0.386415    Uiso  ? Al
   Al24       1.0     0.220734     0.877590     0.136220    Uiso  ? Al
   Al25       1.0     0.552304     0.877780     0.143644    Uiso  ? Al
   Al26       1.0     0.779336     0.757883     0.393619    Uiso  ? Al
   Al27       1.0     0.443880     0.764427     0.897698    Uiso  ? Al
   Al28       1.0     0.550895     0.869881     0.649950    Uiso  ? Al
   Mg1        1.0     0.443831     0.094256     0.890301    Uiso  ? Mg
   Mg2        1.0     0.771163     0.751630     0.894444    Uiso  ? Mg
   Mg3        1.0     0.123821     0.753947     0.900202    Uiso  ? Mg
   Mg4        1.0     0.225445     0.880916     0.654354    Uiso  ? Mg
   Hf1        1.0     0.227019     0.530842     0.636550    Uiso  ? Hf
   Hf2        1.0     0.881029     0.879570     0.653903    Uiso  ? Hf
   Hf3        1.0     0.444392     0.758856     0.382518    Uiso  ? Hf
   Hf4        1.0     0.884725     0.876154     0.128569    Uiso  ? Hf
   N1         1.0     0.222601     0.204058     0.336843    Uiso  ? N
   N2         1.0     0.107233     0.099768     0.089740    Uiso  ? N
   N3         1.0     0.889650     0.207510     0.836848    Uiso  ? N
   N4         1.0     0.771817     0.111031     0.582362    Uiso  ? N
   N5         1.0     0.556298     0.205005     0.336956    Uiso  ? N
   N6         1.0     0.444986     0.095631     0.098939    Uiso  ? N
   N7         1.0     0.208175     0.211535     0.834383    Uiso  ? N
   N8         1.0     0.101536     0.108475     0.582030    Uiso  ? N
   N9         1.0     0.887440     0.207967     0.335355    Uiso  ? N
   N10        1.0     0.764880     0.120962     0.087522    Uiso  ? N
   N11        1.0     0.562670     0.215475     0.832235    Uiso  ? N
   N12        1.0     0.444284     0.096406     0.588081    Uiso  ? N
   N13        1.0     0.225379     0.534644     0.346023    Uiso  ? N
   N14        1.0     0.110844     0.427075     0.092044    Uiso  ? N
   N15        1.0     0.898089     0.522495     0.832708    Uiso  ? N
   N16        1.0     0.776433     0.427155     0.586557    Uiso  ? N
   N17        1.0     0.567838     0.518375     0.328986    Uiso  ? N
   N18        1.0     0.443159     0.427647     0.089050    Uiso  ? N
   N19        1.0     0.230938     0.519406     0.839958    Uiso  ? N
   N20        1.0     0.101801     0.419006     0.579189    Uiso  ? N
   N21        1.0     0.887557     0.536694     0.338010    Uiso  ? N
   N22        1.0     0.779206     0.428204     0.084749    Uiso  ? N
   N23        1.0     0.555090     0.539072     0.842683    Uiso  ? N
   N24        1.0     0.464882     0.420271     0.579886    Uiso  ? N
   N25        1.0     0.203081     0.885713     0.332025    Uiso  ? N
   N26        1.0     0.127427     0.748335     0.106260    Uiso  ? N
   N27        1.0     0.880721     0.888750     0.860685    Uiso  ? N
   N28        1.0     0.772769     0.751708     0.584940    Uiso  ? N
   N29        1.0     0.562434     0.882230     0.336985    Uiso  ? N
   N30        1.0     0.446754     0.759564     0.101758    Uiso  ? N
   N31        1.0     0.228780     0.879737     0.856824    Uiso  ? N
   N32        1.0     0.108570     0.765401     0.577443    Uiso  ? N
   N33        1.0     0.883442     0.876850     0.344236    Uiso  ? N
   N34        1.0     0.769954     0.749954     0.100262    Uiso  ? N
   N35        1.0     0.548074     0.864509     0.831245    Uiso  ? N
   N36        1.0     0.458495     0.748556     0.584891    Uiso  ? N
