
#======================================================================
# CRYSTAL DATA
#----------------------------------------------------------------------
data_VESTA_phase_1

_chemical_name_common                  'Al   Mg   Hf   N                      '
_cell_length_a                         9.663462
_cell_length_b                         9.689674
_cell_length_c                         10.104120
_cell_angle_alpha                      89.956024
_cell_angle_beta                       89.903664
_cell_angle_gamma                      60.049618
_cell_volume                           819.761196
_space_group_name_H-M_alt              'P 1'
_space_group_IT_number                 1

loop_
_space_group_symop_operation_xyz
   'x, y, z'

loop_
   _atom_site_label
   _atom_site_occupancy
   _atom_site_fract_x
   _atom_site_fract_y
   _atom_site_fract_z
   _atom_site_adp_type
   _atom_site_U_iso_or_equiv
   _atom_site_type_symbol
   Al1        1.0     0.105422     0.098354     0.304888    Uiso  ? Al
   Al2        1.0     0.221181     0.204871     0.055057    Uiso  ? Al
   Al3        1.0     0.773038     0.107732     0.810321    Uiso  ? Al
   Al4        1.0     0.890472     0.213729     0.560138    Uiso  ? Al
   Al5        1.0     0.443769     0.099834     0.307536    Uiso  ? Al
   Al6        1.0     0.550828     0.211734     0.054420    Uiso  ? Al
   Al7        1.0     0.110763     0.099373     0.808915    Uiso  ? Al
   Al8        1.0     0.220912     0.200702     0.556952    Uiso  ? Al
   Al9        1.0     0.773043     0.107003     0.305777    Uiso  ? Al
   Al10       1.0     0.888852     0.212222     0.053760    Uiso  ? Al
   Al11       1.0     0.554760     0.206713     0.557050    Uiso  ? Al
   Al12       1.0     0.109666     0.423798     0.302131    Uiso  ? Al
   Al13       1.0     0.228343     0.528841     0.049825    Uiso  ? Al
   Al14       1.0     0.780339     0.427097     0.809372    Uiso  ? Al
   Al15       1.0     0.885140     0.533352     0.556710    Uiso  ? Al
   Al16       1.0     0.448569     0.421037     0.301502    Uiso  ? Al
   Al17       1.0     0.557090     0.537270     0.052275    Uiso  ? Al
   Al18       1.0     0.108779     0.418374     0.814312    Uiso  ? Al
   Al19       1.0     0.782375     0.421143     0.305904    Uiso  ? Al
   Al20       1.0     0.888904     0.531241     0.054686    Uiso  ? Al
   Al21       1.0     0.452440     0.422860     0.814046    Uiso  ? Al
   Al22       1.0     0.566380     0.532502     0.564146    Uiso  ? Al
   Al23       1.0     0.114704     0.758495     0.298272    Uiso  ? Al
   Al24       1.0     0.226557     0.876201     0.048892    Uiso  ? Al
   Al25       1.0     0.549379     0.872353     0.049616    Uiso  ? Al
   Al26       1.0     0.777776     0.754999     0.306460    Uiso  ? Al
   Al27       1.0     0.446579     0.762897     0.805317    Uiso  ? Al
   Al28       1.0     0.553870     0.876176     0.561332    Uiso  ? Al
   Mg1        1.0     0.443433     0.095708     0.811115    Uiso  ? Mg
   Mg2        1.0     0.774355     0.754795     0.809139    Uiso  ? Mg
   Mg3        1.0     0.116398     0.760395     0.817423    Uiso  ? Mg
   Mg4        1.0     0.220995     0.882013     0.567736    Uiso  ? Mg
   Hf1        1.0     0.227454     0.529510     0.566145    Uiso  ? Hf
   Hf2        1.0     0.882468     0.879628     0.557090    Uiso  ? Hf
   Hf3        1.0     0.443959     0.759899     0.319190    Uiso  ? Hf
   Hf4        1.0     0.883134     0.876504     0.060240    Uiso  ? Hf
   N1         1.0     0.220398     0.205397     0.362646    Uiso  ? N
   N2         1.0     0.108401     0.095241     0.115328    Uiso  ? N
   N3         1.0     0.888265     0.208384     0.866280    Uiso  ? N
   N4         1.0     0.769035     0.116061     0.616947    Uiso  ? N
   N5         1.0     0.555443     0.207524     0.364785    Uiso  ? N
   N6         1.0     0.445515     0.094781     0.115952    Uiso  ? N
   N7         1.0     0.209879     0.209774     0.871738    Uiso  ? N
   N8         1.0     0.101017     0.111896     0.619879    Uiso  ? N
   N9         1.0     0.888969     0.206553     0.367497    Uiso  ? N
   N10        1.0     0.768422     0.115736     0.119365    Uiso  ? N
   N11        1.0     0.563467     0.213288     0.870946    Uiso  ? N
   N12        1.0     0.443619     0.098054     0.601376    Uiso  ? N
   N13        1.0     0.223493     0.536581     0.355836    Uiso  ? N
   N14        1.0     0.110588     0.427968     0.114927    Uiso  ? N
   N15        1.0     0.895267     0.523841     0.870302    Uiso  ? N
   N16        1.0     0.779505     0.427535     0.617738    Uiso  ? N
   N17        1.0     0.565398     0.518001     0.370216    Uiso  ? N
   N18        1.0     0.444460     0.429349     0.114011    Uiso  ? N
   N19        1.0     0.231686     0.518564     0.860273    Uiso  ? N
   N20        1.0     0.100820     0.418464     0.618511    Uiso  ? N
   N21        1.0     0.889372     0.535012     0.363832    Uiso  ? N
   N22        1.0     0.775736     0.427631     0.117010    Uiso  ? N
   N23        1.0     0.556060     0.539859     0.863699    Uiso  ? N
   N24        1.0     0.464398     0.418729     0.621769    Uiso  ? N
   N25        1.0     0.203722     0.881127     0.357350    Uiso  ? N
   N26        1.0     0.128366     0.750646     0.107532    Uiso  ? N
   N27        1.0     0.876967     0.891478     0.859735    Uiso  ? N
   N28        1.0     0.773992     0.751611     0.601416    Uiso  ? N
   N29        1.0     0.562827     0.882217     0.366861    Uiso  ? N
   N30        1.0     0.444184     0.758150     0.112897    Uiso  ? N
   N31        1.0     0.230083     0.881588     0.863228    Uiso  ? N
   N32        1.0     0.110613     0.759928     0.613816    Uiso  ? N
   N33        1.0     0.888324     0.873351     0.342222    Uiso  ? N
   N34        1.0     0.768216     0.749843     0.117668    Uiso  ? N
   N35        1.0     0.548601     0.865589     0.869087    Uiso  ? N
   N36        1.0     0.460094     0.751722     0.606761    Uiso  ? N
