
#======================================================================
# CRYSTAL DATA
#----------------------------------------------------------------------
data_VESTA_phase_1

_chemical_name_common                  'Al   Mg   Hf   N                      '
_cell_length_a                         9.696927
_cell_length_b                         9.729682
_cell_length_c                         9.974577
_cell_angle_alpha                      89.914001
_cell_angle_beta                       89.921104
_cell_angle_gamma                      60.113724
_cell_volume                           815.931744
_space_group_name_H-M_alt              'P 1'
_space_group_IT_number                 1

loop_
_space_group_symop_operation_xyz
   'x, y, z'

loop_
   _atom_site_label
   _atom_site_occupancy
   _atom_site_fract_x
   _atom_site_fract_y
   _atom_site_fract_z
   _atom_site_adp_type
   _atom_site_U_iso_or_equiv
   _atom_site_type_symbol
   Al1        1.0     0.104692     0.101233     0.382065    Uiso  ? Al
   Al2        1.0     0.224932     0.203280     0.130998    Uiso  ? Al
   Al3        1.0     0.771367     0.112412     0.882058    Uiso  ? Al
   Al4        1.0     0.890745     0.212293     0.632745    Uiso  ? Al
   Al5        1.0     0.443665     0.099874     0.381440    Uiso  ? Al
   Al6        1.0     0.548061     0.210450     0.131333    Uiso  ? Al
   Al7        1.0     0.111296     0.097234     0.882558    Uiso  ? Al
   Al8        1.0     0.217025     0.202430     0.634405    Uiso  ? Al
   Al9        1.0     0.774392     0.103086     0.378027    Uiso  ? Al
   Al10       1.0     0.888521     0.214213     0.131680    Uiso  ? Al
   Al11       1.0     0.556943     0.208031     0.633539    Uiso  ? Al
   Al12       1.0     0.107829     0.421279     0.375623    Uiso  ? Al
   Al13       1.0     0.227317     0.530884     0.136309    Uiso  ? Al
   Al14       1.0     0.781474     0.425842     0.879609    Uiso  ? Al
   Al15       1.0     0.886567     0.530653     0.633062    Uiso  ? Al
   Al16       1.0     0.454176     0.418603     0.376532    Uiso  ? Al
   Al17       1.0     0.560798     0.531265     0.123615    Uiso  ? Al
   Al18       1.0     0.110585     0.419536     0.883049    Uiso  ? Al
   Al19       1.0     0.781718     0.422343     0.383259    Uiso  ? Al
   Al20       1.0     0.888383     0.533555     0.131925    Uiso  ? Al
   Al21       1.0     0.448119     0.424002     0.883099    Uiso  ? Al
   Al22       1.0     0.563226     0.537255     0.636927    Uiso  ? Al
   Al23       1.0     0.106834     0.765561     0.371183    Uiso  ? Al
   Al24       1.0     0.220259     0.877714     0.118216    Uiso  ? Al
   Al25       1.0     0.552942     0.878150     0.128024    Uiso  ? Al
   Al26       1.0     0.778960     0.757905     0.378974    Uiso  ? Al
   Al27       1.0     0.444516     0.763533     0.885550    Uiso  ? Al
   Al28       1.0     0.550788     0.869531     0.636287    Uiso  ? Al
   Mg1        1.0     0.443647     0.094681     0.875029    Uiso  ? Mg
   Mg2        1.0     0.771606     0.751225     0.878528    Uiso  ? Mg
   Mg3        1.0     0.124007     0.752475     0.884220    Uiso  ? Mg
   Mg4        1.0     0.226360     0.880625     0.641536    Uiso  ? Mg
   Hf1        1.0     0.226768     0.530607     0.618995    Uiso  ? Hf
   Hf2        1.0     0.881015     0.880162     0.637707    Uiso  ? Hf
   Hf3        1.0     0.444144     0.759440     0.365391    Uiso  ? Hf
   Hf4        1.0     0.884966     0.875721     0.112746    Uiso  ? Hf
   N1         1.0     0.222973     0.203492     0.323994    Uiso  ? N
   N2         1.0     0.106714     0.100768     0.077105    Uiso  ? N
   N3         1.0     0.889544     0.207680     0.824312    Uiso  ? N
   N4         1.0     0.771474     0.112183     0.569400    Uiso  ? N
   N5         1.0     0.556134     0.205096     0.323971    Uiso  ? N
   N6         1.0     0.444972     0.095784     0.085293    Uiso  ? N
   N7         1.0     0.207963     0.211617     0.822193    Uiso  ? N
   N8         1.0     0.101837     0.107906     0.569954    Uiso  ? N
   N9         1.0     0.887527     0.208390     0.323033    Uiso  ? N
   N10        1.0     0.765283     0.120656     0.075475    Uiso  ? N
   N11        1.0     0.562755     0.215723     0.820234    Uiso  ? N
   N12        1.0     0.444584     0.096449     0.575979    Uiso  ? N
   N13        1.0     0.225507     0.534409     0.335028    Uiso  ? N
   N14        1.0     0.111209     0.427067     0.079943    Uiso  ? N
   N15        1.0     0.898426     0.521816     0.820679    Uiso  ? N
   N16        1.0     0.776201     0.427473     0.574256    Uiso  ? N
   N17        1.0     0.568070     0.518125     0.316135    Uiso  ? N
   N18        1.0     0.442771     0.427602     0.076565    Uiso  ? N
   N19        1.0     0.231150     0.518537     0.825038    Uiso  ? N
   N20        1.0     0.101136     0.418362     0.565934    Uiso  ? N
   N21        1.0     0.887069     0.536870     0.324859    Uiso  ? N
   N22        1.0     0.779371     0.427871     0.072134    Uiso  ? N
   N23        1.0     0.554793     0.539260     0.830633    Uiso  ? N
   N24        1.0     0.465518     0.420299     0.567342    Uiso  ? N
   N25        1.0     0.202823     0.886165     0.317517    Uiso  ? N
   N26        1.0     0.127304     0.747403     0.093377    Uiso  ? N
   N27        1.0     0.880545     0.889273     0.847234    Uiso  ? N
   N28        1.0     0.772725     0.751385     0.572711    Uiso  ? N
   N29        1.0     0.562608     0.882691     0.323470    Uiso  ? N
   N30        1.0     0.447612     0.758801     0.090578    Uiso  ? N
   N31        1.0     0.228839     0.879640     0.847989    Uiso  ? N
   N32        1.0     0.109406     0.766088     0.564972    Uiso  ? N
   N33        1.0     0.883257     0.877126     0.331868    Uiso  ? N
   N34        1.0     0.770481     0.749815     0.086704    Uiso  ? N
   N35        1.0     0.547410     0.864324     0.819876    Uiso  ? N
   N36        1.0     0.458440     0.748896     0.570886    Uiso  ? N
