
#======================================================================
# CRYSTAL DATA
#----------------------------------------------------------------------
data_VESTA_phase_1

_chemical_name_common                  'Al   Mg   Hf   N                      '
_cell_length_a                         9.657586
_cell_length_b                         9.685794
_cell_length_c                         10.086605
_cell_angle_alpha                      89.908829
_cell_angle_beta                       89.897392
_cell_angle_gamma                      60.136681
_cell_volume                           818.229481
_space_group_name_H-M_alt              'P 1'
_space_group_IT_number                 1

loop_
_space_group_symop_operation_xyz
   'x, y, z'

loop_
   _atom_site_label
   _atom_site_occupancy
   _atom_site_fract_x
   _atom_site_fract_y
   _atom_site_fract_z
   _atom_site_adp_type
   _atom_site_U_iso_or_equiv
   _atom_site_type_symbol
   Al1        1.0     0.104227     0.101903     0.407185    Uiso  ? Al
   Al2        1.0     0.224521     0.203614     0.156344    Uiso  ? Al
   Al3        1.0     0.771326     0.111865     0.906915    Uiso  ? Al
   Al4        1.0     0.890803     0.212043     0.657815    Uiso  ? Al
   Al5        1.0     0.443272     0.100107     0.406496    Uiso  ? Al
   Al6        1.0     0.548044     0.210788     0.156867    Uiso  ? Al
   Al7        1.0     0.111895     0.096248     0.906989    Uiso  ? Al
   Al8        1.0     0.217227     0.202234     0.659320    Uiso  ? Al
   Al9        1.0     0.774591     0.102388     0.403740    Uiso  ? Al
   Al10       1.0     0.888324     0.214207     0.156272    Uiso  ? Al
   Al11       1.0     0.556763     0.207561     0.658270    Uiso  ? Al
   Al12       1.0     0.108403     0.422013     0.401511    Uiso  ? Al
   Al13       1.0     0.227231     0.531150     0.160300    Uiso  ? Al
   Al14       1.0     0.781360     0.426082     0.904361    Uiso  ? Al
   Al15       1.0     0.886355     0.530989     0.657865    Uiso  ? Al
   Al16       1.0     0.453048     0.418962     0.401698    Uiso  ? Al
   Al17       1.0     0.560172     0.532422     0.148847    Uiso  ? Al
   Al18       1.0     0.110152     0.419612     0.907805    Uiso  ? Al
   Al19       1.0     0.781954     0.421971     0.408085    Uiso  ? Al
   Al20       1.0     0.888497     0.533461     0.157549    Uiso  ? Al
   Al21       1.0     0.448690     0.423758     0.908276    Uiso  ? Al
   Al22       1.0     0.563638     0.536529     0.661969    Uiso  ? Al
   Al23       1.0     0.106532     0.764587     0.397333    Uiso  ? Al
   Al24       1.0     0.220696     0.877602     0.147142    Uiso  ? Al
   Al25       1.0     0.552265     0.877793     0.154561    Uiso  ? Al
   Al26       1.0     0.779298     0.757895     0.404534    Uiso  ? Al
   Al27       1.0     0.443841     0.764439     0.908613    Uiso  ? Al
   Al28       1.0     0.550858     0.869893     0.660866    Uiso  ? Al
   Mg1        1.0     0.443794     0.094269     0.901219    Uiso  ? Mg
   Mg2        1.0     0.771125     0.751642     0.905362    Uiso  ? Mg
   Mg3        1.0     0.123786     0.753961     0.911117    Uiso  ? Mg
   Mg4        1.0     0.225407     0.880929     0.665268    Uiso  ? Mg
   Hf1        1.0     0.226980     0.530857     0.647464    Uiso  ? Hf
   Hf2        1.0     0.880991     0.879582     0.664819    Uiso  ? Hf
   Hf3        1.0     0.444356     0.758867     0.393427    Uiso  ? Hf
   Hf4        1.0     0.884687     0.876168     0.139483    Uiso  ? Hf
   N1         1.0     0.222563     0.204069     0.347766    Uiso  ? N
   N2         1.0     0.107197     0.099778     0.100660    Uiso  ? N
   N3         1.0     0.889612     0.207522     0.847769    Uiso  ? N
   N4         1.0     0.771778     0.111043     0.593280    Uiso  ? N
   N5         1.0     0.556259     0.205017     0.347877    Uiso  ? N
   N6         1.0     0.444948     0.095642     0.109855    Uiso  ? N
   N7         1.0     0.208137     0.211549     0.845302    Uiso  ? N
   N8         1.0     0.101495     0.108490     0.592953    Uiso  ? N
   N9         1.0     0.887403     0.207979     0.346277    Uiso  ? N
   N10        1.0     0.764844     0.120970     0.098444    Uiso  ? N
   N11        1.0     0.562633     0.215487     0.843153    Uiso  ? N
   N12        1.0     0.444244     0.096420     0.599003    Uiso  ? N
   N13        1.0     0.225341     0.534656     0.356939    Uiso  ? N
   N14        1.0     0.110807     0.427086     0.102963    Uiso  ? N
   N15        1.0     0.898052     0.522508     0.843627    Uiso  ? N
   N16        1.0     0.776395     0.427168     0.597478    Uiso  ? N
   N17        1.0     0.567802     0.518385     0.339907    Uiso  ? N
   N18        1.0     0.443122     0.427658     0.099968    Uiso  ? N
   N19        1.0     0.230901     0.519417     0.850876    Uiso  ? N
   N20        1.0     0.101762     0.419018     0.590109    Uiso  ? N
   N21        1.0     0.887519     0.536704     0.348930    Uiso  ? N
   N22        1.0     0.779168     0.428215     0.095667    Uiso  ? N
   N23        1.0     0.555052     0.539085     0.853597    Uiso  ? N
   N24        1.0     0.464843     0.420283     0.590804    Uiso  ? N
   N25        1.0     0.203044     0.885724     0.342946    Uiso  ? N
   N26        1.0     0.127393     0.748346     0.117175    Uiso  ? N
   N27        1.0     0.880684     0.888762     0.871605    Uiso  ? N
   N28        1.0     0.772732     0.751721     0.595858    Uiso  ? N
   N29        1.0     0.562397     0.882241     0.347904    Uiso  ? N
   N30        1.0     0.446716     0.759574     0.112676    Uiso  ? N
   N31        1.0     0.228743     0.879751     0.867737    Uiso  ? N
   N32        1.0     0.108531     0.765412     0.588363    Uiso  ? N
   N33        1.0     0.883405     0.876860     0.355152    Uiso  ? N
   N34        1.0     0.769916     0.749962     0.111179    Uiso  ? N
   N35        1.0     0.548038     0.864521     0.842162    Uiso  ? N
   N36        1.0     0.458458     0.748569     0.595809    Uiso  ? N
