
#======================================================================
# CRYSTAL DATA
#----------------------------------------------------------------------
data_VESTA_phase_1

_chemical_name_common                  'Al   Mg   Hf   N                      '
_cell_length_a                         9.665987
_cell_length_b                         9.692513
_cell_length_c                         10.097281
_cell_angle_alpha                      89.957497
_cell_angle_beta                       89.908539
_cell_angle_gamma                      60.045483
_cell_volume                           819.626555
_space_group_name_H-M_alt              'P 1'
_space_group_IT_number                 1

loop_
_space_group_symop_operation_xyz
   'x, y, z'

loop_
   _atom_site_label
   _atom_site_occupancy
   _atom_site_fract_x
   _atom_site_fract_y
   _atom_site_fract_z
   _atom_site_adp_type
   _atom_site_U_iso_or_equiv
   _atom_site_type_symbol
   Al1        1.0     0.105367     0.098378     0.319787    Uiso  ? Al
   Al2        1.0     0.221142     0.204887     0.069964    Uiso  ? Al
   Al3        1.0     0.772969     0.107823     0.825138    Uiso  ? Al
   Al4        1.0     0.890425     0.213760     0.574969    Uiso  ? Al
   Al5        1.0     0.443733     0.099857     0.322411    Uiso  ? Al
   Al6        1.0     0.550798     0.211759     0.069329    Uiso  ? Al
   Al7        1.0     0.110719     0.099395     0.823786    Uiso  ? Al
   Al8        1.0     0.220874     0.200711     0.571810    Uiso  ? Al
   Al9        1.0     0.773017     0.106996     0.320743    Uiso  ? Al
   Al10       1.0     0.888810     0.212230     0.068661    Uiso  ? Al
   Al11       1.0     0.554699     0.206739     0.571887    Uiso  ? Al
   Al12       1.0     0.109634     0.423844     0.317073    Uiso  ? Al
   Al13       1.0     0.228283     0.528846     0.064631    Uiso  ? Al
   Al14       1.0     0.780289     0.427086     0.824250    Uiso  ? Al
   Al15       1.0     0.885063     0.533337     0.571567    Uiso  ? Al
   Al16       1.0     0.448462     0.421096     0.316409    Uiso  ? Al
   Al17       1.0     0.557003     0.537356     0.067204    Uiso  ? Al
   Al18       1.0     0.108691     0.418319     0.829139    Uiso  ? Al
   Al19       1.0     0.782311     0.421176     0.320747    Uiso  ? Al
   Al20       1.0     0.888875     0.531255     0.069601    Uiso  ? Al
   Al21       1.0     0.452472     0.422841     0.828905    Uiso  ? Al
   Al22       1.0     0.566370     0.532429     0.578968    Uiso  ? Al
   Al23       1.0     0.114615     0.758519     0.313266    Uiso  ? Al
   Al24       1.0     0.226558     0.876207     0.063843    Uiso  ? Al
   Al25       1.0     0.549310     0.872345     0.064518    Uiso  ? Al
   Al26       1.0     0.777728     0.755064     0.321405    Uiso  ? Al
   Al27       1.0     0.446520     0.762887     0.820089    Uiso  ? Al
   Al28       1.0     0.553838     0.876230     0.576256    Uiso  ? Al
   Mg1        1.0     0.443394     0.095732     0.826054    Uiso  ? Mg
   Mg2        1.0     0.774268     0.754699     0.824082    Uiso  ? Mg
   Mg3        1.0     0.116405     0.760418     0.832406    Uiso  ? Mg
   Mg4        1.0     0.220836     0.882083     0.582698    Uiso  ? Mg
   Hf1        1.0     0.227383     0.529514     0.581295    Uiso  ? Hf
   Hf2        1.0     0.882385     0.879599     0.572299    Uiso  ? Hf
   Hf3        1.0     0.443879     0.759952     0.334371    Uiso  ? Hf
   Hf4        1.0     0.883061     0.876554     0.075044    Uiso  ? Hf
   N1         1.0     0.220361     0.205409     0.377431    Uiso  ? N
   N2         1.0     0.108366     0.095264     0.130134    Uiso  ? N
   N3         1.0     0.888227     0.208381     0.881080    Uiso  ? N
   N4         1.0     0.768968     0.116159     0.631677    Uiso  ? N
   N5         1.0     0.555371     0.207566     0.379554    Uiso  ? N
   N6         1.0     0.445490     0.094797     0.130723    Uiso  ? N
   N7         1.0     0.209839     0.209767     0.886538    Uiso  ? N
   N8         1.0     0.100962     0.111944     0.634661    Uiso  ? N
   N9         1.0     0.888917     0.206612     0.382269    Uiso  ? N
   N10        1.0     0.768410     0.115723     0.134190    Uiso  ? N
   N11        1.0     0.563447     0.213299     0.885745    Uiso  ? N
   N12        1.0     0.443581     0.098094     0.616210    Uiso  ? N
   N13        1.0     0.223440     0.536608     0.370815    Uiso  ? N
   N14        1.0     0.110576     0.427996     0.129743    Uiso  ? N
   N15        1.0     0.895234     0.523789     0.885113    Uiso  ? N
   N16        1.0     0.779452     0.427533     0.632536    Uiso  ? N
   N17        1.0     0.565375     0.517966     0.384975    Uiso  ? N
   N18        1.0     0.444373     0.429399     0.128791    Uiso  ? N
   N19        1.0     0.231651     0.518522     0.874895    Uiso  ? N
   N20        1.0     0.100717     0.418430     0.633277    Uiso  ? N
   N21        1.0     0.889298     0.535039     0.378608    Uiso  ? N
   N22        1.0     0.775688     0.427655     0.131778    Uiso  ? N
   N23        1.0     0.555991     0.539905     0.878490    Uiso  ? N
   N24        1.0     0.464418     0.418711     0.636547    Uiso  ? N
   N25        1.0     0.203601     0.881188     0.372185    Uiso  ? N
   N26        1.0     0.128276     0.750662     0.122306    Uiso  ? N
   N27        1.0     0.876872     0.891494     0.874335    Uiso  ? N
   N28        1.0     0.773908     0.751534     0.616266    Uiso  ? N
   N29        1.0     0.562787     0.882288     0.381678    Uiso  ? N
   N30        1.0     0.444155     0.758174     0.127877    Uiso  ? N
   N31        1.0     0.230075     0.881600     0.878024    Uiso  ? N
   N32        1.0     0.110606     0.759957     0.628687    Uiso  ? N
   N33        1.0     0.888263     0.873380     0.357231    Uiso  ? N
   N34        1.0     0.768209     0.749896     0.132447    Uiso  ? N
   N35        1.0     0.548501     0.865577     0.883842    Uiso  ? N
   N36        1.0     0.460020     0.751726     0.621325    Uiso  ? N
