
#======================================================================
# CRYSTAL DATA
#----------------------------------------------------------------------
data_VESTA_phase_1

_chemical_name_common                  'Al   Mg   Hf   N                      '
_cell_length_a                         10.005000
_cell_length_b                         10.049688
_cell_length_c                         9.075320
_cell_angle_alpha                      89.947968
_cell_angle_beta                       89.948044
_cell_angle_gamma                      60.053726
_cell_volume                           790.672999
_space_group_name_H-M_alt              'P 1'
_space_group_IT_number                 1

loop_
_space_group_symop_operation_xyz
   'x, y, z'

loop_
   _atom_site_label
   _atom_site_occupancy
   _atom_site_fract_x
   _atom_site_fract_y
   _atom_site_fract_z
   _atom_site_adp_type
   _atom_site_U_iso_or_equiv
   _atom_site_type_symbol
   Al1        1.0     0.106250     0.098384     0.336692    Uiso  ? Al
   Al2        1.0     0.222317     0.202509     0.085511    Uiso  ? Al
   Al3        1.0     0.772996     0.111460     0.833727    Uiso  ? Al
   Al4        1.0     0.889296     0.215355     0.581636    Uiso  ? Al
   Al5        1.0     0.445657     0.097350     0.342528    Uiso  ? Al
   Al6        1.0     0.552761     0.208196     0.081597    Uiso  ? Al
   Al7        1.0     0.109064     0.100811     0.831830    Uiso  ? Al
   Al8        1.0     0.220431     0.202687     0.581695    Uiso  ? Al
   Al9        1.0     0.771362     0.109372     0.339465    Uiso  ? Al
   Al10       1.0     0.889973     0.210513     0.083942    Uiso  ? Al
   Al11       1.0     0.553077     0.208656     0.584723    Uiso  ? Al
   Al12       1.0     0.110176     0.424053     0.329542    Uiso  ? Al
   Al13       1.0     0.226528     0.531076     0.080940    Uiso  ? Al
   Al14       1.0     0.781358     0.424577     0.836067    Uiso  ? Al
   Al15       1.0     0.886135     0.530894     0.583841    Uiso  ? Al
   Al16       1.0     0.448490     0.422529     0.325874    Uiso  ? Al
   Al17       1.0     0.557624     0.539220     0.079132    Uiso  ? Al
   Al18       1.0     0.107226     0.416522     0.842916    Uiso  ? Al
   Al19       1.0     0.780294     0.423551     0.330076    Uiso  ? Al
   Al20       1.0     0.888319     0.532684     0.083489    Uiso  ? Al
   Al21       1.0     0.454840     0.422154     0.844438    Uiso  ? Al
   Al22       1.0     0.566570     0.529224     0.592178    Uiso  ? Al
   Al23       1.0     0.115557     0.758539     0.343317    Uiso  ? Al
   Al24       1.0     0.225853     0.877159     0.082100    Uiso  ? Al
   Al25       1.0     0.549247     0.873988     0.068038    Uiso  ? Al
   Al26       1.0     0.774364     0.756598     0.345898    Uiso  ? Al
   Al27       1.0     0.444440     0.759315     0.830387    Uiso  ? Al
   Al28       1.0     0.553655     0.875328     0.610387    Uiso  ? Al
   Mg1        1.0     0.439696     0.101464     0.840487    Uiso  ? Mg
   Mg2        1.0     0.776951     0.748979     0.843797    Uiso  ? Mg
   Mg3        1.0     0.119368     0.760624     0.852229    Uiso  ? Mg
   Mg4        1.0     0.219215     0.882413     0.606197    Uiso  ? Mg
   Hf1        1.0     0.227605     0.527389     0.604756    Uiso  ? Hf
   Hf2        1.0     0.880873     0.878073     0.603751    Uiso  ? Hf
   Hf3        1.0     0.445069     0.761700     0.356332    Uiso  ? Hf
   Hf4        1.0     0.884036     0.876751     0.095455    Uiso  ? Hf
   N1         1.0     0.220754     0.206233     0.365902    Uiso  ? N
   N2         1.0     0.108057     0.095794     0.124109    Uiso  ? N
   N3         1.0     0.888983     0.207495     0.873311    Uiso  ? N
   N4         1.0     0.769303     0.117508     0.614540    Uiso  ? N
   N5         1.0     0.553475     0.210274     0.369911    Uiso  ? N
   N6         1.0     0.447463     0.092365     0.121626    Uiso  ? N
   N7         1.0     0.209520     0.209014     0.877406    Uiso  ? N
   N8         1.0     0.100363     0.112123     0.619182    Uiso  ? N
   N9         1.0     0.887910     0.209970     0.370002    Uiso  ? N
   N10        1.0     0.769129     0.114421     0.126838    Uiso  ? N
   N11        1.0     0.564293     0.211883     0.873521    Uiso  ? N
   N12        1.0     0.442072     0.100346     0.605333    Uiso  ? N
   N13        1.0     0.226417     0.533117     0.363693    Uiso  ? N
   N14        1.0     0.110967     0.428161     0.119582    Uiso  ? N
   N15        1.0     0.895475     0.521774     0.874975    Uiso  ? N
   N16        1.0     0.779047     0.426484     0.623730    Uiso  ? N
   N17        1.0     0.564994     0.519482     0.373125    Uiso  ? N
   N18        1.0     0.445178     0.429106     0.114595    Uiso  ? N
   N19        1.0     0.230815     0.519184     0.861921    Uiso  ? N
   N20        1.0     0.100559     0.417107     0.621274    Uiso  ? N
   N21        1.0     0.889169     0.534229     0.367802    Uiso  ? N
   N22        1.0     0.775643     0.427755     0.120262    Uiso  ? N
   N23        1.0     0.557122     0.539429     0.868281    Uiso  ? N
   N24        1.0     0.464093     0.418959     0.627731    Uiso  ? N
   N25        1.0     0.207386     0.881713     0.360913    Uiso  ? N
   N26        1.0     0.126567     0.750983     0.114839    Uiso  ? N
   N27        1.0     0.877218     0.891900     0.857273    Uiso  ? N
   N28        1.0     0.775144     0.747468     0.604143    Uiso  ? N
   N29        1.0     0.560813     0.882322     0.378626    Uiso  ? N
   N30        1.0     0.447324     0.758855     0.116696    Uiso  ? N
   N31        1.0     0.229349     0.882879     0.867523    Uiso  ? N
   N32        1.0     0.112506     0.759018     0.604365    Uiso  ? N
   N33        1.0     0.886178     0.875722     0.354758    Uiso  ? N
   N34        1.0     0.767638     0.752821     0.120699    Uiso  ? N
   N35        1.0     0.547340     0.867663     0.856176    Uiso  ? N
   N36        1.0     0.458144     0.748470     0.610492    Uiso  ? N
