
#======================================================================
# CRYSTAL DATA
#----------------------------------------------------------------------
data_VESTA_phase_1

_chemical_name_common                  'Al   Mg   Hf   N                      '
_cell_length_a                         9.833785
_cell_length_b                         9.875858
_cell_length_c                         9.570717
_cell_angle_alpha                      89.920471
_cell_angle_beta                       89.924141
_cell_angle_gamma                      60.115211
_cell_volume                           805.885146
_space_group_name_H-M_alt              'P 1'
_space_group_IT_number                 1

loop_
_space_group_symop_operation_xyz
   'x, y, z'

loop_
   _atom_site_label
   _atom_site_occupancy
   _atom_site_fract_x
   _atom_site_fract_y
   _atom_site_fract_z
   _atom_site_adp_type
   _atom_site_U_iso_or_equiv
   _atom_site_type_symbol
   Al1        1.0     0.105732     0.100315     0.379025    Uiso  ? Al
   Al2        1.0     0.225794     0.201740     0.126788    Uiso  ? Al
   Al3        1.0     0.771564     0.112971     0.879735    Uiso  ? Al
   Al4        1.0     0.889861     0.213019     0.629780    Uiso  ? Al
   Al5        1.0     0.444568     0.098260     0.377318    Uiso  ? Al
   Al6        1.0     0.547954     0.209376     0.127374    Uiso  ? Al
   Al7        1.0     0.109318     0.099582     0.880115    Uiso  ? Al
   Al8        1.0     0.216210     0.203780     0.632182    Uiso  ? Al
   Al9        1.0     0.773057     0.106118     0.373082    Uiso  ? Al
   Al10       1.0     0.889111     0.214103     0.129509    Uiso  ? Al
   Al11       1.0     0.557119     0.209223     0.631237    Uiso  ? Al
   Al12       1.0     0.106883     0.419631     0.368672    Uiso  ? Al
   Al13       1.0     0.227180     0.530850     0.134759    Uiso  ? Al
   Al14       1.0     0.782176     0.424812     0.877407    Uiso  ? Al
   Al15       1.0     0.887614     0.529622     0.630648    Uiso  ? Al
   Al16       1.0     0.456241     0.418461     0.371628    Uiso  ? Al
   Al17       1.0     0.561915     0.529887     0.119119    Uiso  ? Al
   Al18       1.0     0.111170     0.419818     0.883282    Uiso  ? Al
   Al19       1.0     0.780773     0.423534     0.380859    Uiso  ? Al
   Al20       1.0     0.887492     0.533895     0.127743    Uiso  ? Al
   Al21       1.0     0.446823     0.424401     0.881929    Uiso  ? Al
   Al22       1.0     0.562379     0.537637     0.635070    Uiso  ? Al
   Al23       1.0     0.109072     0.766035     0.363827    Uiso  ? Al
   Al24       1.0     0.219648     0.878064     0.105220    Uiso  ? Al
   Al25       1.0     0.553233     0.878239     0.114737    Uiso  ? Al
   Al26       1.0     0.776346     0.757641     0.373626    Uiso  ? Al
   Al27       1.0     0.444907     0.760679     0.884786    Uiso  ? Al
   Al28       1.0     0.550616     0.869241     0.638455    Uiso  ? Al
   Mg1        1.0     0.442402     0.097802     0.868897    Uiso  ? Mg
   Mg2        1.0     0.774864     0.749775     0.870428    Uiso  ? Mg
   Mg3        1.0     0.122934     0.751535     0.875468    Uiso  ? Mg
   Mg4        1.0     0.226383     0.880578     0.637896    Uiso  ? Mg
   Hf1        1.0     0.226805     0.529144     0.609920    Uiso  ? Hf
   Hf2        1.0     0.880680     0.881141     0.625590    Uiso  ? Hf
   Hf3        1.0     0.444347     0.760914     0.357734    Uiso  ? Hf
   Hf4        1.0     0.884983     0.875067     0.107437    Uiso  ? Hf
   N1         1.0     0.223960     0.201903     0.326827    Uiso  ? N
   N2         1.0     0.105596     0.102135     0.080628    Uiso  ? N
   N3         1.0     0.889039     0.207944     0.828421    Uiso  ? N
   N4         1.0     0.770293     0.115466     0.572320    Uiso  ? N
   N5         1.0     0.555517     0.205301     0.327106    Uiso  ? N
   N6         1.0     0.444473     0.096736     0.086730    Uiso  ? N
   N7         1.0     0.207227     0.212584     0.828007    Uiso  ? N
   N8         1.0     0.101732     0.107929     0.575373    Uiso  ? N
   N9         1.0     0.887840     0.209642     0.327334    Uiso  ? N
   N10        1.0     0.766450     0.118997     0.081696    Uiso  ? N
   N11        1.0     0.562905     0.216758     0.825960    Uiso  ? N
   N12        1.0     0.445335     0.095760     0.581612    Uiso  ? N
   N13        1.0     0.226222     0.533508     0.340826    Uiso  ? N
   N14        1.0     0.111527     0.426950     0.087090    Uiso  ? N
   N15        1.0     0.899754     0.520063     0.826447    Uiso  ? N
   N16        1.0     0.775572     0.428160     0.579215    Uiso  ? N
   N17        1.0     0.568382     0.519046     0.319086    Uiso  ? N
   N18        1.0     0.442349     0.427368     0.082266    Uiso  ? N
   N19        1.0     0.231400     0.517182     0.827323    Uiso  ? N
   N20        1.0     0.100367     0.417286     0.567382    Uiso  ? N
   N21        1.0     0.885792     0.537139     0.327633    Uiso  ? N
   N22        1.0     0.779768     0.426972     0.075770    Uiso  ? N
   N23        1.0     0.554515     0.538645     0.836674    Uiso  ? N
   N24        1.0     0.466024     0.420709     0.570767    Uiso  ? N
   N25        1.0     0.203957     0.886703     0.319256    Uiso  ? N
   N26        1.0     0.125766     0.746953     0.098901    Uiso  ? N
   N27        1.0     0.879890     0.890837     0.847182    Uiso  ? N
   N28        1.0     0.771287     0.750448     0.578470    Uiso  ? N
   N29        1.0     0.562161     0.883179     0.323022    Uiso  ? N
   N30        1.0     0.448378     0.756658     0.094566    Uiso  ? N
   N31        1.0     0.228204     0.879768     0.858918    Uiso  ? N
   N32        1.0     0.112293     0.764777     0.570225    Uiso  ? N
   N33        1.0     0.882843     0.877698     0.340018    Uiso  ? N
   N34        1.0     0.772482     0.749585     0.089425    Uiso  ? N
   N35        1.0     0.546913     0.864789     0.832329    Uiso  ? N
   N36        1.0     0.458716     0.749651     0.575627    Uiso  ? N
