
#======================================================================
# CRYSTAL DATA
#----------------------------------------------------------------------
data_VESTA_phase_1

_chemical_name_common                  'Al   Mg   Hf   N                      '
_cell_length_a                         9.747670
_cell_length_b                         9.780565
_cell_length_c                         9.862143
_cell_angle_alpha                      89.967155
_cell_angle_beta                       89.956757
_cell_angle_gamma                      60.017925
_cell_volume                           814.413513
_space_group_name_H-M_alt              'P 1'
_space_group_IT_number                 1

loop_
_space_group_symop_operation_xyz
   'x, y, z'

loop_
   _atom_site_label
   _atom_site_occupancy
   _atom_site_fract_x
   _atom_site_fract_y
   _atom_site_fract_z
   _atom_site_adp_type
   _atom_site_U_iso_or_equiv
   _atom_site_type_symbol
   Al1        1.0     0.105457     0.098116     0.324227    Uiso  ? Al
   Al2        1.0     0.221301     0.204691     0.074742    Uiso  ? Al
   Al3        1.0     0.772353     0.109982     0.827321    Uiso  ? Al
   Al4        1.0     0.890368     0.214251     0.577124    Uiso  ? Al
   Al5        1.0     0.444281     0.099472     0.326479    Uiso  ? Al
   Al6        1.0     0.551299     0.211611     0.073758    Uiso  ? Al
   Al7        1.0     0.110500     0.099961     0.826776    Uiso  ? Al
   Al8        1.0     0.220943     0.200870     0.574455    Uiso  ? Al
   Al9        1.0     0.773319     0.106728     0.326653    Uiso  ? Al
   Al10       1.0     0.888996     0.211962     0.072996    Uiso  ? Al
   Al11       1.0     0.554291     0.207092     0.574559    Uiso  ? Al
   Al12       1.0     0.110329     0.424683     0.322206    Uiso  ? Al
   Al13       1.0     0.228149     0.528570     0.066225    Uiso  ? Al
   Al14       1.0     0.780433     0.426441     0.827727    Uiso  ? Al
   Al15       1.0     0.884721     0.532580     0.574462    Uiso  ? Al
   Al16       1.0     0.447031     0.422214     0.320510    Uiso  ? Al
   Al17       1.0     0.556268     0.539115     0.071981    Uiso  ? Al
   Al18       1.0     0.107457     0.416470     0.831557    Uiso  ? Al
   Al19       1.0     0.781888     0.421670     0.323486    Uiso  ? Al
   Al20       1.0     0.889268     0.531300     0.074337    Uiso  ? Al
   Al21       1.0     0.454933     0.421853     0.832196    Uiso  ? Al
   Al22       1.0     0.567588     0.529901     0.581182    Uiso  ? Al
   Al23       1.0     0.114446     0.758227     0.320466    Uiso  ? Al
   Al24       1.0     0.228020     0.875912     0.068727    Uiso  ? Al
   Al25       1.0     0.548746     0.871989     0.067088    Uiso  ? Al
   Al26       1.0     0.777302     0.756315     0.327238    Uiso  ? Al
   Al27       1.0     0.446502     0.761761     0.820555    Uiso  ? Al
   Al28       1.0     0.554432     0.877074     0.582902    Uiso  ? Al
   Mg1        1.0     0.442752     0.097009     0.831089    Uiso  ? Mg
   Mg2        1.0     0.774109     0.751850     0.829882    Uiso  ? Mg
   Mg3        1.0     0.117616     0.760847     0.838950    Uiso  ? Mg
   Mg4        1.0     0.218711     0.883246     0.589983    Uiso  ? Mg
   Hf1        1.0     0.227163     0.529023     0.593039    Uiso  ? Hf
   Hf2        1.0     0.881692     0.878695     0.584926    Uiso  ? Hf
   Hf3        1.0     0.443393     0.760888     0.345733    Uiso  ? Hf
   Hf4        1.0     0.882874     0.877297     0.078369    Uiso  ? Hf
   N1         1.0     0.220634     0.205401     0.377174    Uiso  ? N
   N2         1.0     0.108573     0.095042     0.130904    Uiso  ? N
   N3         1.0     0.888417     0.208128     0.881647    Uiso  ? N
   N4         1.0     0.768468     0.118015     0.630186    Uiso  ? N
   N5         1.0     0.554711     0.208338     0.379240    Uiso  ? N
   N6         1.0     0.446087     0.094319     0.130481    Uiso  ? N
   N7         1.0     0.209709     0.209438     0.887305    Uiso  ? N
   N8         1.0     0.100529     0.112918     0.634220    Uiso  ? N
   N9         1.0     0.888825     0.207687     0.381912    Uiso  ? N
   N10        1.0     0.768953     0.115230     0.135304    Uiso  ? N
   N11        1.0     0.564036     0.213200     0.886115    Uiso  ? N
   N12        1.0     0.443254     0.099111     0.617509    Uiso  ? N
   N13        1.0     0.223782     0.536448     0.376024    Uiso  ? N
   N14        1.0     0.111445     0.428414     0.130495    Uiso  ? N
   N15        1.0     0.895606     0.522242     0.885946    Uiso  ? N
   N16        1.0     0.779460     0.427092     0.632912    Uiso  ? N
   N17        1.0     0.565851     0.517126     0.384230    Uiso  ? N
   N18        1.0     0.443481     0.430116     0.128396    Uiso  ? N
   N19        1.0     0.232068     0.517269     0.870118    Uiso  ? N
   N20        1.0     0.099415     0.417203     0.632758    Uiso  ? N
   N21        1.0     0.888930     0.535216     0.378319    Uiso  ? N
   N22        1.0     0.775642     0.427783     0.131461    Uiso  ? N
   N23        1.0     0.555844     0.540604     0.878743    Uiso  ? N
   N24        1.0     0.466148     0.417841     0.636575    Uiso  ? N
   N25        1.0     0.202744     0.881907     0.373978    Uiso  ? N
   N26        1.0     0.127880     0.750311     0.121908    Uiso  ? N
   N27        1.0     0.875954     0.891837     0.870183    Uiso  ? N
   N28        1.0     0.773637     0.749184     0.617781    Uiso  ? N
   N29        1.0     0.562895     0.883416     0.383712    Uiso  ? N
   N30        1.0     0.444842     0.758578     0.131855    Uiso  ? N
   N31        1.0     0.231159     0.881728     0.877395    Uiso  ? N
   N32        1.0     0.111480     0.760158     0.630042    Uiso  ? N
   N33        1.0     0.888100     0.873741     0.361913    Uiso  ? N
   N34        1.0     0.768569     0.751017     0.132141    Uiso  ? N
   N35        1.0     0.547322     0.865516     0.880986    Uiso  ? N
   N36        1.0     0.459705     0.750881     0.616309    Uiso  ? N
