
#======================================================================
# CRYSTAL DATA
#----------------------------------------------------------------------
data_VESTA_phase_1

_chemical_name_common                  'Al   Mg   Hf   N                      '
_cell_length_a                         9.788889
_cell_length_b                         9.828799
_cell_length_c                         9.704648
_cell_angle_alpha                      89.917839
_cell_angle_beta                       89.926559
_cell_angle_gamma                      60.112148
_cell_volume                           809.530891
_space_group_name_H-M_alt              'P 1'
_space_group_IT_number                 1

loop_
_space_group_symop_operation_xyz
   'x, y, z'

loop_
   _atom_site_label
   _atom_site_occupancy
   _atom_site_fract_x
   _atom_site_fract_y
   _atom_site_fract_z
   _atom_site_adp_type
   _atom_site_U_iso_or_equiv
   _atom_site_type_symbol
   Al1        1.0     0.105433     0.100390     0.380101    Uiso  ? Al
   Al2        1.0     0.225534     0.202333     0.128413    Uiso  ? Al
   Al3        1.0     0.771436     0.112945     0.880585    Uiso  ? Al
   Al4        1.0     0.890172     0.212845     0.630930    Uiso  ? Al
   Al5        1.0     0.444322     0.098833     0.379055    Uiso  ? Al
   Al6        1.0     0.547949     0.209743     0.128755    Uiso  ? Al
   Al7        1.0     0.109865     0.099110     0.881307    Uiso  ? Al
   Al8        1.0     0.216434     0.203270     0.632984    Uiso  ? Al
   Al9        1.0     0.773512     0.105138     0.374910    Uiso  ? Al
   Al10       1.0     0.888875     0.214177     0.130430    Uiso  ? Al
   Al11       1.0     0.557074     0.208902     0.632221    Uiso  ? Al
   Al12       1.0     0.107027     0.420030     0.371323    Uiso  ? Al
   Al13       1.0     0.227241     0.530740     0.135811    Uiso  ? Al
   Al14       1.0     0.781880     0.425210     0.878326    Uiso  ? Al
   Al15       1.0     0.887206     0.529920     0.631634    Uiso  ? Al
   Al16       1.0     0.455813     0.418339     0.373661    Uiso  ? Al
   Al17       1.0     0.561691     0.529954     0.120900    Uiso  ? Al
   Al18       1.0     0.111076     0.419685     0.883102    Uiso  ? Al
   Al19       1.0     0.781051     0.423157     0.381824    Uiso  ? Al
   Al20       1.0     0.887841     0.533785     0.129209    Uiso  ? Al
   Al21       1.0     0.447101     0.424364     0.882200    Uiso  ? Al
   Al22       1.0     0.562531     0.537827     0.635701    Uiso  ? Al
   Al23       1.0     0.108234     0.766229     0.366497    Uiso  ? Al
   Al24       1.0     0.219704     0.877980     0.108634    Uiso  ? Al
   Al25       1.0     0.553400     0.878428     0.120267    Uiso  ? Al
   Al26       1.0     0.777237     0.757741     0.375777    Uiso  ? Al
   Al27       1.0     0.445145     0.761517     0.886043    Uiso  ? Al
   Al28       1.0     0.550577     0.869148     0.637628    Uiso  ? Al
   Mg1        1.0     0.442840     0.096632     0.870973    Uiso  ? Mg
   Mg2        1.0     0.773644     0.750261     0.873132    Uiso  ? Mg
   Mg3        1.0     0.123342     0.751347     0.878501    Uiso  ? Mg
   Mg4        1.0     0.226739     0.880455     0.640024    Uiso  ? Mg
   Hf1        1.0     0.226702     0.529677     0.612314    Uiso  ? Hf
   Hf2        1.0     0.880805     0.880945     0.629775    Uiso  ? Hf
   Hf3        1.0     0.444051     0.760517     0.359568    Uiso  ? Hf
   Hf4        1.0     0.885031     0.875215     0.109136    Uiso  ? Hf
   N1         1.0     0.223691     0.202358     0.325856    Uiso  ? N
   N2         1.0     0.105797     0.102101     0.079397    Uiso  ? N
   N3         1.0     0.889201     0.207933     0.826975    Uiso  ? N
   N4         1.0     0.770616     0.114603     0.571232    Uiso  ? N
   N5         1.0     0.555724     0.205223     0.325903    Uiso  ? N
   N6         1.0     0.444621     0.096441     0.085928    Uiso  ? N
   N7         1.0     0.207441     0.212245     0.825849    Uiso  ? N
   N8         1.0     0.101860     0.107657     0.573494    Uiso  ? N
   N9         1.0     0.887712     0.209271     0.325842    Uiso  ? N
   N10        1.0     0.766064     0.119582     0.079427    Uiso  ? N
   N11        1.0     0.562827     0.216477     0.823989    Uiso  ? N
   N12        1.0     0.445157     0.095989     0.579656    Uiso  ? N
   N13        1.0     0.225986     0.533743     0.339362    Uiso  ? N
   N14        1.0     0.111537     0.426987     0.084433    Uiso  ? N
   N15        1.0     0.899333     0.520543     0.824439    Uiso  ? N
   N16        1.0     0.775720     0.427989     0.577456    Uiso  ? N
   N17        1.0     0.568317     0.518533     0.318027    Uiso  ? N
   N18        1.0     0.442335     0.427468     0.080107    Uiso  ? N
   N19        1.0     0.231374     0.517438     0.825666    Uiso  ? N
   N20        1.0     0.100418     0.417500     0.566842    Uiso  ? N
   N21        1.0     0.886147     0.537096     0.326523    Uiso  ? N
   N22        1.0     0.779650     0.427250     0.074499    Uiso  ? N
   N23        1.0     0.554494     0.539043     0.834550    Uiso  ? N
   N24        1.0     0.466048     0.420542     0.569648    Uiso  ? N
   N25        1.0     0.203330     0.886667     0.317792    Uiso  ? N
   N26        1.0     0.126268     0.746738     0.096686    Uiso  ? N
   N27        1.0     0.880102     0.890401     0.846878    Uiso  ? N
   N28        1.0     0.771757     0.750677     0.576375    Uiso  ? N
   N29        1.0     0.562411     0.883164     0.322997    Uiso  ? N
   N30        1.0     0.448491     0.757242     0.093816    Uiso  ? N
   N31        1.0     0.228498     0.879670     0.856488    Uiso  ? N
   N32        1.0     0.111501     0.765557     0.568179    Uiso  ? N
   N33        1.0     0.882890     0.877571     0.337077    Uiso  ? N
   N34        1.0     0.771874     0.749622     0.088083    Uiso  ? N
   N35        1.0     0.546840     0.864535     0.827605    Uiso  ? N
   N36        1.0     0.458532     0.749483     0.573147    Uiso  ? N
