
#======================================================================
# CRYSTAL DATA
#----------------------------------------------------------------------
data_VESTA_phase_1

_chemical_name_common                  'Al   Mg   Hf   N                      '
_cell_length_a                         9.877272
_cell_length_b                         9.921003
_cell_length_c                         9.439581
_cell_angle_alpha                      89.923576
_cell_angle_beta                       89.921219
_cell_angle_gamma                      60.118340
_cell_volume                           802.032663
_space_group_name_H-M_alt              'P 1'
_space_group_IT_number                 1

loop_
_space_group_symop_operation_xyz
   'x, y, z'

loop_
   _atom_site_label
   _atom_site_occupancy
   _atom_site_fract_x
   _atom_site_fract_y
   _atom_site_fract_z
   _atom_site_adp_type
   _atom_site_U_iso_or_equiv
   _atom_site_type_symbol
   Al1        1.0     0.106007     0.100373     0.377882    Uiso  ? Al
   Al2        1.0     0.226031     0.201091     0.124939    Uiso  ? Al
   Al3        1.0     0.771765     0.112878     0.878826    Uiso  ? Al
   Al4        1.0     0.889565     0.213127     0.628461    Uiso  ? Al
   Al5        1.0     0.444724     0.097785     0.375225    Uiso  ? Al
   Al6        1.0     0.548040     0.208974     0.125869    Uiso  ? Al
   Al7        1.0     0.108859     0.099813     0.878646    Uiso  ? Al
   Al8        1.0     0.216062     0.204297     0.631341    Uiso  ? Al
   Al9        1.0     0.772596     0.107036     0.371079    Uiso  ? Al
   Al10       1.0     0.889376     0.213999     0.128462    Uiso  ? Al
   Al11       1.0     0.557127     0.209488     0.630109    Uiso  ? Al
   Al12       1.0     0.106849     0.419361     0.365763    Uiso  ? Al
   Al13       1.0     0.227090     0.531074     0.133169    Uiso  ? Al
   Al14       1.0     0.782492     0.424371     0.876349    Uiso  ? Al
   Al15       1.0     0.888051     0.529365     0.629553    Uiso  ? Al
   Al16       1.0     0.456445     0.418710     0.369229    Uiso  ? Al
   Al17       1.0     0.562012     0.530147     0.117114    Uiso  ? Al
   Al18       1.0     0.111187     0.419966     0.883481    Uiso  ? Al
   Al19       1.0     0.780535     0.423899     0.379737    Uiso  ? Al
   Al20       1.0     0.887088     0.534030     0.126140    Uiso  ? Al
   Al21       1.0     0.446690     0.424374     0.881712    Uiso  ? Al
   Al22       1.0     0.562337     0.537181     0.634383    Uiso  ? Al
   Al23       1.0     0.109955     0.765639     0.361063    Uiso  ? Al
   Al24       1.0     0.219744     0.878088     0.102542    Uiso  ? Al
   Al25       1.0     0.552872     0.877836     0.107891    Uiso  ? Al
   Al26       1.0     0.775588     0.757489     0.371087    Uiso  ? Al
   Al27       1.0     0.444406     0.759973     0.882409    Uiso  ? Al
   Al28       1.0     0.550761     0.869527     0.638803    Uiso  ? Al
   Mg1        1.0     0.441986     0.098961     0.866755    Uiso  ? Mg
   Mg2        1.0     0.776064     0.749367     0.867623    Uiso  ? Mg
   Mg3        1.0     0.122511     0.752038     0.872321    Uiso  ? Mg
   Mg4        1.0     0.225762     0.880810     0.635237    Uiso  ? Mg
   Hf1        1.0     0.226944     0.528612     0.607988    Uiso  ? Hf
   Hf2        1.0     0.880560     0.881250     0.621485    Uiso  ? Hf
   Hf3        1.0     0.444772     0.761252     0.356441    Uiso  ? Hf
   Hf4        1.0     0.884917     0.874956     0.105837    Uiso  ? Hf
   N1         1.0     0.224140     0.201549     0.327814    Uiso  ? N
   N2         1.0     0.105515     0.101870     0.081926    Uiso  ? N
   N3         1.0     0.888886     0.207905     0.829930    Uiso  ? N
   N4         1.0     0.770026     0.116086     0.573528    Uiso  ? N
   N5         1.0     0.555314     0.205412     0.328406    Uiso  ? N
   N6         1.0     0.444456     0.096811     0.087954    Uiso  ? N
   N7         1.0     0.207069     0.212885     0.830417    Uiso  ? N
   N8         1.0     0.101591     0.108337     0.577358    Uiso  ? N
   N9         1.0     0.887977     0.209966     0.328931    Uiso  ? N
   N10        1.0     0.766882     0.118378     0.084131    Uiso  ? N
   N11        1.0     0.562999     0.216944     0.828073    Uiso  ? N
   N12        1.0     0.445362     0.095731     0.583665    Uiso  ? N
   N13        1.0     0.226398     0.533400     0.341926    Uiso  ? N
   N14        1.0     0.111436     0.426932     0.089919    Uiso  ? N
   N15        1.0     0.900098     0.519710     0.828620    Uiso  ? N
   N16        1.0     0.775490     0.428288     0.581080    Uiso  ? N
   N17        1.0     0.568419     0.519678     0.320254    Uiso  ? N
   N18        1.0     0.442487     0.427252     0.084642    Uiso  ? N
   N19        1.0     0.231391     0.517072     0.829643    Uiso  ? N
   N20        1.0     0.100445     0.417158     0.568046    Uiso  ? N
   N21        1.0     0.885515     0.537135     0.328876    Uiso  ? N
   N22        1.0     0.779858     0.426710     0.077120    Uiso  ? N
   N23        1.0     0.554636     0.538099     0.838900    Uiso  ? N
   N24        1.0     0.465873     0.420860     0.571908    Uiso  ? N
   N25        1.0     0.204677     0.886633     0.321375    Uiso  ? N
   N26        1.0     0.125319     0.747390     0.101224    Uiso  ? N
   N27        1.0     0.879662     0.891210     0.847808    Uiso  ? N
   N28        1.0     0.771036     0.750225     0.580791    Uiso  ? N
   N29        1.0     0.561841     0.883078     0.324113    Uiso  ? N
   N30        1.0     0.448047     0.756236     0.094928    Uiso  ? N
   N31        1.0     0.227864     0.879931     0.860447    Uiso  ? N
   N32        1.0     0.112875     0.763867     0.572637    Uiso  ? N
   N33        1.0     0.882918     0.877755     0.342806    Uiso  ? N
   N34        1.0     0.772854     0.749688     0.091246    Uiso  ? N
   N35        1.0     0.547120     0.865089     0.837246    Uiso  ? N
   N36        1.0     0.458833     0.749716     0.578931    Uiso  ? N
