
#======================================================================
# CRYSTAL DATA
#----------------------------------------------------------------------
data_VESTA_phase_1

_chemical_name_common                  'Al   Mg   Hf   N                      '
_cell_length_a                         9.663460
_cell_length_b                         9.689671
_cell_length_c                         10.104121
_cell_angle_alpha                      89.956024
_cell_angle_beta                       89.903648
_cell_angle_gamma                      60.049641
_cell_volume                           819.760977
_space_group_name_H-M_alt              'P 1'
_space_group_IT_number                 1

loop_
_space_group_symop_operation_xyz
   'x, y, z'

loop_
   _atom_site_label
   _atom_site_occupancy
   _atom_site_fract_x
   _atom_site_fract_y
   _atom_site_fract_z
   _atom_site_adp_type
   _atom_site_U_iso_or_equiv
   _atom_site_type_symbol
   Al1        1.0     0.105434     0.098349     0.301246    Uiso  ? Al
   Al2        1.0     0.221193     0.204868     0.051413    Uiso  ? Al
   Al3        1.0     0.773051     0.107727     0.806680    Uiso  ? Al
   Al4        1.0     0.890484     0.213725     0.556497    Uiso  ? Al
   Al5        1.0     0.443782     0.099830     0.303890    Uiso  ? Al
   Al6        1.0     0.550840     0.211732     0.050777    Uiso  ? Al
   Al7        1.0     0.110775     0.099370     0.805272    Uiso  ? Al
   Al8        1.0     0.220925     0.200698     0.553307    Uiso  ? Al
   Al9        1.0     0.773055     0.106999     0.302131    Uiso  ? Al
   Al10       1.0     0.888866     0.212218     0.050119    Uiso  ? Al
   Al11       1.0     0.554773     0.206709     0.553405    Uiso  ? Al
   Al12       1.0     0.109679     0.423794     0.298492    Uiso  ? Al
   Al13       1.0     0.228356     0.528836     0.046180    Uiso  ? Al
   Al14       1.0     0.780351     0.427093     0.805731    Uiso  ? Al
   Al15       1.0     0.885152     0.533349     0.553066    Uiso  ? Al
   Al16       1.0     0.448581     0.421033     0.297863    Uiso  ? Al
   Al17       1.0     0.557102     0.537266     0.048637    Uiso  ? Al
   Al18       1.0     0.108791     0.418370     0.810668    Uiso  ? Al
   Al19       1.0     0.782388     0.421139     0.302260    Uiso  ? Al
   Al20       1.0     0.888918     0.531237     0.051042    Uiso  ? Al
   Al21       1.0     0.452454     0.422856     0.810402    Uiso  ? Al
   Al22       1.0     0.566393     0.532499     0.560504    Uiso  ? Al
   Al23       1.0     0.114718     0.758490     0.294628    Uiso  ? Al
   Al24       1.0     0.226570     0.876197     0.045248    Uiso  ? Al
   Al25       1.0     0.549391     0.872349     0.045975    Uiso  ? Al
   Al26       1.0     0.777787     0.754995     0.302814    Uiso  ? Al
   Al27       1.0     0.446593     0.762892     0.801679    Uiso  ? Al
   Al28       1.0     0.553883     0.876172     0.557694    Uiso  ? Al
   Mg1        1.0     0.443446     0.095704     0.807473    Uiso  ? Mg
   Mg2        1.0     0.774368     0.754792     0.805498    Uiso  ? Mg
   Mg3        1.0     0.116408     0.760392     0.813782    Uiso  ? Mg
   Mg4        1.0     0.221008     0.882008     0.564096    Uiso  ? Mg
   Hf1        1.0     0.227466     0.529507     0.562506    Uiso  ? Hf
   Hf2        1.0     0.882480     0.879625     0.553445    Uiso  ? Hf
   Hf3        1.0     0.443971     0.759896     0.315550    Uiso  ? Hf
   Hf4        1.0     0.883147     0.876499     0.056600    Uiso  ? Hf
   N1         1.0     0.220411     0.205393     0.359004    Uiso  ? N
   N2         1.0     0.108414     0.095236     0.111687    Uiso  ? N
   N3         1.0     0.888278     0.208380     0.862639    Uiso  ? N
   N4         1.0     0.769048     0.116056     0.613305    Uiso  ? N
   N5         1.0     0.555456     0.207519     0.361141    Uiso  ? N
   N6         1.0     0.445527     0.094778     0.112308    Uiso  ? N
   N7         1.0     0.209891     0.209770     0.868094    Uiso  ? N
   N8         1.0     0.101030     0.111893     0.616237    Uiso  ? N
   N9         1.0     0.888981     0.206549     0.363854    Uiso  ? N
   N10        1.0     0.768434     0.115733     0.115720    Uiso  ? N
   N11        1.0     0.563479     0.213284     0.867303    Uiso  ? N
   N12        1.0     0.443632     0.098051     0.597734    Uiso  ? N
   N13        1.0     0.223506     0.536578     0.352197    Uiso  ? N
   N14        1.0     0.110601     0.427964     0.111286    Uiso  ? N
   N15        1.0     0.895280     0.523837     0.866658    Uiso  ? N
   N16        1.0     0.779517     0.427532     0.614097    Uiso  ? N
   N17        1.0     0.565411     0.517997     0.366574    Uiso  ? N
   N18        1.0     0.444471     0.429345     0.110371    Uiso  ? N
   N19        1.0     0.231699     0.518560     0.856628    Uiso  ? N
   N20        1.0     0.100832     0.418460     0.614867    Uiso  ? N
   N21        1.0     0.889384     0.535009     0.360189    Uiso  ? N
   N22        1.0     0.775749     0.427627     0.113368    Uiso  ? N
   N23        1.0     0.556072     0.539854     0.860060    Uiso  ? N
   N24        1.0     0.464412     0.418725     0.618126    Uiso  ? N
   N25        1.0     0.203734     0.881123     0.353710    Uiso  ? N
   N26        1.0     0.128380     0.750641     0.103888    Uiso  ? N
   N27        1.0     0.876979     0.891474     0.856096    Uiso  ? N
   N28        1.0     0.774005     0.751608     0.597775    Uiso  ? N
   N29        1.0     0.562840     0.882213     0.363220    Uiso  ? N
   N30        1.0     0.444196     0.758147     0.109257    Uiso  ? N
   N31        1.0     0.230095     0.881584     0.859585    Uiso  ? N
   N32        1.0     0.110623     0.759926     0.610175    Uiso  ? N
   N33        1.0     0.888336     0.873347     0.338576    Uiso  ? N
   N34        1.0     0.768228     0.749838     0.114024    Uiso  ? N
   N35        1.0     0.548614     0.865585     0.865446    Uiso  ? N
   N36        1.0     0.460106     0.751717     0.603121    Uiso  ? N
