# generated using pymatgen
data_Zn3MoN4
_symmetry_space_group_name_H-M   'P 1'
_cell_length_a   5.36803323
_cell_length_b   5.68976800
_cell_length_c   6.57479891
_cell_angle_alpha   89.99999905
_cell_angle_beta   90.00000610
_cell_angle_gamma   90.00011464
_symmetry_Int_Tables_number   1
_chemical_formula_structural   Zn3MoN4
_chemical_formula_sum   'Zn6 Mo2 N8'
_cell_volume   200.81318693
_cell_formula_units_Z   2
loop_
 _symmetry_equiv_pos_site_id
 _symmetry_equiv_pos_as_xyz
  1  'x, y, z'
loop_
 _atom_site_type_symbol
 _atom_site_label
 _atom_site_symmetry_multiplicity
 _atom_site_fract_x
 _atom_site_fract_y
 _atom_site_fract_z
 _atom_site_occupancy
  Zn  Zn0  1  0.99209298  0.82209683  0.24356368  1
  Zn  Zn1  1  0.99209316  0.82209669  0.74643644  1
  Zn  Zn2  1  0.49329571  0.65598893  0.99500075  1
  Zn  Zn3  1  0.49209165  0.15789891  0.74356346  1
  Zn  Zn4  1  0.49209169  0.15789910  0.24643606  1
  Zn  Zn5  1  0.99329580  0.32401474  0.49500081  1
  Mo  Mo6  1  0.99353746  0.31971615  0.99499999  1
  Mo  Mo7  1  0.49353809  0.66028424  0.49499993  1
  N  N8  1  0.10952258  0.16324814  0.75802104  1
  N  N9  1  0.10952244  0.16324835  0.23197889  1
  N  N10  1  0.11002120  0.63282842  0.99499986  1
  N  N11  1  0.60952370  0.81675240  0.25802102  1
  N  N12  1  0.60952362  0.81675216  0.73197884  1
  N  N13  1  0.64401637  0.31854343  0.99499976  1
  N  N14  1  0.14401705  0.66145847  0.49499983  1
  N  N15  1  0.61002053  0.34717294  0.49499976  1
