# generated using pymatgen
data_Zn3MoN4
_symmetry_space_group_name_H-M   'P 1'
_cell_length_a   5.58922378
_cell_length_b   5.73100439
_cell_length_c   6.60809207
_cell_angle_alpha   89.99747745
_cell_angle_beta   90.38695120
_cell_angle_gamma   90.79010813
_symmetry_Int_Tables_number   1
_chemical_formula_structural   Zn3MoN4
_chemical_formula_sum   'Zn6 Mo2 N8'
_cell_volume   211.64456723
_cell_formula_units_Z   2
loop_
 _symmetry_equiv_pos_site_id
 _symmetry_equiv_pos_as_xyz
  1  'x, y, z'
loop_
 _atom_site_type_symbol
 _atom_site_label
 _atom_site_symmetry_multiplicity
 _atom_site_fract_x
 _atom_site_fract_y
 _atom_site_fract_z
 _atom_site_occupancy
  Zn  Zn0  1  0.16987871  0.81643080  0.24973553  1
  Zn  Zn1  1  0.10860402  0.81901283  0.74591923  1
  Zn  Zn2  1  0.55334034  0.64453701  0.99278172  1
  Zn  Zn3  1  0.54925437  0.15984935  0.75206687  1
  Zn  Zn4  1  0.56381230  0.16575788  0.24204168  1
  Zn  Zn5  1  0.16589578  0.33621682  0.49461418  1
  Mo  Mo6  1  0.04129381  0.31631871  0.99418022  1
  Mo  Mo7  1  0.68041430  0.66314420  0.49430024  1
  N  N8  1  0.15323739  0.16133957  0.76145789  1
  N  N9  1  0.15121321  0.16556758  0.22630865  1
  N  N10  1  0.16012279  0.62449645  0.99156060  1
  N  N11  1  0.56637676  0.81744095  0.26225097  1
  N  N12  1  0.60179796  0.81710293  0.73145627  1
  N  N13  1  0.69671222  0.32041497  0.99505706  1
  N  N14  1  0.02830669  0.65664189  0.48830720  1
  N  N15  1  0.56172208  0.35572801  0.49796177  1
