# generated using pymatgen
data_Zn3MoN4
_symmetry_space_group_name_H-M   'P 1'
_cell_length_a   5.58916591
_cell_length_b   5.73103312
_cell_length_c   6.60813825
_cell_angle_alpha   90.00241047
_cell_angle_beta   89.61371042
_cell_angle_gamma   90.78875614
_symmetry_Int_Tables_number   1
_chemical_formula_structural   Zn3MoN4
_chemical_formula_sum   'Zn6 Mo2 N8'
_cell_volume   211.64500112
_cell_formula_units_Z   2
loop_
 _symmetry_equiv_pos_site_id
 _symmetry_equiv_pos_as_xyz
  1  'x, y, z'
loop_
 _atom_site_type_symbol
 _atom_site_label
 _atom_site_symmetry_multiplicity
 _atom_site_fract_x
 _atom_site_fract_y
 _atom_site_fract_z
 _atom_site_occupancy
  Zn  Zn0  1  0.16973860  0.82014034  0.25206207  1
  Zn  Zn1  1  0.15525417  0.81423085  0.74202459  1
  Zn  Zn2  1  0.55308087  0.64376923  0.99461907  1
  Zn  Zn3  1  0.54915674  0.16359176  0.74973216  1
  Zn  Zn4  1  0.61023030  0.16101593  0.24590487  1
  Zn  Zn5  1  0.16559149  0.33543882  0.49279408  1
  Mo  Mo6  1  0.03859468  0.31684973  0.99430080  1
  Mo  Mo7  1  0.67770194  0.66368692  0.49418401  1
  N  N8  1  0.15262193  0.16255519  0.76225055  1
  N  N9  1  0.11730152  0.16290255  0.23144086  1
  N  N10  1  0.15726743  0.62426807  0.99795550  1
  N  N11  1  0.56576717  0.81865960  0.26145979  1
  N  N12  1  0.56777798  0.81444017  0.72631552  1
  N  N13  1  0.69069830  0.32334949  0.98832749  1
  N  N14  1  0.02229056  0.65958693  0.49505613  1
  N  N15  1  0.55888163  0.35551437  0.49157257  1
