# generated using pymatgen
data_Zn3MoN4
_symmetry_space_group_name_H-M   'P 1'
_cell_length_a   5.37561047
_cell_length_b   5.68581199
_cell_length_c   6.56942143
_cell_angle_alpha   90.00000266
_cell_angle_beta   89.99995242
_cell_angle_gamma   89.97156725
_symmetry_Int_Tables_number   1
_chemical_formula_structural   Zn3MoN4
_chemical_formula_sum   'Zn6 Mo2 N8'
_cell_volume   200.79243933
_cell_formula_units_Z   2
loop_
 _symmetry_equiv_pos_site_id
 _symmetry_equiv_pos_as_xyz
  1  'x, y, z'
loop_
 _atom_site_type_symbol
 _atom_site_label
 _atom_site_symmetry_multiplicity
 _atom_site_fract_x
 _atom_site_fract_y
 _atom_site_fract_z
 _atom_site_occupancy
  Zn  Zn0  1  0.03769798  0.82204645  0.24365342  1
  Zn  Zn1  1  0.03769750  0.82204613  0.74634593  1
  Zn  Zn2  1  0.53907196  0.65602349  0.99500139  1
  Zn  Zn3  1  0.53789020  0.15799782  0.74367482  1
  Zn  Zn4  1  0.53789000  0.15799761  0.24632453  1
  Zn  Zn5  1  0.03882759  0.32404986  0.49500114  1
  Mo  Mo6  1  0.03963296  0.31970624  0.99500001  1
  Mo  Mo7  1  0.53941553  0.66031136  0.49500006  1
  N  N8  1  0.15585052  0.16313677  0.75794757  1
  N  N9  1  0.15585024  0.16313735  0.23205252  1
  N  N10  1  0.15635229  0.63283860  0.99499962  1
  N  N11  1  0.65579679  0.81679594  0.25800605  1
  N  N12  1  0.65579624  0.81679541  0.73199421  1
  N  N13  1  0.69054990  0.31859947  0.99499964  1
  N  N14  1  0.19039955  0.66137360  0.49499959  1
  N  N15  1  0.65629263  0.34714383  0.49499957  1
