# generated using pymatgen
data_Sc2Al7N9
_symmetry_space_group_name_H-M   'P 1'
_cell_length_a   9.84797158
_cell_length_b   9.87697036
_cell_length_c   9.76930597
_cell_angle_alpha   89.99943612
_cell_angle_beta   89.98977049
_cell_angle_gamma   60.03845163
_symmetry_Int_Tables_number   1
_chemical_formula_structural   Sc2Al7N9
_chemical_formula_sum   'Sc8 Al28 N36'
_cell_volume   823.25241767
_cell_formula_units_Z   4
loop_
 _symmetry_equiv_pos_site_id
 _symmetry_equiv_pos_as_xyz
  1  'x, y, z'
loop_
 _atom_site_type_symbol
 _atom_site_label
 _atom_site_symmetry_multiplicity
 _atom_site_fract_x
 _atom_site_fract_y
 _atom_site_fract_z
 _atom_site_occupancy
  Al  Al0  1  0.10840418  0.09633604  0.32407869  1
  Al  Al1  1  0.22978878  0.19549609  0.07845379  1
  Al  Al2  1  0.77790286  0.09827795  0.82760078  1
  Al  Al3  1  0.88639618  0.20705234  0.57618363  1
  Al  Al4  1  0.44082776  0.09445570  0.32677525  1
  Al  Al5  1  0.55433095  0.20476639  0.07393532  1
  Al  Al6  1  0.10542049  0.09890269  0.82727584  1
  Al  Al7  1  0.21760803  0.20792641  0.57263644  1
  Al  Al8  1  0.78133138  0.09525610  0.32323270  1
  Al  Al9  1  0.88596061  0.20259406  0.07407757  1
  Al  Al10  1  0.44210347  0.09715790  0.82399775  1
  Al  Al11  1  0.56303228  0.19518289  0.57763513  1
  Al  Al12  1  0.11761704  0.42209432  0.32001209  1
  Al  Al13  1  0.23042913  0.54066825  0.07218149  1
  Al  Al14  1  0.77884452  0.41758071  0.82246069  1
  Al  Al15  1  0.89049977  0.52837986  0.56732887  1
  Al  Al16  1  0.55929253  0.52357427  0.07585903  1
  Al  Al17  1  0.77874036  0.41807794  0.32865892  1
  Al  Al18  1  0.45603888  0.41939782  0.82155554  1
  Al  Al19  1  0.56641084  0.53917219  0.57551042  1
  Al  Al20  1  0.11057590  0.76516982  0.31891588  1
  Al  Al21  1  0.21494749  0.87856328  0.07752847  1
  Al  Al22  1  0.88679268  0.88405826  0.57177255  1
  Al  Al23  1  0.44266319  0.76316715  0.31620925  1
  Al  Al24  1  0.55327919  0.88415603  0.07828712  1
  Al  Al25  1  0.10459779  0.77423504  0.83306277  1
  Al  Al26  1  0.88681610  0.88129725  0.07779397  1
  Al  Al27  1  0.54845606  0.87522633  0.57248774  1
  Sc  Sc28  1  0.44694654  0.42458782  0.34185407  1
  Sc  Sc29  1  0.11167224  0.42098946  0.84626565  1
  Sc  Sc30  1  0.21515011  0.54309939  0.59334785  1
  Sc  Sc31  1  0.88147468  0.53732193  0.09810589  1
  Sc  Sc32  1  0.77919730  0.76521941  0.82725862  1
  Sc  Sc33  1  0.22374502  0.87629205  0.58278724  1
  Sc  Sc34  1  0.77469130  0.76950380  0.34629192  1
  Sc  Sc35  1  0.44874598  0.75520099  0.85062535  1
  N  N36  1  0.22141301  0.20627626  0.37523206  1
  N  N37  1  0.10693412  0.09784513  0.12917804  1
  N  N38  1  0.88861240  0.20483731  0.87850975  1
  N  N39  1  0.77740762  0.09624023  0.63216812  1
  N  N40  1  0.56885548  0.17970786  0.38321672  1
  N  N41  1  0.44401136  0.09755363  0.13244826  1
  N  N42  1  0.23259181  0.18239658  0.88503079  1
  N  N43  1  0.09997327  0.11421837  0.63114471  1
  N  N44  1  0.88907311  0.20289998  0.38110193  1
  N  N45  1  0.77487667  0.09770683  0.12783981  1
  N  N46  1  0.55380691  0.20438865  0.87598052  1
  N  N47  1  0.44033015  0.09604359  0.62770167  1
  N  N48  1  0.20087894  0.55126762  0.37360896  1
  N  N49  1  0.13268633  0.41736295  0.11659502  1
  N  N50  1  0.87214909  0.53161873  0.88215432  1
  N  N51  1  0.78040046  0.42438682  0.62498341  1
  N  N52  1  0.56482086  0.55171382  0.37977555  1
  N  N53  1  0.44424683  0.42399208  0.12369725  1
  N  N54  1  0.23490956  0.55048833  0.86911346  1
  N  N55  1  0.09979470  0.41882014  0.62704948  1
  N  N56  1  0.89961026  0.51695167  0.36354432  1
  N  N57  1  0.76696751  0.41008791  0.13707402  1
  N  N58  1  0.57077746  0.51011703  0.88214154  1
  N  N59  1  0.46643574  0.41638194  0.61867777  1
  N  N60  1  0.22373921  0.87159646  0.36225535  1
  N  N61  1  0.11096504  0.76122442  0.12278915  1
  N  N62  1  0.89311893  0.88733512  0.88535008  1
  N  N63  1  0.77782476  0.76215794  0.59763087  1
  N  N64  1  0.52861831  0.88442065  0.37797513  1
  N  N65  1  0.44685213  0.75770946  0.11377182  1
  N  N66  1  0.20400392  0.88682354  0.87930818  1
  N  N67  1  0.08861514  0.77838245  0.64027333  1
  N  N68  1  0.90238164  0.88665718  0.37848264  1
  N  N69  1  0.76910602  0.78256892  0.12399461  1
  N  N70  1  0.54950692  0.89347174  0.88559462  1
  N  N71  1  0.46515627  0.74985468  0.63306266  1
