# generated using pymatgen
data_Sc2Al7N9
_symmetry_space_group_name_H-M   'P 1'
_cell_length_a   9.73327392
_cell_length_b   9.75791588
_cell_length_c   10.09829062
_cell_angle_alpha   90.04621455
_cell_angle_beta   90.07842169
_cell_angle_gamma   60.03203677
_symmetry_Int_Tables_number   1
_chemical_formula_structural   Sc2Al7N9
_chemical_formula_sum   'Sc8 Al28 N36'
_cell_volume   830.87216817
_cell_formula_units_Z   4
loop_
 _symmetry_equiv_pos_site_id
 _symmetry_equiv_pos_as_xyz
  1  'x, y, z'
loop_
 _atom_site_type_symbol
 _atom_site_label
 _atom_site_symmetry_multiplicity
 _atom_site_fract_x
 _atom_site_fract_y
 _atom_site_fract_z
 _atom_site_occupancy
  Al  Al0  1  0.10608068  0.10191764  0.38823320  1
  Al  Al1  1  0.22680461  0.20259113  0.14608909  1
  Al  Al2  1  0.77906179  0.09836963  0.89164117  1
  Al  Al3  1  0.88636793  0.20830779  0.64257909  1
  Al  Al4  1  0.44140176  0.09470388  0.39351023  1
  Al  Al5  1  0.55973524  0.19581040  0.13969044  1
  Al  Al6  1  0.10699532  0.09484086  0.89694096  1
  Al  Al7  1  0.22150747  0.20144168  0.64065994  1
  Al  Al8  1  0.78043319  0.09481348  0.39391577  1
  Al  Al9  1  0.88470258  0.20284177  0.14349145  1
  Al  Al10  1  0.44140347  0.09615360  0.89258604  1
  Al  Al11  1  0.55852842  0.20291129  0.64503030  1
  Al  Al12  1  0.10998614  0.42201980  0.39789902  1
  Al  Al13  1  0.21976134  0.54122667  0.14505279  1
  Al  Al14  1  0.77618828  0.41460741  0.89104793  1
  Al  Al15  1  0.88333128  0.53450224  0.64426875  1
  Al  Al16  1  0.55760498  0.53890693  0.14400170  1
  Al  Al17  1  0.78165151  0.42292223  0.39710095  1
  Al  Al18  1  0.44973586  0.42377474  0.89947822  1
  Al  Al19  1  0.56631585  0.52791764  0.64237953  1
  Al  Al20  1  0.10481069  0.76971498  0.38705060  1
  Al  Al21  1  0.22173731  0.87425214  0.14856857  1
  Al  Al22  1  0.88574388  0.88063047  0.64516286  1
  Al  Al23  1  0.44776602  0.76099435  0.39237912  1
  Al  Al24  1  0.54665385  0.88006784  0.14846467  1
  Al  Al25  1  0.11075537  0.76923948  0.89977766  1
  Al  Al26  1  0.88784584  0.88163897  0.14378235  1
  Al  Al27  1  0.55507530  0.87631743  0.64099750  1
  Sc  Sc28  1  0.45142820  0.42222525  0.37510819  1
  Sc  Sc29  1  0.11890628  0.42143603  0.88232771  1
  Sc  Sc30  1  0.22551690  0.54233915  0.63348664  1
  Sc  Sc31  1  0.88893599  0.53197995  0.13901472  1
  Sc  Sc32  1  0.77570521  0.76914888  0.88498989  1
  Sc  Sc33  1  0.21719563  0.88111565  0.63214629  1
  Sc  Sc34  1  0.77862508  0.76473656  0.38903124  1
  Sc  Sc35  1  0.44365314  0.75701958  0.88760480  1
  N  N36  1  0.22334814  0.20630695  0.33651321  1
  N  N37  1  0.10912593  0.09668659  0.09095433  1
  N  N38  1  0.89111000  0.20208819  0.83340435  1
  N  N39  1  0.77589622  0.09651897  0.58603417  1
  N  N40  1  0.56834743  0.17923642  0.32828173  1
  N  N41  1  0.44210657  0.09400491  0.08335455  1
  N  N42  1  0.22968000  0.18341442  0.82956655  1
  N  N43  1  0.09684964  0.11723092  0.57540631  1
  N  N44  1  0.88480992  0.20743591  0.33396188  1
  N  N45  1  0.77757686  0.09513352  0.08106142  1
  N  N46  1  0.55326694  0.20543781  0.83904933  1
  N  N47  1  0.44313104  0.09705905  0.58371965  1
  N  N48  1  0.20143310  0.54918773  0.33936773  1
  N  N49  1  0.13093878  0.41659786  0.09041838  1
  N  N50  1  0.87693294  0.52785342  0.83656988  1
  N  N51  1  0.77911513  0.42385502  0.58597776  1
  N  N52  1  0.57018302  0.54807864  0.33144405  1
  N  N53  1  0.44531610  0.42624663  0.09879468  1
  N  N54  1  0.23404460  0.55341777  0.84450788  1
  N  N55  1  0.10371496  0.41969346  0.59322498  1
  N  N56  1  0.89767140  0.52017143  0.34701153  1
  N  N57  1  0.76756246  0.41388792  0.07908510  1
  N  N58  1  0.56570258  0.51508247  0.83166390  1
  N  N59  1  0.46686148  0.41415718  0.58332459  1
  N  N60  1  0.22316801  0.87424561  0.34269254  1
  N  N61  1  0.11049881  0.76334635  0.09134026  1
  N  N62  1  0.89940555  0.88492598  0.83341383  1
  N  N63  1  0.77929746  0.76214285  0.60545490  1
  N  N64  1  0.53522893  0.88411622  0.33651880  1
  N  N65  1  0.44336413  0.76143749  0.09794924  1
  N  N66  1  0.20441608  0.88422095  0.84193494  1
  N  N67  1  0.08882550  0.77520526  0.57268274  1
  N  N68  1  0.89587848  0.88758177  0.32952655  1
  N  N69  1  0.76755002  0.77973792  0.10232925  1
  N  N70  1  0.54311944  0.89166168  0.82664924  1
  N  N71  1  0.46538587  0.74766388  0.58602287  1
