# generated using pymatgen
data_Sc2Al7N9
_symmetry_space_group_name_H-M   'P 1'
_cell_length_a   9.73359181
_cell_length_b   9.75817923
_cell_length_c   10.09741780
_cell_angle_alpha   90.04618497
_cell_angle_beta   90.07833813
_cell_angle_gamma   60.03266882
_symmetry_Int_Tables_number   1
_chemical_formula_structural   Sc2Al7N9
_chemical_formula_sum   'Sc8 Al28 N36'
_cell_volume   830.85519607
_cell_formula_units_Z   4
loop_
 _symmetry_equiv_pos_site_id
 _symmetry_equiv_pos_as_xyz
  1  'x, y, z'
loop_
 _atom_site_type_symbol
 _atom_site_label
 _atom_site_symmetry_multiplicity
 _atom_site_fract_x
 _atom_site_fract_y
 _atom_site_fract_z
 _atom_site_occupancy
  Al  Al0  1  0.10609757  0.10190866  0.38260507  1
  Al  Al1  1  0.22682978  0.20257902  0.14046226  1
  Al  Al2  1  0.77908355  0.09835395  0.88601342  1
  Al  Al3  1  0.88638833  0.20829487  0.63695557  1
  Al  Al4  1  0.44142163  0.09468641  0.38788878  1
  Al  Al5  1  0.55976541  0.19577949  0.13406842  1
  Al  Al6  1  0.10701436  0.09482812  0.89132392  1
  Al  Al7  1  0.22152818  0.20142328  0.63504236  1
  Al  Al8  1  0.78045513  0.09479062  0.38830087  1
  Al  Al9  1  0.88472256  0.20282076  0.13787276  1
  Al  Al10  1  0.44142126  0.09614099  0.88696424  1
  Al  Al11  1  0.55854895  0.20289702  0.63940743  1
  Al  Al12  1  0.11000428  0.42200054  0.39228545  1
  Al  Al13  1  0.21978407  0.54120847  0.13943374  1
  Al  Al14  1  0.77620971  0.41458613  0.88543076  1
  Al  Al15  1  0.88334307  0.53449685  0.63865712  1
  Al  Al16  1  0.55763109  0.53889858  0.13837338  1
  Al  Al17  1  0.78167770  0.42290593  0.39147524  1
  Al  Al18  1  0.44975837  0.42376006  0.89385905  1
  Al  Al19  1  0.56634286  0.52789025  0.63675329  1
  Al  Al20  1  0.10482668  0.76970030  0.38142702  1
  Al  Al21  1  0.22176418  0.87423211  0.14294408  1
  Al  Al22  1  0.88575847  0.88061047  0.63953985  1
  Al  Al23  1  0.44778766  0.76097342  0.38676925  1
  Al  Al24  1  0.54666564  0.88004881  0.14284202  1
  Al  Al25  1  0.11078074  0.76922320  0.89414233  1
  Al  Al26  1  0.88787269  0.88162167  0.13815532  1
  Al  Al27  1  0.55509766  0.87630376  0.63537186  1
  Sc  Sc28  1  0.45146440  0.42219829  0.36945320  1
  Sc  Sc29  1  0.11893811  0.42143028  0.87666670  1
  Sc  Sc30  1  0.22555524  0.54232371  0.62782614  1
  Sc  Sc31  1  0.88897838  0.53194559  0.13335967  1
  Sc  Sc32  1  0.77571659  0.76914241  0.87937890  1
  Sc  Sc33  1  0.21720268  0.88111132  0.62650381  1
  Sc  Sc34  1  0.77864498  0.76471012  0.38337155  1
  Sc  Sc35  1  0.44366657  0.75700453  0.88194805  1
  N  N36  1  0.22337015  0.20629519  0.33090026  1
  N  N37  1  0.10914738  0.09666980  0.08534908  1
  N  N38  1  0.89113304  0.20207269  0.82779164  1
  N  N39  1  0.77591707  0.09650101  0.58042884  1
  N  N40  1  0.56837796  0.17920373  0.32266984  1
  N  N41  1  0.44213077  0.09398349  0.07774320  1
  N  N42  1  0.22970095  0.18339793  0.82395990  1
  N  N43  1  0.09686333  0.11722820  0.56978946  1
  N  N44  1  0.88482663  0.20741666  0.32835295  1
  N  N45  1  0.77760068  0.09511272  0.07544468  1
  N  N46  1  0.55328501  0.20542593  0.83343898  1
  N  N47  1  0.44314725  0.09704648  0.57810895  1
  N  N48  1  0.20145785  0.54916694  0.33377176  1
  N  N49  1  0.13098082  0.41657627  0.08477974  1
  N  N50  1  0.87694859  0.52784621  0.83098230  1
  N  N51  1  0.77914011  0.42384256  0.58036625  1
  N  N52  1  0.57020963  0.54806990  0.32583125  1
  N  N53  1  0.44534181  0.42622801  0.09319818  1
  N  N54  1  0.23408424  0.55340941  0.83886922  1
  N  N55  1  0.10373147  0.41968316  0.58763687  1
  N  N56  1  0.89770647  0.52013901  0.34137737  1
  N  N57  1  0.76758566  0.41386266  0.07347828  1
  N  N58  1  0.56573242  0.51505587  0.82605258  1
  N  N59  1  0.46690106  0.41412913  0.57768768  1
  N  N60  1  0.22319148  0.87422709  0.33708787  1
  N  N61  1  0.11052548  0.76332485  0.08572431  1
  N  N62  1  0.89942378  0.88490682  0.82780554  1
  N  N63  1  0.77931293  0.76212577  0.59982553  1
  N  N64  1  0.53523801  0.88410026  0.33091112  1
  N  N65  1  0.44338242  0.76142104  0.09231531  1
  N  N66  1  0.20442613  0.88421818  0.83630908  1
  N  N67  1  0.08883600  0.77519535  0.56707157  1
  N  N68  1  0.89590183  0.88756463  0.32391244  1
  N  N69  1  0.76757016  0.77971749  0.09673959  1
  N  N70  1  0.54314235  0.89165122  0.82103840  1
  N  N71  1  0.46540180  0.74764457  0.58043111  1
