# generated using pymatgen
data_Sc2Al7N9
_symmetry_space_group_name_H-M   'P 1'
_cell_length_a   10.13313533
_cell_length_b   10.17639057
_cell_length_c   8.89653038
_cell_angle_alpha   90.02822156
_cell_angle_beta   90.03210837
_cell_angle_gamma   60.12344355
_symmetry_Int_Tables_number   1
_chemical_formula_structural   Sc2Al7N9
_chemical_formula_sum   'Sc8 Al28 N36'
_cell_volume   795.47713676
_cell_formula_units_Z   4
loop_
 _symmetry_equiv_pos_site_id
 _symmetry_equiv_pos_as_xyz
  1  'x, y, z'
loop_
 _atom_site_type_symbol
 _atom_site_label
 _atom_site_symmetry_multiplicity
 _atom_site_fract_x
 _atom_site_fract_y
 _atom_site_fract_z
 _atom_site_occupancy
  Al  Al0  1  0.10631589  0.09849508  0.33567326  1
  Al  Al1  1  0.22859409  0.19788805  0.09527869  1
  Al  Al2  1  0.77840430  0.09837906  0.83953781  1
  Al  Al3  1  0.88648430  0.20548879  0.58586508  1
  Al  Al4  1  0.44278065  0.09420349  0.33971504  1
  Al  Al5  1  0.55551745  0.20135063  0.08348486  1
  Al  Al6  1  0.10610802  0.09899643  0.84153062  1
  Al  Al7  1  0.21962225  0.20540361  0.58050666  1
  Al  Al8  1  0.77933992  0.09610674  0.33292939  1
  Al  Al9  1  0.88655284  0.20286673  0.08629124  1
  Al  Al10  1  0.44055003  0.09758170  0.83352566  1
  Al  Al11  1  0.56185234  0.19811191  0.59248580  1
  Al  Al12  1  0.11318372  0.42368705  0.34426130  1
  Al  Al13  1  0.22581385  0.54083606  0.09572811  1
  Al  Al14  1  0.77833106  0.41596203  0.83183289  1
  Al  Al15  1  0.88829628  0.53077746  0.59349171  1
  Al  Al16  1  0.56021005  0.52836739  0.09257512  1
  Al  Al17  1  0.78035678  0.41890415  0.34398286  1
  Al  Al18  1  0.45296018  0.42140168  0.84612959  1
  Al  Al19  1  0.56447639  0.53537047  0.58619771  1
  Al  Al20  1  0.10837280  0.76726282  0.32987846  1
  Al  Al21  1  0.21807834  0.87810296  0.09749282  1
  Al  Al22  1  0.88487498  0.88429384  0.58585337  1
  Al  Al23  1  0.44487863  0.76154010  0.33719626  1
  Al  Al24  1  0.54995308  0.88291660  0.09199252  1
  Al  Al25  1  0.10659899  0.77216091  0.85008955  1
  Al  Al26  1  0.88708237  0.88218722  0.09007246  1
  Al  Al27  1  0.55054539  0.87587056  0.58764426  1
  Sc  Sc28  1  0.44950936  0.42133895  0.34851111  1
  Sc  Sc29  1  0.11707395  0.41898198  0.85306148  1
  Sc  Sc30  1  0.21907723  0.54522625  0.60211822  1
  Sc  Sc31  1  0.88501439  0.53269458  0.10345263  1
  Sc  Sc32  1  0.77817585  0.76738163  0.84733930  1
  Sc  Sc33  1  0.21991566  0.87903801  0.59637397  1
  Sc  Sc34  1  0.77590117  0.76670672  0.35190904  1
  Sc  Sc35  1  0.44783187  0.75488634  0.85553349  1
  N  N36  1  0.22245159  0.20427131  0.35985777  1
  N  N37  1  0.10634647  0.09835940  0.11749414  1
  N  N38  1  0.88910886  0.20459672  0.86692635  1
  N  N39  1  0.77738258  0.09698589  0.62108829  1
  N  N40  1  0.56781817  0.18262366  0.37101717  1
  N  N41  1  0.44476169  0.09671515  0.12088223  1
  N  N42  1  0.23120750  0.18538219  0.87339345  1
  N  N43  1  0.09963963  0.11483878  0.61546598  1
  N  N44  1  0.88823284  0.20216769  0.36783634  1
  N  N45  1  0.77400068  0.09859471  0.11395072  1
  N  N46  1  0.55423001  0.20273852  0.86226298  1
  N  N47  1  0.43957222  0.09678743  0.61347643  1
  N  N48  1  0.20531173  0.55104527  0.35131715  1
  N  N49  1  0.12900379  0.41752220  0.11134168  1
  N  N50  1  0.87833531  0.52823615  0.85443126  1
  N  N51  1  0.77868910  0.42204945  0.60941966  1
  N  N52  1  0.56410494  0.54669868  0.36211272  1
  N  N53  1  0.44641134  0.42205563  0.10429627  1
  N  N54  1  0.23219022  0.55038823  0.86300131  1
  N  N55  1  0.10619367  0.41882634  0.60346392  1
  N  N56  1  0.89584874  0.52140475  0.36147232  1
  N  N57  1  0.77093479  0.41141098  0.12441471  1
  N  N58  1  0.56975779  0.51541233  0.86942453  1
  N  N59  1  0.46413237  0.41705451  0.61103593  1
  N  N60  1  0.22200347  0.87381873  0.34780569  1
  N  N61  1  0.10980863  0.76369290  0.10902347  1
  N  N62  1  0.89394040  0.88773084  0.87189377  1
  N  N63  1  0.77659785  0.76540734  0.60138673  1
  N  N64  1  0.53494648  0.88306178  0.36439864  1
  N  N65  1  0.44713592  0.75803501  0.11191764  1
  N  N66  1  0.20723801  0.88561956  0.86671675  1
  N  N67  1  0.09076270  0.77626520  0.62302006  1
  N  N68  1  0.89787710  0.88599162  0.36280631  1
  N  N69  1  0.77034060  0.77794306  0.10715570  1
  N  N70  1  0.54536267  0.89182450  0.86784726  1
  N  N71  1  0.46186354  0.74962401  0.60910320  1
