# generated using pymatgen
data_Sc2Al7N9
_symmetry_space_group_name_H-M   'P 1'
_cell_length_a   9.73724804
_cell_length_b   9.76059190
_cell_length_c   10.08750171
_cell_angle_alpha   90.04764585
_cell_angle_beta   90.08032055
_cell_angle_gamma   60.04480817
_symmetry_Int_Tables_number   1
_chemical_formula_structural   Sc2Al7N9
_chemical_formula_sum   'Sc8 Al28 N36'
_cell_volume   830.65775475
_cell_formula_units_Z   4
loop_
 _symmetry_equiv_pos_site_id
 _symmetry_equiv_pos_as_xyz
  1  'x, y, z'
loop_
 _atom_site_type_symbol
 _atom_site_label
 _atom_site_symmetry_multiplicity
 _atom_site_fract_x
 _atom_site_fract_y
 _atom_site_fract_z
 _atom_site_occupancy
  Al  Al0  1  0.10594628  0.10209030  0.40183534  1
  Al  Al1  1  0.22678668  0.20270941  0.15969681  1
  Al  Al2  1  0.77902262  0.09839916  0.90528091  1
  Al  Al3  1  0.88629170  0.20842836  0.65628929  1
  Al  Al4  1  0.44128700  0.09474125  0.40724281  1
  Al  Al5  1  0.55981380  0.19561309  0.15338464  1
  Al  Al6  1  0.10688925  0.09495988  0.91070516  1
  Al  Al7  1  0.22142067  0.20150351  0.65441307  1
  Al  Al8  1  0.78038828  0.09476790  0.40775205  1
  Al  Al9  1  0.88461551  0.20282897  0.15726101  1
  Al  Al10  1  0.44127321  0.09624551  0.90630216  1
  Al  Al11  1  0.55848092  0.20295387  0.65872076  1
  Al  Al12  1  0.10988911  0.42206575  0.41173216  1
  Al  Al13  1  0.21974368  0.54123608  0.15876549  1
  Al  Al14  1  0.77613216  0.41461476  0.90482098  1
  Al  Al15  1  0.88311591  0.53476841  0.65808271  1
  Al  Al16  1  0.55761170  0.53905934  0.15765149  1
  Al  Al17  1  0.78165490  0.42297960  0.41073514  1
  Al  Al18  1  0.44973518  0.42379740  0.91327608  1
  Al  Al19  1  0.56635617  0.52778864  0.65605644  1
  Al  Al20  1  0.10469681  0.76975496  0.40078214  1
  Al  Al21  1  0.22173563  0.87424993  0.16226166  1
  Al  Al22  1  0.88559076  0.88059172  0.65884372  1
  Al  Al23  1  0.44766545  0.76097078  0.40630783  1
  Al  Al24  1  0.54639719  0.88007060  0.16217648  1
  Al  Al25  1  0.11072442  0.76929860  0.91334195  1
  Al  Al26  1  0.88787053  0.88166603  0.15750479  1
  Al  Al27  1  0.55502160  0.87639067  0.65463585  1
  Sc  Sc28  1  0.45157918  0.42208933  0.38837300  1
  Sc  Sc29  1  0.11894938  0.42167281  0.89547094  1
  Sc  Sc30  1  0.22575999  0.54239423  0.64674955  1
  Sc  Sc31  1  0.88919684  0.53175788  0.15228505  1
  Sc  Sc32  1  0.77544400  0.76937260  0.89895387  1
  Sc  Sc33  1  0.21690452  0.88137943  0.64559345  1
  Sc  Sc34  1  0.77847555  0.76468169  0.40215736  1
  Sc  Sc35  1  0.44344757  0.75706699  0.90081227  1
  N  N36  1  0.22328085  0.20645575  0.35031562  1
  N  N37  1  0.10904922  0.09673547  0.10488297  1
  N  N38  1  0.89106820  0.20216182  0.84724800  1
  N  N39  1  0.77584884  0.09653190  0.59997980  1
  N  N40  1  0.56843761  0.17900689  0.34211230  1
  N  N41  1  0.44206857  0.09396226  0.09719338  1
  N  N42  1  0.22959586  0.18349082  0.84346287  1
  N  N43  1  0.09665872  0.11751087  0.58915588  1
  N  N44  1  0.88467552  0.20745208  0.34783940  1
  N  N45  1  0.77756396  0.09508741  0.09484451  1
  N  N46  1  0.55318472  0.20550865  0.85291352  1
  N  N47  1  0.44297628  0.09716273  0.59757979  1
  N  N48  1  0.20144907  0.54916936  0.35338383  1
  N  N49  1  0.13116351  0.41657586  0.10384373  1
  N  N50  1  0.87675265  0.52810182  0.85070976  1
  N  N51  1  0.77910366  0.42397672  0.59980573  1
  N  N52  1  0.57018513  0.54823012  0.34528344  1
  N  N53  1  0.44534568  0.42622091  0.11285799  1
  N  N54  1  0.23428328  0.55356911  0.85804498  1
  N  N55  1  0.10358984  0.41988463  0.60740266  1
  N  N56  1  0.89781441  0.52000239  0.36054463  1
  N  N57  1  0.76752285  0.41382571  0.09299577  1
  N  N58  1  0.56577608  0.51495921  0.84551962  1
  N  N59  1  0.46708447  0.41400560  0.59681996  1
  N  N60  1  0.22311585  0.87427240  0.35664300  1
  N  N61  1  0.11048349  0.76332899  0.10514403  1
  N  N62  1  0.89929082  0.88489570  0.84729716  1
  N  N63  1  0.77910817  0.76221425  0.61896776  1
  N  N64  1  0.53491418  0.88418234  0.35042008  1
  N  N65  1  0.44322257  0.76146539  0.11146273  1
  N  N66  1  0.20416032  0.88447731  0.85558738  1
  N  N67  1  0.08864156  0.77531159  0.58656707  1
  N  N68  1  0.89587075  0.88760756  0.34339356  1
  N  N69  1  0.76743505  0.77973457  0.11657520  1
  N  N70  1  0.54305836  0.89177738  0.84048471  1
  N  N71  1  0.46520637  0.74765937  0.60016935  1
