# generated using pymatgen
data_Sc2Al7N9
_symmetry_space_group_name_H-M   'P 1'
_cell_length_a   9.88364104
_cell_length_b   9.91470672
_cell_length_c   9.66485666
_cell_angle_alpha   90.00320719
_cell_angle_beta   89.99975560
_cell_angle_gamma   60.05031552
_symmetry_Int_Tables_number   1
_chemical_formula_structural   Sc2Al7N9
_chemical_formula_sum   'Sc8 Al28 N36'
_cell_volume   820.62142975
_cell_formula_units_Z   4
loop_
 _symmetry_equiv_pos_site_id
 _symmetry_equiv_pos_as_xyz
  1  'x, y, z'
loop_
 _atom_site_type_symbol
 _atom_site_label
 _atom_site_symmetry_multiplicity
 _atom_site_fract_x
 _atom_site_fract_y
 _atom_site_fract_z
 _atom_site_occupancy
  Al  Al0  1  0.10820835  0.09636317  0.32514277  1
  Al  Al1  1  0.22983464  0.19550550  0.07985828  1
  Al  Al2  1  0.77794667  0.09838721  0.82842576  1
  Al  Al3  1  0.88642498  0.20690972  0.57688847  1
  Al  Al4  1  0.44108903  0.09439793  0.32790515  1
  Al  Al5  1  0.55429370  0.20467318  0.07467069  1
  Al  Al6  1  0.10534708  0.09927906  0.82810490  1
  Al  Al7  1  0.21757397  0.20799925  0.57305066  1
  Al  Al8  1  0.78105780  0.09537267  0.32394891  1
  Al  Al9  1  0.88594590  0.20261556  0.07489777  1
  Al  Al10  1  0.44170068  0.09733799  0.82444354  1
  Al  Al11  1  0.56309778  0.19512435  0.57872364  1
  Al  Al12  1  0.11740676  0.42238127  0.32156325  1
  Al  Al13  1  0.23047676  0.54059114  0.07372878  1
  Al  Al14  1  0.77882397  0.41736012  0.82296149  1
  Al  Al15  1  0.89035685  0.52880668  0.56944850  1
  Al  Al16  1  0.55949844  0.52337908  0.07722437  1
  Al  Al17  1  0.77884091  0.41801126  0.33001655  1
  Al  Al18  1  0.45607770  0.41939800  0.82265010  1
  Al  Al19  1  0.56627349  0.53914801  0.57607514  1
  Al  Al20  1  0.11052938  0.76528485  0.31987577  1
  Al  Al21  1  0.21506628  0.87870240  0.07868500  1
  Al  Al22  1  0.88648359  0.88406382  0.57289903  1
  Al  Al23  1  0.44265606  0.76310456  0.31742174  1
  Al  Al24  1  0.55272076  0.88441172  0.07916348  1
  Al  Al25  1  0.10462662  0.77425610  0.83418775  1
  Al  Al26  1  0.88696910  0.88162645  0.07881061  1
  Al  Al27  1  0.54869766  0.87504207  0.57387514  1
  Sc  Sc28  1  0.44701573  0.42433235  0.34370853  1
  Sc  Sc29  1  0.11209349  0.42071641  0.84777710  1
  Sc  Sc30  1  0.21524726  0.54342231  0.59511227  1
  Sc  Sc31  1  0.88177161  0.53652147  0.09917463  1
  Sc  Sc32  1  0.77913232  0.76540982  0.83110476  1
  Sc  Sc33  1  0.22348779  0.87661241  0.58507074  1
  Sc  Sc34  1  0.77474447  0.76932316  0.34671119  1
  Sc  Sc35  1  0.44890852  0.75486276  0.85174869  1
  N  N36  1  0.22144223  0.20622123  0.37374095  1
  N  N37  1  0.10682447  0.09782290  0.12825004  1
  N  N38  1  0.88861117  0.20486017  0.87744549  1
  N  N39  1  0.77744590  0.09633529  0.63118431  1
  N  N40  1  0.56889321  0.17972370  0.38224558  1
  N  N41  1  0.44414873  0.09756115  0.13161088  1
  N  N42  1  0.23247675  0.18257865  0.88421041  1
  N  N43  1  0.09978965  0.11467121  0.62976139  1
  N  N44  1  0.88902058  0.20270066  0.38003244  1
  N  N45  1  0.77467778  0.09790169  0.12667151  1
  N  N46  1  0.55373898  0.20430155  0.87472376  1
  N  N47  1  0.44009252  0.09612612  0.62631844  1
  N  N48  1  0.20110173  0.55139664  0.37229153  1
  N  N49  1  0.13252905  0.41742653  0.11550906  1
  N  N50  1  0.87280257  0.53082239  0.88036427  1
  N  N51  1  0.78024944  0.42422427  0.62349275  1
  N  N52  1  0.56468700  0.55152007  0.37820376  1
  N  N53  1  0.44444389  0.42368212  0.12287484  1
  N  N54  1  0.23496500  0.55044769  0.86789700  1
  N  N55  1  0.10034952  0.41880198  0.62558265  1
  N  N56  1  0.89931373  0.51741459  0.36285680  1
  N  N57  1  0.76731718  0.40992245  0.13622694  1
  N  N58  1  0.57087706  0.51017590  0.88118793  1
  N  N59  1  0.46641602  0.41633474  0.61720412  1
  N  N60  1  0.22363684  0.87177521  0.36159735  1
  N  N61  1  0.11107374  0.76136953  0.12151699  1
  N  N62  1  0.89334625  0.88782617  0.88431634  1
  N  N63  1  0.77769311  0.76240030  0.59853295  1
  N  N64  1  0.52932877  0.88413070  0.37673281  1
  N  N65  1  0.44674946  0.75772305  0.11305537  1
  N  N66  1  0.20437262  0.88685725  0.87747976  1
  N  N67  1  0.08857065  0.77835006  0.63892335  1
  N  N68  1  0.90184522  0.88651778  0.37697220  1
  N  N69  1  0.76937079  0.78194300  0.12107639  1
  N  N70  1  0.54852890  0.89370553  0.88407500  1
  N  N71  1  0.46502567  0.74963896  0.63162567  1
