# generated using pymatgen
data_Sc2Al7N9
_symmetry_space_group_name_H-M   'P 1'
_cell_length_a   9.73022911
_cell_length_b   9.75306108
_cell_length_c   10.09949141
_cell_angle_alpha   90.00174385
_cell_angle_beta   89.95494879
_cell_angle_gamma   60.00721755
_symmetry_Int_Tables_number   1
_chemical_formula_structural   Sc2Al7N9
_chemical_formula_sum   'Sc8 Al28 N36'
_cell_volume   830.09068762
_cell_formula_units_Z   4
loop_
 _symmetry_equiv_pos_site_id
 _symmetry_equiv_pos_as_xyz
  1  'x, y, z'
loop_
 _atom_site_type_symbol
 _atom_site_label
 _atom_site_symmetry_multiplicity
 _atom_site_fract_x
 _atom_site_fract_y
 _atom_site_fract_z
 _atom_site_occupancy
  Al  Al0  1  0.10885096  0.09657007  0.29922986  1
  Al  Al1  1  0.22908492  0.19668817  0.05409246  1
  Al  Al2  1  0.77819140  0.09774474  0.80445718  1
  Al  Al3  1  0.88667192  0.20716684  0.55342368  1
  Al  Al4  1  0.44064654  0.09451913  0.30250904  1
  Al  Al5  1  0.55520683  0.20398687  0.04996262  1
  Al  Al6  1  0.10603650  0.09712438  0.80518217  1
  Al  Al7  1  0.21900923  0.20595769  0.54979539  1
  Al  Al8  1  0.78230243  0.09484050  0.30086398  1
  Al  Al9  1  0.88594090  0.20307929  0.05122041  1
  Al  Al10  1  0.44374957  0.09607801  0.80239225  1
  Al  Al11  1  0.56240313  0.19673553  0.55479428  1
  Al  Al12  1  0.11699642  0.42090072  0.29656560  1
  Al  Al13  1  0.22840709  0.54043058  0.04857194  1
  Al  Al14  1  0.77853832  0.41865816  0.79949584  1
  Al  Al15  1  0.89029567  0.52752385  0.54143357  1
  Al  Al16  1  0.55851141  0.52669043  0.05071254  1
  Al  Al17  1  0.77892300  0.41884768  0.30420629  1
  Al  Al18  1  0.45452227  0.42055424  0.80093267  1
  Al  Al19  1  0.56582141  0.53805603  0.55285332  1
  Al  Al20  1  0.11041153  0.76508485  0.29359834  1
  Al  Al21  1  0.21550666  0.87764177  0.05492061  1
  Al  Al22  1  0.88818942  0.88339028  0.54791673  1
  Al  Al23  1  0.44325949  0.76284328  0.29306106  1
  Al  Al24  1  0.55459955  0.88250716  0.05537320  1
  Al  Al25  1  0.10508529  0.77275710  0.81031731  1
  Al  Al26  1  0.88585479  0.88034795  0.05384145  1
  Al  Al27  1  0.54790724  0.87612492  0.54670423  1
  Sc  Sc28  1  0.44805332  0.42416792  0.30973289  1
  Sc  Sc29  1  0.11195192  0.42125131  0.81537776  1
  Sc  Sc30  1  0.21680366  0.54185767  0.56257087  1
  Sc  Sc31  1  0.88150659  0.53970812  0.06976824  1
  Sc  Sc32  1  0.77879066  0.76576954  0.79367191  1
  Sc  Sc33  1  0.22273447  0.87560384  0.55291605  1
  Sc  Sc34  1  0.77549810  0.76881005  0.32387460  1
  Sc  Sc35  1  0.44684611  0.75763038  0.82253539  1
  N  N36  1  0.22193379  0.20510410  0.35785096  1
  N  N37  1  0.10705186  0.09838348  0.11006529  1
  N  N38  1  0.88832932  0.20531994  0.86049938  1
  N  N39  1  0.77781971  0.09553071  0.61372943  1
  N  N40  1  0.56835587  0.18081888  0.36541416  1
  N  N41  1  0.44387601  0.09744213  0.11335304  1
  N  N42  1  0.23286232  0.18272531  0.86641585  1
  N  N43  1  0.10119581  0.11196628  0.61447033  1
  N  N44  1  0.88955980  0.20349216  0.36276156  1
  N  N45  1  0.77547303  0.09729694  0.11016038  1
  N  N46  1  0.55473516  0.20398843  0.85804419  1
  N  N47  1  0.44165111  0.09531020  0.61059007  1
  N  N48  1  0.20238465  0.55021828  0.35200783  1
  N  N49  1  0.13202140  0.41700573  0.10174765  1
  N  N50  1  0.87217985  0.53435950  0.86130003  1
  N  N51  1  0.78034061  0.42471112  0.60760799  1
  N  N52  1  0.56472284  0.55076981  0.36276364  1
  N  N53  1  0.44436322  0.42471343  0.10052667  1
  N  N54  1  0.23353865  0.55006246  0.85433220  1
  N  N55  1  0.10018630  0.41868991  0.60529602  1
  N  N56  1  0.90014492  0.51564200  0.34712706  1
  N  N57  1  0.76640697  0.41209365  0.11808977  1
  N  N58  1  0.56996938  0.51262486  0.86347779  1
  N  N59  1  0.46576378  0.41686464  0.60563551  1
  N  N60  1  0.22361286  0.87135265  0.34042566  1
  N  N61  1  0.10970590  0.76120122  0.10440189  1
  N  N62  1  0.89191922  0.88540071  0.86677975  1
  N  N63  1  0.77805556  0.76169569  0.57283998  1
  N  N64  1  0.52744364  0.88505827  0.35974960  1
  N  N65  1  0.44731469  0.75786503  0.09687047  1
  N  N66  1  0.20296108  0.88617743  0.86476479  1
  N  N67  1  0.08980165  0.77660568  0.62341718  1
  N  N68  1  0.90453557  0.88664829  0.36175159  1
  N  N69  1  0.76849238  0.78364385  0.11095553  1
  N  N70  1  0.55278186  0.89148804  0.86870001  1
  N  N71  1  0.46368043  0.75138700  0.61242778  1
