# generated using pymatgen
data_Sc2Al7N9
_symmetry_space_group_name_H-M   'P 1'
_cell_length_a   9.91830894
_cell_length_b   9.95127654
_cell_length_c   9.56144600
_cell_angle_alpha   90.00727972
_cell_angle_beta   90.00792036
_cell_angle_gamma   60.06154992
_symmetry_Int_Tables_number   1
_chemical_formula_structural   Sc2Al7N9
_chemical_formula_sum   'Sc8 Al28 N36'
_cell_volume   817.78596571
_cell_formula_units_Z   4
loop_
 _symmetry_equiv_pos_site_id
 _symmetry_equiv_pos_as_xyz
  1  'x, y, z'
loop_
 _atom_site_type_symbol
 _atom_site_label
 _atom_site_symmetry_multiplicity
 _atom_site_fract_x
 _atom_site_fract_y
 _atom_site_fract_z
 _atom_site_occupancy
  Al  Al0  1  0.10796788  0.09647222  0.32621055  1
  Al  Al1  1  0.22981358  0.19562790  0.08143067  1
  Al  Al2  1  0.77801285  0.09844553  0.82938328  1
  Al  Al3  1  0.88647043  0.20671868  0.57769885  1
  Al  Al4  1  0.44137322  0.09434756  0.32911405  1
  Al  Al5  1  0.55431936  0.20446249  0.07541546  1
  Al  Al6  1  0.10534402  0.09952884  0.82914314  1
  Al  Al7  1  0.21765121  0.20790729  0.57351934  1
  Al  Al8  1  0.78078854  0.09549619  0.32475273  1
  Al  Al9  1  0.88594891  0.20266692  0.07583454  1
  Al  Al10  1  0.44136260  0.09745423  0.82503617  1
  Al  Al11  1  0.56309396  0.19523470  0.58002070  1
  Al  Al12  1  0.11703262  0.42264725  0.32352000  1
  Al  Al13  1  0.23030012  0.54049735  0.07568875  1
  Al  Al14  1  0.77876268  0.41716869  0.82352658  1
  Al  Al15  1  0.89014262  0.52923797  0.57185427  1
  Al  Al16  1  0.55969291  0.52344542  0.07870405  1
  Al  Al17  1  0.77899125  0.41799969  0.33151556  1
  Al  Al18  1  0.45594087  0.41951832  0.82428172  1
  Al  Al19  1  0.56604822  0.53899416  0.57674741  1
  Al  Al20  1  0.11040105  0.76545077  0.32076558  1
  Al  Al21  1  0.21529102  0.87877968  0.08024238  1
  Al  Al22  1  0.88623552  0.88407013  0.57412026  1
  Al  Al23  1  0.44273811  0.76299552  0.31889425  1
  Al  Al24  1  0.55221820  0.88453970  0.08020135  1
  Al  Al25  1  0.10473045  0.77415417  0.83560193  1
  Al  Al26  1  0.88703907  0.88189936  0.07990817  1
  Al  Al27  1  0.54891666  0.87494647  0.57528489  1
  Sc  Sc28  1  0.44718688  0.42399701  0.34507464  1
  Sc  Sc29  1  0.11261631  0.42043502  0.84893436  1
  Sc  Sc30  1  0.21549685  0.54373466  0.59653431  1
  Sc  Sc31  1  0.88210688  0.53580054  0.09998379  1
  Sc  Sc32  1  0.77902828  0.76565731  0.83452095  1
  Sc  Sc33  1  0.22313756  0.87692144  0.58711150  1
  Sc  Sc34  1  0.77484977  0.76906241  0.34725690  1
  Sc  Sc35  1  0.44896261  0.75466127  0.85263502  1
  N  N36  1  0.22150746  0.20606404  0.37217267  1
  N  N37  1  0.10669157  0.09786300  0.12722999  1
  N  N38  1  0.88860943  0.20489644  0.87633697  1
  N  N39  1  0.77749735  0.09640822  0.63017235  1
  N  N40  1  0.56888548  0.17986027  0.38127145  1
  N  N41  1  0.44429577  0.09754349  0.13070007  1
  N  N42  1  0.23236211  0.18282477  0.88335256  1
  N  N43  1  0.09968245  0.11497960  0.62835485  1
  N  N44  1  0.88897269  0.20251526  0.37889900  1
  N  N45  1  0.77449150  0.09809127  0.12542308  1
  N  N46  1  0.55372382  0.20415501  0.87338281  1
  N  N47  1  0.43989914  0.09619465  0.62490155  1
  N  N48  1  0.20148668  0.55147902  0.37048961  1
  N  N49  1  0.13223680  0.41747521  0.11469324  1
  N  N50  1  0.87352236  0.53018737  0.87804115  1
  N  N51  1  0.78005415  0.42402588  0.62191421  1
  N  N52  1  0.56452849  0.55118645  0.37654997  1
  N  N53  1  0.44469779  0.42336328  0.12157988  1
  N  N54  1  0.23488979  0.55037990  0.86695768  1
  N  N55  1  0.10104269  0.41878695  0.62362897  1
  N  N56  1  0.89895142  0.51790681  0.36241525  1
  N  N57  1  0.76772988  0.40987999  0.13531394  1
  N  N58  1  0.57091698  0.51046917  0.88019123  1
  N  N59  1  0.46630714  0.41634867  0.61607914  1
  N  N60  1  0.22348618  0.87198453  0.36053006  1
  N  N61  1  0.11106384  0.76156879  0.12011486  1
  N  N62  1  0.89349151  0.88817044  0.88318596  1
  N  N63  1  0.77754578  0.76270015  0.59922790  1
  N  N64  1  0.53005577  0.88387294  0.37543065  1
  N  N65  1  0.44671788  0.75773987  0.11254537  1
  N  N66  1  0.20475083  0.88683119  0.87583832  1
  N  N67  1  0.08863802  0.77820975  0.63756101  1
  N  N68  1  0.90134323  0.88639182  0.37542252  1
  N  N69  1  0.76960655  0.78131892  0.11840404  1
  N  N70  1  0.54772913  0.89378222  0.88249000  1
  N  N71  1  0.46475659  0.74951347  0.62981138  1
