# generated using pymatgen
data_Sc2Al7N9
_symmetry_space_group_name_H-M   'P 1'
_cell_length_a   9.95183182
_cell_length_b   9.98659937
_cell_length_c   9.45973863
_cell_angle_alpha   90.01119712
_cell_angle_beta   90.01434806
_cell_angle_gamma   60.07217524
_symmetry_Int_Tables_number   1
_chemical_formula_structural   Sc2Al7N9
_chemical_formula_sum   'Sc8 Al28 N36'
_cell_volume   814.79021842
_cell_formula_units_Z   4
loop_
 _symmetry_equiv_pos_site_id
 _symmetry_equiv_pos_as_xyz
  1  'x, y, z'
loop_
 _atom_site_type_symbol
 _atom_site_label
 _atom_site_symmetry_multiplicity
 _atom_site_fract_x
 _atom_site_fract_y
 _atom_site_fract_z
 _atom_site_occupancy
  Al  Al0  1  0.10769538  0.09665751  0.32729522  1
  Al  Al1  1  0.22973787  0.19583516  0.08314324  1
  Al  Al2  1  0.77809124  0.09846299  0.83046375  1
  Al  Al3  1  0.88651899  0.20649732  0.57859767  1
  Al  Al4  1  0.44166446  0.09430325  0.33038986  1
  Al  Al5  1  0.55439776  0.20415362  0.07619556  1
  Al  Al6  1  0.10539778  0.09966844  0.83036342  1
  Al  Al7  1  0.21781772  0.20768635  0.57406167  1
  Al  Al8  1  0.78052989  0.09562035  0.32562595  1
  Al  Al9  1  0.88597623  0.20273123  0.07687993  1
  Al  Al10  1  0.44108552  0.09752262  0.82576273  1
  Al  Al11  1  0.56303483  0.19547607  0.58148597  1
  Al  Al12  1  0.11653212  0.42289062  0.32587332  1
  Al  Al13  1  0.22993567  0.54041149  0.07804960  1
  Al  Al14  1  0.77867404  0.41699168  0.82417203  1
  Al  Al15  1  0.88987365  0.52965752  0.57454891  1
  Al  Al16  1  0.55987378  0.52373193  0.08030008  1
  Al  Al17  1  0.77918096  0.41803312  0.33312456  1
  Al  Al18  1  0.45566288  0.41972757  0.82641636  1
  Al  Al19  1  0.56577189  0.53872680  0.57752951  1
  Al  Al20  1  0.11019954  0.76566364  0.32163604  1
  Al  Al21  1  0.21560072  0.87880246  0.08216422  1
  Al  Al22  1  0.88602961  0.88408830  0.57542285  1
  Al  Al23  1  0.44289937  0.76285170  0.32062914  1
  Al  Al24  1  0.55178198  0.88454984  0.08138619  1
  Al  Al25  1  0.10489670  0.77396687  0.83725663  1
  Al  Al26  1  0.88705097  0.88210604  0.08108017  1
  Al  Al27  1  0.54912050  0.87493040  0.57672878  1
  Sc  Sc28  1  0.44743876  0.42360571  0.34606521  1
  Sc  Sc29  1  0.11321657  0.42015947  0.84984666  1
  Sc  Sc30  1  0.21586652  0.54403285  0.59770620  1
  Sc  Sc31  1  0.88247303  0.53515742  0.10061967  1
  Sc  Sc32  1  0.77890260  0.76593356  0.83744244  1
  Sc  Sc33  1  0.22272979  0.87721791  0.58892898  1
  Sc  Sc34  1  0.77498511  0.76874681  0.34788619  1
  Sc  Sc35  1  0.44893211  0.75456057  0.85333859  1
  N  N36  1  0.22160150  0.20583184  0.37053754  1
  N  N37  1  0.10655098  0.09794518  0.12612115  1
  N  N38  1  0.88861618  0.20492996  0.87518145  1
  N  N39  1  0.77754923  0.09646874  0.62912569  1
  N  N40  1  0.56884076  0.18008857  0.38026003  1
  N  N41  1  0.44444193  0.09749675  0.12970836  1
  N  N42  1  0.23224602  0.18311787  0.88242739  1
  N  N43  1  0.09962962  0.11516851  0.62690258  1
  N  N44  1  0.88892153  0.20234919  0.37769289  1
  N  N45  1  0.77432676  0.09826235  0.12408828  1
  N  N46  1  0.55374816  0.20396231  0.87196337  1
  N  N47  1  0.43974263  0.09625783  0.62344654  1
  N  N48  1  0.20198057  0.55152104  0.36826678  1
  N  N49  1  0.13184145  0.41750729  0.11406119  1
  N  N50  1  0.87426430  0.52969664  0.87526321  1
  N  N51  1  0.77983049  0.42379256  0.62025820  1
  N  N52  1  0.56436877  0.55073963  0.37480883  1
  N  N53  1  0.44498556  0.42304967  0.11987139  1
  N  N54  1  0.23470041  0.55030861  0.86621140  1
  N  N55  1  0.10181977  0.41877623  0.62126172  1
  N  N56  1  0.89853179  0.51842477  0.36214561  1
  N  N57  1  0.76819041  0.40992865  0.13431266  1
  N  N58  1  0.57090665  0.51093634  0.87913484  1
  N  N59  1  0.46612735  0.41640989  0.61519781  1
  N  N60  1  0.22329904  0.87221767  0.35911101  1
  N  N61  1  0.11096257  0.76181688  0.11860847  1
  N  N62  1  0.89357347  0.88837837  0.88195933  1
  N  N63  1  0.77738682  0.76305018  0.59976280  1
  N  N64  1  0.53078376  0.88365272  0.37408106  1
  N  N65  1  0.44674558  0.75775781  0.11220339  1
  N  N66  1  0.20513370  0.88675793  0.87434726  1
  N  N67  1  0.08879357  0.77800092  0.63613786  1
  N  N68  1  0.90086101  0.88628439  0.37383266  1
  N  N69  1  0.76980864  0.78071740  0.11604481  1
  N  N70  1  0.54709598  0.89372926  0.88083272  1
  N  N71  1  0.46439723  0.74945314  0.62766591  1
