# generated using pymatgen
data_Sc2Al7N9
_symmetry_space_group_name_H-M   'P 1'
_cell_length_a   9.73327102
_cell_length_b   9.75791307
_cell_length_c   10.09831098
_cell_angle_alpha   90.04622421
_cell_angle_beta   90.07843212
_cell_angle_gamma   60.03194141
_symmetry_Int_Tables_number   1
_chemical_formula_structural   Sc2Al7N9
_chemical_formula_sum   'Sc8 Al28 N36'
_cell_volume   830.87255844
_cell_formula_units_Z   4
loop_
 _symmetry_equiv_pos_site_id
 _symmetry_equiv_pos_as_xyz
  1  'x, y, z'
loop_
 _atom_site_type_symbol
 _atom_site_label
 _atom_site_symmetry_multiplicity
 _atom_site_fract_x
 _atom_site_fract_y
 _atom_site_fract_z
 _atom_site_occupancy
  Al  Al0  1  0.10606039  0.10193226  0.39335622  1
  Al  Al1  1  0.22678427  0.20260613  0.15121155  1
  Al  Al2  1  0.77904165  0.09838564  0.89675931  1
  Al  Al3  1  0.88634775  0.20832305  0.64769835  1
  Al  Al4  1  0.44138256  0.09471902  0.39863086  1
  Al  Al5  1  0.55971556  0.19582501  0.14480999  1
  Al  Al6  1  0.10697535  0.09485643  0.90205955  1
  Al  Al7  1  0.22148725  0.20145749  0.64577722  1
  Al  Al8  1  0.78041268  0.09482858  0.39903902  1
  Al  Al9  1  0.88468189  0.20285722  0.14861233  1
  Al  Al10  1  0.44138257  0.09616894  0.89770424  1
  Al  Al11  1  0.55850763  0.20292769  0.65015288  1
  Al  Al12  1  0.10996468  0.42203568  0.40301684  1
  Al  Al13  1  0.21973964  0.54124306  0.15017547  1
  Al  Al14  1  0.77616711  0.41462272  0.89616513  1
  Al  Al15  1  0.88331094  0.53451841  0.64939194  1
  Al  Al16  1  0.55758521  0.53892201  0.14912273  1
  Al  Al17  1  0.78163161  0.42293794  0.40222258  1
  Al  Al18  1  0.44971481  0.42379122  0.90459886  1
  Al  Al19  1  0.56629475  0.52793358  0.64749672  1
  Al  Al20  1  0.10478991  0.76973153  0.39217393  1
  Al  Al21  1  0.22171616  0.87426783  0.15368666  1
  Al  Al22  1  0.88572333  0.88064499  0.65028646  1
  Al  Al23  1  0.44774575  0.76101040  0.39749788  1
  Al  Al24  1  0.54663314  0.88008401  0.15358344  1
  Al  Al25  1  0.11073610  0.76925371  0.90489552  1
  Al  Al26  1  0.88782634  0.88165502  0.14890208  1
  Al  Al27  1  0.55505630  0.87633211  0.64611556  1
  Sc  Sc28  1  0.45140822  0.42224022  0.38022536  1
  Sc  Sc29  1  0.11888701  0.42145052  0.88744768  1
  Sc  Sc30  1  0.22549694  0.54235312  0.63860449  1
  Sc  Sc31  1  0.88891501  0.53199434  0.14413326  1
  Sc  Sc32  1  0.77568440  0.76916500  0.89011318  1
  Sc  Sc33  1  0.21717726  0.88112983  0.63726607  1
  Sc  Sc34  1  0.77860553  0.76475165  0.39414915  1
  Sc  Sc35  1  0.44363387  0.75703476  0.89272604  1
  N  N36  1  0.22332799  0.20632160  0.34163497  1
  N  N37  1  0.10910544  0.09670249  0.09607352  1
  N  N38  1  0.89109003  0.20210339  0.83852305  1
  N  N39  1  0.77587580  0.09653388  0.59115706  1
  N  N40  1  0.56832791  0.17925095  0.33340142  1
  N  N41  1  0.44208566  0.09402069  0.08847360  1
  N  N42  1  0.22965963  0.18342983  0.83468402  1
  N  N43  1  0.09682968  0.11724544  0.58052772  1
  N  N44  1  0.88478936  0.20745120  0.33908380  1
  N  N45  1  0.77755677  0.09514916  0.08618012  1
  N  N46  1  0.55324598  0.20545405  0.84417033  1
  N  N47  1  0.44311165  0.09707455  0.58883991  1
  N  N48  1  0.20141175  0.54920412  0.34448949  1
  N  N49  1  0.13091896  0.41661296  0.09553900  1
  N  N50  1  0.87691258  0.52786955  0.84169216  1
  N  N51  1  0.77909550  0.42387091  0.59109892  1
  N  N52  1  0.57016336  0.54809388  0.33656475  1
  N  N53  1  0.44529502  0.42626275  0.10391617  1
  N  N54  1  0.23402445  0.55343219  0.84962606  1
  N  N55  1  0.10369344  0.41970921  0.59834362  1
  N  N56  1  0.89765053  0.52018636  0.35212948  1
  N  N57  1  0.76754130  0.41390281  0.08420309  1
  N  N58  1  0.56568103  0.51509837  0.83678197  1
  N  N59  1  0.46684184  0.41417190  0.58844209  1
  N  N60  1  0.22314735  0.87426098  0.34781245  1
  N  N61  1  0.11047888  0.76336133  0.09645883  1
  N  N62  1  0.89938501  0.88494086  0.83853582  1
  N  N63  1  0.77927819  0.76215766  0.61057384  1
  N  N64  1  0.53520871  0.88413203  0.34163767  1
  N  N65  1  0.44334409  0.76145277  0.10306993  1
  N  N66  1  0.20439680  0.88423569  0.84705433  1
  N  N67  1  0.08880491  0.77522118  0.57780551  1
  N  N68  1  0.89585876  0.88759778  0.33464689  1
  N  N69  1  0.76753006  0.77975355  0.10745083  1
  N  N70  1  0.54310000  0.89167642  0.83176788  1
  N  N71  1  0.46536646  0.74767947  0.59114121  1
