# generated using pymatgen
data_Sc2Al7N9
_symmetry_space_group_name_H-M   'P 1'
_cell_length_a   10.08672440
_cell_length_b   10.12668533
_cell_length_c   9.04072314
_cell_angle_alpha   90.06887336
_cell_angle_beta   90.07764616
_cell_angle_gamma   60.12317377
_symmetry_Int_Tables_number   1
_chemical_formula_structural   Sc2Al7N9
_chemical_formula_sum   'Sc8 Al28 N36'
_cell_volume   800.73441304
_cell_formula_units_Z   4
loop_
 _symmetry_equiv_pos_site_id
 _symmetry_equiv_pos_as_xyz
  1  'x, y, z'
loop_
 _atom_site_type_symbol
 _atom_site_label
 _atom_site_symmetry_multiplicity
 _atom_site_fract_x
 _atom_site_fract_y
 _atom_site_fract_z
 _atom_site_occupancy
  Al  Al0  1  0.10548738  0.10234704  0.35847777  1
  Al  Al1  1  0.22836699  0.20234360  0.12487929  1
  Al  Al2  1  0.78028533  0.09835966  0.86679251  1
  Al  Al3  1  0.88830475  0.20750676  0.61905541  1
  Al  Al4  1  0.44239981  0.09618933  0.37307601  1
  Al  Al5  1  0.56027788  0.19555772  0.11214149  1
  Al  Al6  1  0.10612492  0.09630295  0.88066104  1
  Al  Al7  1  0.22069351  0.20119404  0.61489419  1
  Al  Al8  1  0.77770096  0.09539786  0.37625798  1
  Al  Al9  1  0.88271894  0.20220272  0.12519208  1
  Al  Al10  1  0.44022986  0.09599603  0.86983829  1
  Al  Al11  1  0.55707403  0.20298007  0.62724038  1
  Al  Al12  1  0.11219965  0.42239273  0.36480283  1
  Al  Al13  1  0.22264240  0.54079993  0.11275523  1
  Al  Al14  1  0.77865215  0.41289941  0.87009664  1
  Al  Al15  1  0.88590995  0.53202717  0.61008384  1
  Al  Al16  1  0.55888749  0.53618177  0.11660777  1
  Al  Al17  1  0.78002855  0.42187629  0.37260746  1
  Al  Al18  1  0.44943867  0.42368956  0.87238277  1
  Al  Al19  1  0.56623667  0.52836274  0.62140131  1
  Al  Al20  1  0.10475339  0.76960923  0.35714545  1
  Al  Al21  1  0.22261223  0.87458275  0.11999583  1
  Al  Al22  1  0.88635960  0.88121597  0.62295868  1
  Al  Al23  1  0.44768587  0.75897431  0.36217380  1
  Al  Al24  1  0.54699483  0.88097359  0.12536972  1
  Al  Al25  1  0.11023470  0.76998268  0.87972839  1
  Al  Al26  1  0.88553754  0.88430036  0.11830650  1
  Al  Al27  1  0.55323686  0.87701479  0.61286016  1
  Sc  Sc28  1  0.45303284  0.41996211  0.35060086  1
  Sc  Sc29  1  0.11858951  0.41983975  0.85389530  1
  Sc  Sc30  1  0.22271951  0.54516517  0.60360456  1
  Sc  Sc31  1  0.88813487  0.53166851  0.10763780  1
  Sc  Sc32  1  0.77610784  0.76748186  0.85530317  1
  Sc  Sc33  1  0.21627169  0.88259566  0.60165465  1
  Sc  Sc34  1  0.77848008  0.76553350  0.35888202  1
  Sc  Sc35  1  0.44475192  0.75791448  0.85783819  1
  N  N36  1  0.22539447  0.20567110  0.33805562  1
  N  N37  1  0.10762465  0.09867166  0.09898600  1
  N  N38  1  0.89318698  0.20147461  0.83290806  1
  N  N39  1  0.77410519  0.09763433  0.59143813  1
  N  N40  1  0.56809257  0.18076429  0.32738756  1
  N  N41  1  0.44196847  0.09379632  0.08376166  1
  N  N42  1  0.22832231  0.18365711  0.83212861  1
  N  N43  1  0.09716816  0.11631798  0.57155778  1
  N  N44  1  0.88231467  0.20610449  0.33678838  1
  N  N45  1  0.77720993  0.09652886  0.07810520  1
  N  N46  1  0.55282723  0.20491747  0.84304318  1
  N  N47  1  0.44246111  0.09909629  0.58571383  1
  N  N48  1  0.20604769  0.54823861  0.34013998  1
  N  N49  1  0.13002721  0.41659404  0.09548099  1
  N  N50  1  0.87858457  0.52721709  0.84325375  1
  N  N51  1  0.77854999  0.42264260  0.58665351  1
  N  N52  1  0.56819457  0.54569202  0.33170126  1
  N  N53  1  0.44651327  0.42470221  0.09386644  1
  N  N54  1  0.23145600  0.55363120  0.85035500  1
  N  N55  1  0.10624597  0.41917857  0.59427908  1
  N  N56  1  0.89671964  0.52074949  0.35029533  1
  N  N57  1  0.77083338  0.41127718  0.08431162  1
  N  N58  1  0.56697269  0.51660709  0.83896453  1
  N  N59  1  0.46480908  0.41478012  0.59018895  1
  N  N60  1  0.22399679  0.87400627  0.33942288  1
  N  N61  1  0.10984791  0.76426365  0.09641323  1
  N  N62  1  0.89884680  0.88396691  0.83815354  1
  N  N63  1  0.77959966  0.76263544  0.60014727  1
  N  N64  1  0.53561801  0.88437419  0.34279168  1
  N  N65  1  0.44574819  0.76064027  0.09920988  1
  N  N66  1  0.20488570  0.88566230  0.84906695  1
  N  N67  1  0.09019768  0.77641919  0.57458891  1
  N  N68  1  0.89349985  0.88912761  0.33076364  1
  N  N69  1  0.76747709  0.77933768  0.10154609  1
  N  N70  1  0.54451954  0.89134579  0.82812521  1
  N  N71  1  0.46312698  0.74681792  0.59045570  1
