# generated using pymatgen
data_Mg2PN3
_symmetry_space_group_name_H-M   'P 1'
_cell_length_a   9.81100210
_cell_length_b   5.70223340
_cell_length_c   4.76902580
_cell_angle_alpha   88.74727807
_cell_angle_beta   89.99999042
_cell_angle_gamma   89.99996735
_symmetry_Int_Tables_number   1
_chemical_formula_structural   Mg2PN3
_chemical_formula_sum   'Mg8 P4 N12'
_cell_volume   266.73758626
_cell_formula_units_Z   4
loop_
 _symmetry_equiv_pos_site_id
 _symmetry_equiv_pos_as_xyz
  1  'x, y, z'
loop_
 _atom_site_type_symbol
 _atom_site_label
 _atom_site_symmetry_multiplicity
 _atom_site_fract_x
 _atom_site_fract_y
 _atom_site_fract_z
 _atom_site_occupancy
  Mg  Mg0  1  -0.16420830  0.34864873  -0.04713564  1
  Mg  Mg1  1  -0.83579082  0.34864884  -0.04713568  1
  Mg  Mg2  1  -0.16516725  0.68216670  -0.59470701  1
  Mg  Mg3  1  -0.83483186  0.68216664  -0.59470691  1
  Mg  Mg4  1  -0.66227308  0.85012238  -0.10245593  1
  Mg  Mg5  1  -0.33772677  0.85012230  -0.10245594  1
  Mg  Mg6  1  -0.66284776  0.18104642  -0.59374250  1
  Mg  Mg7  1  -0.33715205  0.18104649  -0.59374254  1
  P  P8  1  -0.99999428  0.84472133  -0.15565788  1
  P  P9  1  -0.99999640  0.18485913  -0.50034411  1
  P  P10  1  -0.50000267  0.35321807  -0.11928530  1
  P  P11  1  -0.50000310  0.67725411  -0.62283902  1
  N  N12  1  -0.00000050  0.14141952  -0.13703571  1
  N  N13  1  -0.00000051  0.89091413  -0.53728785  1
  N  N14  1  -0.85804155  0.71287041  -0.07468957  1
  N  N15  1  -0.14196315  0.71286645  -0.07468719  1
  N  N16  1  -0.85884102  0.31909465  -0.58561396  1
  N  N17  1  -0.14116162  0.31909714  -0.58561556  1
  N  N18  1  -0.35980344  0.21095929  -0.04717268  1
  N  N19  1  -0.64019301  0.21096155  -0.04717387  1
  N  N20  1  -0.36013904  0.81878762  -0.55274845  1
  N  N21  1  -0.63985697  0.81878508  -0.55274968  1
  N  N22  1  -0.49999912  0.62420976  -0.97536219  1
  N  N23  1  -0.49999917  0.40524681  -0.47341330  1
