# generated using pymatgen
data_Mg2PN3
_symmetry_space_group_name_H-M   'P 1'
_cell_length_a   4.76882226
_cell_length_b   5.69683015
_cell_length_c   9.79149579
_cell_angle_alpha   89.99999422
_cell_angle_beta   89.99999620
_cell_angle_gamma   91.13539980
_symmetry_Int_Tables_number   1
_chemical_formula_structural   Mg2PN3
_chemical_formula_sum   'Mg8 P4 N12'
_cell_volume   265.95500704
_cell_formula_units_Z   4
loop_
 _symmetry_equiv_pos_site_id
 _symmetry_equiv_pos_as_xyz
  1  'x, y, z'
loop_
 _atom_site_type_symbol
 _atom_site_label
 _atom_site_symmetry_multiplicity
 _atom_site_fract_x
 _atom_site_fract_y
 _atom_site_fract_z
 _atom_site_occupancy
  Mg  Mg0  1  0.03984861  0.35034131  0.16176924  1
  Mg  Mg1  1  0.03984865  0.35034133  0.83823019  1
  Mg  Mg2  1  0.53427236  0.68127270  0.16387489  1
  Mg  Mg3  1  0.53427240  0.68127274  0.83612460  1
  Mg  Mg4  1  0.02868784  0.84715903  0.66442728  1
  Mg  Mg5  1  0.02868779  0.84715910  0.33557215  1
  Mg  Mg6  1  0.56261018  0.18106941  0.66525139  1
  Mg  Mg7  1  0.56261003  0.18106943  0.33474806  1
  P  P8  1  0.01686937  0.85319928  0.99999962  1
  P  P9  1  0.52055994  0.17714251  0.99999957  1
  P  P10  1  0.14036492  0.34497974  0.49999992  1
  P  P11  1  0.49978314  0.68267740  0.49999988  1
  N  N12  1  0.16628168  0.12563596  0.99999969  1
  N  N13  1  0.66417718  0.90554456  0.99999969  1
  N  N14  1  0.08823463  0.71214587  0.85968234  1
  N  N15  1  0.08823468  0.71214577  0.14031721  1
  N  N16  1  0.59386181  0.31968358  0.85984435  1
  N  N17  1  0.59386192  0.31968370  0.14015514  1
  N  N18  1  0.08100759  0.21105964  0.35696789  1
  N  N19  1  0.08100724  0.21105982  0.64303140  1
  N  N20  1  0.58311098  0.81979993  0.35887190  1
  N  N21  1  0.58311091  0.81979981  0.64112745  1
  N  N22  1  0.13522217  0.64064737  0.49999980  1
  N  N23  1  0.55123244  0.39434357  0.49999981  1
