# generated using pymatgen
data_Mg2PN3
_symmetry_space_group_name_H-M   'P 1'
_cell_length_a   9.75692802
_cell_length_b   5.67594781
_cell_length_c   4.76788595
_cell_angle_alpha   89.99999998
_cell_angle_beta   89.99999997
_cell_angle_gamma   90.00000002
_symmetry_Int_Tables_number   1
_chemical_formula_structural   Mg2PN3
_chemical_formula_sum   'Mg8 P4 N12'
_cell_volume   264.04463809
_cell_formula_units_Z   4
loop_
 _symmetry_equiv_pos_site_id
 _symmetry_equiv_pos_as_xyz
  1  'x, y, z'
loop_
 _atom_site_type_symbol
 _atom_site_label
 _atom_site_symmetry_multiplicity
 _atom_site_fract_x
 _atom_site_fract_y
 _atom_site_fract_z
 _atom_site_occupancy
  Mg  Mg0  1  -0.16333587  0.34938040  0.08668936  1
  Mg  Mg1  1  -0.83666325  0.34938040  0.08668937  1
  Mg  Mg2  1  -0.16333587  0.68138843  0.58668936  1
  Mg  Mg3  1  -0.83666325  0.68138843  0.58668937  1
  Mg  Mg4  1  -0.66333588  0.84938040  0.08668937  1
  Mg  Mg5  1  -0.33666327  0.84938040  0.08668936  1
  Mg  Mg6  1  -0.66333589  0.18138843  0.58668937  1
  Mg  Mg7  1  -0.33666326  0.18138843  0.58668936  1
  P  P8  1  -0.99999944  0.85328714  0.10386988  1
  P  P9  1  -0.99999944  0.17748169  0.60386989  1
  P  P10  1  -0.49999969  0.35328714  0.10386988  1
  P  P11  1  -0.49999969  0.67748169  0.60386989  1
  N  N12  1  -0.99999962  0.12591507  0.95733107  1
  N  N13  1  -0.99999962  0.90485376  0.45733107  1
  N  N14  1  -0.85902986  0.71180964  0.03128492  1
  N  N15  1  -0.14096947  0.71180951  0.03128488  1
  N  N16  1  -0.85902986  0.31895920  0.53128492  1
  N  N17  1  -0.14096946  0.31895932  0.53128488  1
  N  N18  1  -0.35902966  0.21180951  0.03128487  1
  N  N19  1  -0.64096928  0.21180964  0.03128492  1
  N  N20  1  -0.35902967  0.81895933  0.53128488  1
  N  N21  1  -0.64096927  0.81895920  0.53128492  1
  N  N22  1  -0.49999951  0.62591507  0.95733107  1
  N  N23  1  -0.49999951  0.40485376  0.45733107  1
