# generated using pymatgen
data_Mg2PN3
_symmetry_space_group_name_H-M   'P 1'
_cell_length_a   4.76873221
_cell_length_b   5.69537236
_cell_length_c   9.78966389
_cell_angle_alpha   89.99998093
_cell_angle_beta   89.99999859
_cell_angle_gamma   91.07943231
_symmetry_Int_Tables_number   1
_chemical_formula_structural   Mg2PN3
_chemical_formula_sum   'Mg8 P4 N12'
_cell_volume   265.83720542
_cell_formula_units_Z   4
loop_
 _symmetry_equiv_pos_site_id
 _symmetry_equiv_pos_as_xyz
  1  'x, y, z'
loop_
 _atom_site_type_symbol
 _atom_site_label
 _atom_site_symmetry_multiplicity
 _atom_site_fract_x
 _atom_site_fract_y
 _atom_site_fract_z
 _atom_site_occupancy
  Mg  Mg0  1  0.08425555  0.34868613  0.16431871  1
  Mg  Mg1  1  0.08425572  0.34868622  0.83568045  1
  Mg  Mg2  1  0.61427806  0.68417159  0.16449810  1
  Mg  Mg3  1  0.61427807  0.68417157  0.83550106  1
  Mg  Mg4  1  0.10876130  0.84930374  0.66407470  1
  Mg  Mg5  1  0.10876128  0.84930364  0.33592509  1
  Mg  Mg6  1  0.60373697  0.18033007  0.66149043  1
  Mg  Mg7  1  0.60373698  0.18033022  0.33850945  1
  P  P8  1  0.13905906  0.85117948  0.99999713  1
  P  P9  1  0.52916020  0.18562392  0.99999238  1
  P  P10  1  0.12259601  0.35366820  0.50000256  1
  P  P11  1  0.62634956  0.67763905  0.50000191  1
  N  N12  1  0.06815684  0.13286589  0.00000037  1
  N  N13  1  0.50473853  0.89220652  0.00000042  1
  N  N14  1  0.06026894  0.70996123  0.85891930  1
  N  N15  1  0.06026794  0.70995908  0.14108258  1
  N  N16  1  0.56027928  0.32042810  0.85647966  1
  N  N17  1  0.56028084  0.32043375  0.14352692  1
  N  N18  1  0.04950975  0.21117181  0.35973341  1
  N  N19  1  0.04951088  0.21117376  0.64026315  1
  N  N20  1  0.55482131  0.81873965  0.35968402  1
  N  N21  1  0.55482204  0.81873807  0.64031317  1
  N  N22  1  0.97893941  0.62528593  0.49999927  1
  N  N23  1  0.47693396  0.40517594  0.49999922  1
