# generated using pymatgen
data_Mg2PN3
_symmetry_space_group_name_H-M   'P 1'
_cell_length_a   4.76909950
_cell_length_b   5.69715106
_cell_length_c   9.79750535
_cell_angle_alpha   90.00004709
_cell_angle_beta   90.00004248
_cell_angle_gamma   91.29257847
_symmetry_Int_Tables_number   1
_chemical_formula_structural   Mg2PN3
_chemical_formula_sum   'Mg8 P4 N12'
_cell_volume   266.13322849
_cell_formula_units_Z   4
loop_
 _symmetry_equiv_pos_site_id
 _symmetry_equiv_pos_as_xyz
  1  'x, y, z'
loop_
 _atom_site_type_symbol
 _atom_site_label
 _atom_site_symmetry_multiplicity
 _atom_site_fract_x
 _atom_site_fract_y
 _atom_site_fract_z
 _atom_site_occupancy
  Mg  Mg0  1  0.04236971  0.35036124  0.16233967  1
  Mg  Mg1  1  0.04236965  0.35036116  0.83766016  1
  Mg  Mg2  1  0.53433942  0.68075972  0.16335849  1
  Mg  Mg3  1  0.53433944  0.68075981  0.83664140  1
  Mg  Mg4  1  0.02921619  0.84832426  0.66446742  1
  Mg  Mg5  1  0.02921622  0.84832440  0.33553161  1
  Mg  Mg6  1  0.57530282  0.17968489  0.66611397  1
  Mg  Mg7  1  0.57530264  0.17968482  0.33388514  1
  P  P8  1  0.01719009  0.85348067  0.00000329  1
  P  P9  1  0.52109838  0.17716892  0.00000378  1
  P  P10  1  0.15639811  0.34502757  0.49999461  1
  P  P11  1  0.49221911  0.68612227  0.49999555  1
  N  N12  1  0.16680472  0.12598136  0.99999904  1
  N  N13  1  0.66439764  0.90567724  0.99999904  1
  N  N14  1  0.08823765  0.71260902  0.85971659  1
  N  N15  1  0.08823636  0.71261178  0.14027928  1
  N  N16  1  0.59480549  0.31979888  0.86000774  1
  N  N17  1  0.59480374  0.31979574  0.13998753  1
  N  N18  1  0.07484726  0.21245449  0.35785381  1
  N  N19  1  0.07484474  0.21245079  0.64215063  1
  N  N20  1  0.58289477  0.81728287  0.35869308  1
  N  N21  1  0.58289689  0.81728585  0.64131040  1
  N  N22  1  0.13048951  0.64332198  0.50000062  1
  N  N23  1  0.52513794  0.38990381  0.50000060  1
