# generated using pymatgen
data_Mg2PN3
_symmetry_space_group_name_H-M   'P 1'
_cell_length_a   9.81063807
_cell_length_b   5.70153962
_cell_length_c   4.76879762
_cell_angle_alpha   91.12036119
_cell_angle_beta   90.00000282
_cell_angle_gamma   89.99998531
_symmetry_Int_Tables_number   1
_chemical_formula_structural   Mg2PN3
_chemical_formula_sum   'Mg8 P4 N12'
_cell_volume   266.69523670
_cell_formula_units_Z   4
loop_
 _symmetry_equiv_pos_site_id
 _symmetry_equiv_pos_as_xyz
  1  'x, y, z'
loop_
 _atom_site_type_symbol
 _atom_site_label
 _atom_site_symmetry_multiplicity
 _atom_site_fract_x
 _atom_site_fract_y
 _atom_site_fract_z
 _atom_site_occupancy
  Mg  Mg0  1  -0.16429273  0.34727302  0.04781531  1
  Mg  Mg1  1  -0.83570654  0.34727304  0.04781531  1
  Mg  Mg2  1  -0.16370528  0.68363187  0.58393435  1
  Mg  Mg3  1  -0.83629399  0.68363185  0.58393434  1
  Mg  Mg4  1  -0.66148974  0.85042217  0.10166255  1
  Mg  Mg5  1  -0.33850994  0.85042210  0.10166255  1
  Mg  Mg6  1  -0.66337211  0.18146533  0.59364667  1
  Mg  Mg7  1  -0.33662755  0.18146538  0.59364669  1
  P  P8  1  -0.99999567  0.84579898  0.09982763  1
  P  P9  1  -0.99999819  0.17864559  0.51020435  1
  P  P10  1  -0.50000133  0.35301797  0.11950356  1
  P  P11  1  -0.50000147  0.67710041  0.62233386  1
  N  N12  1  -0.00000014  0.13663582  0.14445582  1
  N  N13  1  -0.00000010  0.89962080  0.58880991  1
  N  N14  1  -0.85678223  0.71077760  0.08022910  1
  N  N15  1  -0.14322121  0.71077443  0.08022862  1
  N  N16  1  -0.85897318  0.32145393  0.58508534  1
  N  N17  1  -0.14102775  0.32145515  0.58508595  1
  N  N18  1  -0.35986243  0.21073759  0.04732746  1
  N  N19  1  -0.64013540  0.21073880  0.04732810  1
  N  N20  1  -0.36007041  0.81881097  0.55237934  1
  N  N21  1  -0.63992724  0.81880970  0.55237999  1
  N  N22  1  -0.49999940  0.62406945  0.97511791  1
  N  N23  1  -0.49999943  0.40520160  0.47334376  1
