# generated using pymatgen
data_Mg2PN3
_symmetry_space_group_name_H-M   'P 1'
_cell_length_a   4.76882265
_cell_length_b   5.69685674
_cell_length_c   9.79167334
_cell_angle_alpha   89.99992768
_cell_angle_beta   90.00000236
_cell_angle_gamma   91.13563496
_symmetry_Int_Tables_number   1
_chemical_formula_structural   Mg2PN3
_chemical_formula_sum   'Mg8 P4 N12'
_cell_volume   265.96107128
_cell_formula_units_Z   4
loop_
 _symmetry_equiv_pos_site_id
 _symmetry_equiv_pos_as_xyz
  1  'x, y, z'
loop_
 _atom_site_type_symbol
 _atom_site_label
 _atom_site_symmetry_multiplicity
 _atom_site_fract_x
 _atom_site_fract_y
 _atom_site_fract_z
 _atom_site_occupancy
  Mg  Mg0  1  0.08029207  0.34979428  0.16532338  1
  Mg  Mg1  1  0.08029201  0.34979435  0.83467607  1
  Mg  Mg2  1  0.61445644  0.68354574  0.16442238  1
  Mg  Mg3  1  0.61445643  0.68354582  0.83557721  1
  Mg  Mg4  1  0.10887886  0.84952004  0.66385694  1
  Mg  Mg5  1  0.10887888  0.84952009  0.33614235  1
  Mg  Mg6  1  0.60326791  0.18042725  0.66179628  1
  Mg  Mg7  1  0.60326788  0.18042730  0.33820321  1
  P  P8  1  0.14363656  0.84790524  0.00000057  1
  P  P9  1  0.50144288  0.18576172  -0.00000010  1
  P  P10  1  0.12259197  0.35362773  0.49999889  1
  P  P11  1  0.62626712  0.67755915  0.49999881  1
  N  N12  1  0.09332558  0.13667597  0.99999959  1
  N  N13  1  0.50807641  0.88997473  0.99999955  1
  N  N14  1  0.05998792  0.71107244  0.85886601  1
  N  N15  1  0.05998833  0.71107294  0.14113251  1
  N  N16  1  0.56223066  0.31963938  0.85700753  1
  N  N17  1  0.56223069  0.31963907  0.14299158  1
  N  N18  1  0.04926805  0.21108574  0.35985430  1
  N  N19  1  0.04926766  0.21108485  0.64014617  1
  N  N20  1  0.55490853  0.81860570  0.35968145  1
  N  N21  1  0.55490818  0.81860641  0.64031891  1
  N  N22  1  0.97897201  0.62522599  0.49999996  1
  N  N23  1  0.47686543  0.40512160  0.49999992  1
