# generated using pymatgen
data_Mg2PN3
_symmetry_space_group_name_H-M   'P 1'
_cell_length_a   9.76295479
_cell_length_b   5.67777903
_cell_length_c   4.76796543
_cell_angle_alpha   90.33083098
_cell_angle_beta   90.00000059
_cell_angle_gamma   90.00006361
_symmetry_Int_Tables_number   1
_chemical_formula_structural   Mg2PN3
_chemical_formula_sum   'Mg8 P4 N12'
_cell_volume   264.29297705
_cell_formula_units_Z   4
loop_
 _symmetry_equiv_pos_site_id
 _symmetry_equiv_pos_as_xyz
  1  'x, y, z'
loop_
 _atom_site_type_symbol
 _atom_site_label
 _atom_site_symmetry_multiplicity
 _atom_site_fract_x
 _atom_site_fract_y
 _atom_site_fract_z
 _atom_site_occupancy
  Mg  Mg0  1  -0.16316089  0.34935411  0.03562429  1
  Mg  Mg1  1  -0.83683834  0.34935426  0.03562429  1
  Mg  Mg2  1  -0.16336934  0.68133664  0.53471496  1
  Mg  Mg3  1  -0.83663020  0.68133677  0.53471502  1
  Mg  Mg4  1  -0.66344429  0.84914990  0.03389817  1
  Mg  Mg5  1  -0.33655509  0.84915005  0.03389812  1
  Mg  Mg6  1  -0.66347175  0.18127910  0.53625060  1
  Mg  Mg7  1  -0.33652791  0.18127926  0.53625061  1
  P  P8  1  -0.99999907  0.85328408  0.01737229  1
  P  P9  1  -0.99999897  0.17747509  0.51826035  1
  P  P10  1  -0.50000053  0.35319771  0.01642052  1
  P  P11  1  -0.50000040  0.67729031  0.51612843  1
  N  N12  1  -0.99999986  0.12594573  0.16463125  1
  N  N13  1  -0.99999983  0.90506142  0.66413513  1
  N  N14  1  -0.85913694  0.71193332  0.08968156  1
  N  N15  1  -0.14086336  0.71193263  0.08968180  1
  N  N16  1  -0.85909806  0.31912033  0.59086432  1
  N  N17  1  -0.14090193  0.31912074  0.59086461  1
  N  N18  1  -0.35901584  0.21197829  0.08884778  1
  N  N19  1  -0.64098304  0.21197870  0.08884747  1
  N  N20  1  -0.35903370  0.81885445  0.58888979  1
  N  N21  1  -0.64096492  0.81885374  0.58888954  1
  N  N22  1  -0.49999962  0.62634837  0.16221257  1
  N  N23  1  -0.49999960  0.40464099  0.66199520  1
