# generated using pymatgen
data_Mg2PN3
_symmetry_space_group_name_H-M   'P 1'
_cell_length_a   9.78624976
_cell_length_b   5.69175879
_cell_length_c   4.76857078
_cell_angle_alpha   90.97104307
_cell_angle_beta   90.00000547
_cell_angle_gamma   89.99998279
_symmetry_Int_Tables_number   1
_chemical_formula_structural   Mg2PN3
_chemical_formula_sum   'Mg8 P4 N12'
_cell_volume   265.57588703
_cell_formula_units_Z   4
loop_
 _symmetry_equiv_pos_site_id
 _symmetry_equiv_pos_as_xyz
  1  'x, y, z'
loop_
 _atom_site_type_symbol
 _atom_site_label
 _atom_site_symmetry_multiplicity
 _atom_site_fract_x
 _atom_site_fract_y
 _atom_site_fract_z
 _atom_site_occupancy
  Mg  Mg0  1  -0.16389349  0.34858401  0.08949753  1
  Mg  Mg1  1  -0.83610602  0.34858409  0.08949750  1
  Mg  Mg2  1  -0.16447247  0.68387290  0.61313641  1
  Mg  Mg3  1  -0.83552701  0.68387296  0.61313640  1
  Mg  Mg4  1  -0.66403397  0.84928288  0.10862787  1
  Mg  Mg5  1  -0.33596545  0.84928291  0.10862786  1
  Mg  Mg6  1  -0.66160277  0.18051394  0.60390451  1
  Mg  Mg7  1  -0.33839668  0.18051398  0.60390451  1
  P  P8  1  -0.99999994  0.85336606  0.13384689  1
  P  P9  1  -1.00000026  0.18195993  0.59014738  1
  P  P10  1  -0.49999931  0.35359607  0.12262945  1
  P  P11  1  -0.49999918  0.67760571  0.62625890  1
  N  N12  1  0.00000032  0.12989529  0.02414348  1
  N  N13  1  0.00000031  0.89712398  0.49516120  1
  N  N14  1  -0.85899459  0.71011386  0.05934468  1
  N  N15  1  -0.14100470  0.71011402  0.05934478  1
  N  N16  1  -0.85703561  0.32019880  0.55614737  1
  N  N17  1  -0.14296333  0.32019838  0.55614758  1
  N  N18  1  -0.35964663  0.21122026  0.04961264  1
  N  N19  1  -0.64035325  0.21121996  0.04961251  1
  N  N20  1  -0.35963433  0.81878738  0.55461814  1
  N  N21  1  -0.64036558  0.81878783  0.55461790  1
  N  N22  1  -0.49999975  0.62537017  0.97886240  1
  N  N23  1  -0.49999978  0.40516818  0.47693059  1
