# generated using pymatgen
data_Mg2PN3
_symmetry_space_group_name_H-M   'P 1'
_cell_length_a   9.79798703
_cell_length_b   5.69699617
_cell_length_c   4.76912180
_cell_angle_alpha   88.69559815
_cell_angle_beta   90.00002803
_cell_angle_gamma   90.00009159
_symmetry_Int_Tables_number   1
_chemical_formula_structural   Mg2PN3
_chemical_formula_sum   'Mg8 P4 N12'
_cell_volume   266.13907686
_cell_formula_units_Z   4
loop_
 _symmetry_equiv_pos_site_id
 _symmetry_equiv_pos_as_xyz
  1  'x, y, z'
loop_
 _atom_site_type_symbol
 _atom_site_label
 _atom_site_symmetry_multiplicity
 _atom_site_fract_x
 _atom_site_fract_y
 _atom_site_fract_z
 _atom_site_occupancy
  Mg  Mg0  1  -0.16607861  0.35108331  -0.06680863  1
  Mg  Mg1  1  -0.83392099  0.35108335  -0.06680857  1
  Mg  Mg2  1  -0.16448378  0.68241682  -0.61383654  1
  Mg  Mg3  1  -0.83551592  0.68241694  -0.61383656  1
  Mg  Mg4  1  -0.66333417  0.85002667  -0.10876547  1
  Mg  Mg5  1  -0.33666501  0.85002676  -0.10876547  1
  Mg  Mg6  1  -0.66235140  0.18039352  -0.60054937  1
  Mg  Mg7  1  -0.33764797  0.18039355  -0.60054932  1
  P  P8  1  -1.00000188  0.84460177  -0.15128464  1
  P  P9  1  -0.00000124  0.18576843  -0.48679695  1
  P  P10  1  -0.49999770  0.35359693  -0.12198791  1
  P  P11  1  -0.49999770  0.67726614  -0.62592563  1
  N  N12  1  -0.99999939  0.14104341  -0.11887258  1
  N  N13  1  -0.99999937  0.88736654  -0.51293955  1
  N  N14  1  -0.85868499  0.71361114  -0.06034685  1
  N  N15  1  -0.14131244  0.71361252  -0.06034792  1
  N  N16  1  -0.85788858  0.31823941  -0.56898959  1
  N  N17  1  -0.14210936  0.31823828  -0.56898889  1
  N  N18  1  -0.36000834  0.21097605  -0.04828939  1
  N  N19  1  -0.63999320  0.21097437  -0.04828855  1
  N  N20  1  -0.35972611  0.81812539  -0.55488884  1
  N  N21  1  -0.64027523  0.81812691  -0.55488810  1
  N  N22  1  -0.50000006  0.62508512  -0.97871274  1
  N  N23  1  -0.50000003  0.40476021  -0.47629044  1
