# generated using pymatgen
data_Mg2PN3
_symmetry_space_group_name_H-M   'P 1'
_cell_length_a   4.76912180
_cell_length_b   5.69699617
_cell_length_c   9.79798703
_cell_angle_alpha   89.99990841
_cell_angle_beta   90.00002803
_cell_angle_gamma   91.30440185
_symmetry_Int_Tables_number   1
_chemical_formula_structural   Mg2PN3
_chemical_formula_sum   'Mg8 P4 N12'
_cell_volume   266.13907686
_cell_formula_units_Z   4
loop_
 _symmetry_equiv_pos_site_id
 _symmetry_equiv_pos_as_xyz
  1  'x, y, z'
loop_
 _atom_site_type_symbol
 _atom_site_label
 _atom_site_symmetry_multiplicity
 _atom_site_fract_x
 _atom_site_fract_y
 _atom_site_fract_z
 _atom_site_occupancy
  Mg  Mg0  1  0.06680863  0.35108331  0.16607861  1
  Mg  Mg1  1  0.06680857  0.35108335  0.83392099  1
  Mg  Mg2  1  0.61383654  0.68241682  0.16448378  1
  Mg  Mg3  1  0.61383656  0.68241694  0.83551592  1
  Mg  Mg4  1  0.10876547  0.85002667  0.66333417  1
  Mg  Mg5  1  0.10876547  0.85002676  0.33666501  1
  Mg  Mg6  1  0.60054937  0.18039352  0.66235140  1
  Mg  Mg7  1  0.60054932  0.18039355  0.33764797  1
  P  P8  1  0.15128464  0.84460177  1.00000188  1
  P  P9  1  0.48679695  0.18576843  0.00000124  1
  P  P10  1  0.12198791  0.35359693  0.49999770  1
  P  P11  1  0.62592563  0.67726614  0.49999770  1
  N  N12  1  0.11887258  0.14104341  0.99999939  1
  N  N13  1  0.51293955  0.88736654  0.99999937  1
  N  N14  1  0.06034685  0.71361114  0.85868499  1
  N  N15  1  0.06034792  0.71361252  0.14131244  1
  N  N16  1  0.56898959  0.31823941  0.85788858  1
  N  N17  1  0.56898889  0.31823828  0.14210936  1
  N  N18  1  0.04828939  0.21097605  0.36000834  1
  N  N19  1  0.04828855  0.21097437  0.63999320  1
  N  N20  1  0.55488884  0.81812539  0.35972611  1
  N  N21  1  0.55488810  0.81812691  0.64027523  1
  N  N22  1  0.97871274  0.62508512  0.50000006  1
  N  N23  1  0.47629044  0.40476021  0.50000003  1
