# generated using pymatgen
data_Mg2PN3
_symmetry_space_group_name_H-M   'P 1'
_cell_length_a   9.75692681
_cell_length_b   5.67594797
_cell_length_c   4.76788595
_cell_angle_alpha   89.99999981
_cell_angle_beta   89.99999999
_cell_angle_gamma   90.00000002
_symmetry_Int_Tables_number   1
_chemical_formula_structural   Mg2PN3
_chemical_formula_sum   'Mg8 P4 N12'
_cell_volume   264.04461274
_cell_formula_units_Z   4
loop_
 _symmetry_equiv_pos_site_id
 _symmetry_equiv_pos_as_xyz
  1  'x, y, z'
loop_
 _atom_site_type_symbol
 _atom_site_label
 _atom_site_symmetry_multiplicity
 _atom_site_fract_x
 _atom_site_fract_y
 _atom_site_fract_z
 _atom_site_occupancy
  Mg  Mg0  1  -0.16333585  0.34938085  -0.07913800  1
  Mg  Mg1  1  -0.83666322  0.34938085  -0.07913800  1
  Mg  Mg2  1  -0.16333586  0.68138878  -0.57913800  1
  Mg  Mg3  1  -0.83666321  0.68138879  -0.57913800  1
  Mg  Mg4  1  -0.66333580  0.84938085  -0.07913800  1
  Mg  Mg5  1  -0.33666317  0.84938086  -0.07913800  1
  Mg  Mg6  1  -0.66333581  0.18138879  -0.57913800  1
  Mg  Mg7  1  -0.33666316  0.18138878  -0.57913800  1
  P  P8  1  -1.00000000  0.85328759  -0.09631881  1
  P  P9  1  -1.00000000  0.17748204  -0.59631881  1
  P  P10  1  -0.49999902  0.35328759  -0.09631881  1
  P  P11  1  -0.49999902  0.67748204  -0.59631881  1
  N  N12  1  -0.99999943  0.12591552  -0.94978001  1
  N  N13  1  -0.99999943  0.90485411  -0.44978001  1
  N  N14  1  -0.85902944  0.71180976  -0.02373361  1
  N  N15  1  -0.14096911  0.71181013  -0.02373380  1
  N  N16  1  -0.85902945  0.31895987  -0.52373361  1
  N  N17  1  -0.14096910  0.31895950  -0.52373380  1
  N  N18  1  -0.35902992  0.21181013  -0.02373380  1
  N  N19  1  -0.64096958  0.21180976  -0.02373361  1
  N  N20  1  -0.35902992  0.81895950  -0.52373380  1
  N  N21  1  -0.64096957  0.81895987  -0.52373361  1
  N  N22  1  -0.49999959  0.62591552  -0.94978001  1
  N  N23  1  -0.49999959  0.40485411  -0.44978001  1
