# generated using pymatgen
data_Mg2PN3
_symmetry_space_group_name_H-M   'P 1'
_cell_length_a   9.79149579
_cell_length_b   5.69683015
_cell_length_c   4.76882226
_cell_angle_alpha   91.13539980
_cell_angle_beta   90.00000380
_cell_angle_gamma   90.00000578
_symmetry_Int_Tables_number   1
_chemical_formula_structural   Mg2PN3
_chemical_formula_sum   'Mg8 P4 N12'
_cell_volume   265.95500704
_cell_formula_units_Z   4
loop_
 _symmetry_equiv_pos_site_id
 _symmetry_equiv_pos_as_xyz
  1  'x, y, z'
loop_
 _atom_site_type_symbol
 _atom_site_label
 _atom_site_symmetry_multiplicity
 _atom_site_fract_x
 _atom_site_fract_y
 _atom_site_fract_z
 _atom_site_occupancy
  Mg  Mg0  1  -0.16176924  0.35034131  0.03984861  1
  Mg  Mg1  1  -0.83823019  0.35034133  0.03984865  1
  Mg  Mg2  1  -0.16387489  0.68127270  0.53427236  1
  Mg  Mg3  1  -0.83612460  0.68127274  0.53427240  1
  Mg  Mg4  1  -0.66442728  0.84715903  0.02868784  1
  Mg  Mg5  1  -0.33557215  0.84715910  0.02868779  1
  Mg  Mg6  1  -0.66525139  0.18106941  0.56261018  1
  Mg  Mg7  1  -0.33474806  0.18106943  0.56261003  1
  P  P8  1  -0.99999962  0.85319928  0.01686937  1
  P  P9  1  -0.99999957  0.17714251  0.52055994  1
  P  P10  1  -0.49999992  0.34497974  0.14036492  1
  P  P11  1  -0.49999988  0.68267740  0.49978314  1
  N  N12  1  -0.99999969  0.12563596  0.16628168  1
  N  N13  1  -0.99999969  0.90554456  0.66417718  1
  N  N14  1  -0.85968234  0.71214587  0.08823463  1
  N  N15  1  -0.14031721  0.71214577  0.08823468  1
  N  N16  1  -0.85984435  0.31968358  0.59386181  1
  N  N17  1  -0.14015514  0.31968370  0.59386192  1
  N  N18  1  -0.35696789  0.21105964  0.08100759  1
  N  N19  1  -0.64303140  0.21105982  0.08100724  1
  N  N20  1  -0.35887190  0.81979993  0.58311098  1
  N  N21  1  -0.64112745  0.81979981  0.58311091  1
  N  N22  1  -0.49999980  0.64064737  0.13522217  1
  N  N23  1  -0.49999981  0.39434357  0.55123244  1
