# generated using pymatgen
data_Mg2PN3
_symmetry_space_group_name_H-M   'P 1'
_cell_length_a   9.81053006
_cell_length_b   5.70173010
_cell_length_c   4.76879909
_cell_angle_alpha   91.12126400
_cell_angle_beta   90.00000139
_cell_angle_gamma   89.99999188
_symmetry_Int_Tables_number   1
_chemical_formula_structural   Mg2PN3
_chemical_formula_sum   'Mg8 P4 N12'
_cell_volume   266.70121017
_cell_formula_units_Z   4
loop_
 _symmetry_equiv_pos_site_id
 _symmetry_equiv_pos_as_xyz
  1  'x, y, z'
loop_
 _atom_site_type_symbol
 _atom_site_label
 _atom_site_symmetry_multiplicity
 _atom_site_fract_x
 _atom_site_fract_y
 _atom_site_fract_z
 _atom_site_occupancy
  Mg  Mg0  1  -0.16337574  0.34929027  0.04955370  1
  Mg  Mg1  1  -0.83662373  0.34929027  0.04955370  1
  Mg  Mg2  1  -0.16148409  0.68035236  0.54156130  1
  Mg  Mg3  1  -0.83851537  0.68035236  0.54156129  1
  Mg  Mg4  1  -0.66370789  0.84712095  0.05926825  1
  Mg  Mg5  1  -0.33629156  0.84712096  0.05926828  1
  Mg  Mg6  1  -0.66428206  0.18352696  0.59542733  1
  Mg  Mg7  1  -0.33571738  0.18352695  0.59542735  1
  P  P8  1  -0.99999983  0.85366185  0.02085394  1
  P  P9  1  -0.99999982  0.17775686  0.52368147  1
  P  P10  1  -0.49999964  0.35197697  0.13309655  1
  P  P11  1  -0.49999955  0.68515626  0.54059731  1
  N  N12  1  -0.99999974  0.12555519  0.16984369  1
  N  N13  1  -0.99999974  0.90671497  0.66807351  1
  N  N14  1  -0.86007069  0.71194487  0.09079039  1
  N  N15  1  -0.13992870  0.71194492  0.09079035  1
  N  N16  1  -0.85986236  0.32003970  0.59584511  1
  N  N17  1  -0.14013706  0.32003967  0.59584510  1
  N  N18  1  -0.35897542  0.20928245  0.05806083  1
  N  N19  1  -0.64102407  0.20928244  0.05806083  1
  N  N20  1  -0.35678328  0.82000937  0.56294348  1
  N  N21  1  -0.64321631  0.82000948  0.56294353  1
  N  N22  1  -0.49999971  0.63127019  0.05574398  1
  N  N23  1  -0.49999972  0.39400730  0.49896718  1
