# generated using pymatgen
data_Mg2PN3
_symmetry_space_group_name_H-M   'P 1'
_cell_length_a   4.76788595
_cell_length_b   5.67594792
_cell_length_c   9.75692922
_cell_angle_alpha   89.99999999
_cell_angle_beta   89.99999998
_cell_angle_gamma   90.00003527
_symmetry_Int_Tables_number   1
_chemical_formula_structural   Mg2PN3
_chemical_formula_sum   'Mg8 P4 N12'
_cell_volume   264.04467576
_cell_formula_units_Z   4
loop_
 _symmetry_equiv_pos_site_id
 _symmetry_equiv_pos_as_xyz
  1  'x, y, z'
loop_
 _atom_site_type_symbol
 _atom_site_label
 _atom_site_symmetry_multiplicity
 _atom_site_fract_x
 _atom_site_fract_y
 _atom_site_fract_z
 _atom_site_occupancy
  Mg  Mg0  1  0.09425341  0.34937667  0.16333599  1
  Mg  Mg1  1  0.09425344  0.34937667  0.83666337  1
  Mg  Mg2  1  0.59425342  0.68138469  0.16333600  1
  Mg  Mg3  1  0.59425345  0.68138470  0.83666337  1
  Mg  Mg4  1  0.09425340  0.84937666  0.66333587  1
  Mg  Mg5  1  0.09425338  0.84937667  0.33666325  1
  Mg  Mg6  1  0.59425340  0.18138470  0.66333588  1
  Mg  Mg7  1  0.59425338  0.18138469  0.33666325  1
  P  P8  1  0.11143416  0.85328343  1.00000085  1
  P  P9  1  0.61143422  0.17747792  1.00000085  1
  P  P10  1  0.11143409  0.35328342  0.49999839  1
  P  P11  1  0.61143415  0.67747792  0.49999839  1
  N  N12  1  0.96489539  0.12591132  0.99999940  1
  N  N13  1  0.46489536  0.90485000  0.99999940  1
  N  N14  1  0.03884898  0.71180533  0.85902919  1
  N  N15  1  0.03884946  0.71180629  0.14096883  1
  N  N16  1  0.53884905  0.31895600  0.85902920  1
  N  N17  1  0.53884952  0.31895504  0.14096882  1
  N  N18  1  0.03884940  0.21180628  0.35903041  1
  N  N19  1  0.03884892  0.21180532  0.64097005  1
  N  N20  1  0.53884947  0.81895504  0.35903042  1
  N  N21  1  0.53884899  0.81895599  0.64097004  1
  N  N22  1  0.96489532  0.62591131  0.49999984  1
  N  N23  1  0.46489528  0.40484999  0.49999984  1
