# generated using pymatgen
data_Mg2PN3
_symmetry_space_group_name_H-M   'P 1'
_cell_length_a   9.81083345
_cell_length_b   5.70266947
_cell_length_c   4.76888189
_cell_angle_alpha   88.82901193
_cell_angle_beta   89.99999942
_cell_angle_gamma   89.99999056
_symmetry_Int_Tables_number   1
_chemical_formula_structural   Mg2PN3
_chemical_formula_sum   'Mg8 P4 N12'
_cell_volume   266.75339901
_cell_formula_units_Z   4
loop_
 _symmetry_equiv_pos_site_id
 _symmetry_equiv_pos_as_xyz
  1  'x, y, z'
loop_
 _atom_site_type_symbol
 _atom_site_label
 _atom_site_symmetry_multiplicity
 _atom_site_fract_x
 _atom_site_fract_y
 _atom_site_fract_z
 _atom_site_occupancy
  Mg  Mg0  1  -0.16321585  0.34941835  -0.04955931  1
  Mg  Mg1  1  -0.83678361  0.34941836  -0.04955930  1
  Mg  Mg2  1  -0.16171933  0.68045001  -0.54143920  1
  Mg  Mg3  1  -0.83828011  0.68045001  -0.54143917  1
  Mg  Mg4  1  -0.66430992  0.84769554  -0.05575905  1
  Mg  Mg5  1  -0.33568956  0.84769555  -0.05575905  1
  Mg  Mg6  1  -0.66422926  0.18308232  -0.59580166  1
  Mg  Mg7  1  -0.33577021  0.18308235  -0.59580168  1
  P  P8  1  0.00000026  0.85359850  -0.02074392  1
  P  P9  1  0.00000026  0.17768893  -0.52378169  1
  P  P10  1  -0.49999970  0.34931584  -0.13711913  1
  P  P11  1  -0.49999982  0.68600139  -0.50975520  1
  N  N12  1  -0.99999978  0.12553640  -0.16984045  1
  N  N13  1  -0.99999978  0.90669792  -0.66804353  1
  N  N14  1  -0.86010719  0.71193865  -0.09072994  1
  N  N15  1  -0.13989234  0.71193863  -0.09072994  1
  N  N16  1  -0.85984309  0.31996813  -0.59590342  1
  N  N17  1  -0.14015645  0.31996816  -0.59590344  1
  N  N18  1  -0.35895346  0.21003596  -0.05793402  1
  N  N19  1  -0.64104593  0.21003603  -0.05793406  1
  N  N20  1  -0.35721635  0.81919699  -0.56551292  1
  N  N21  1  -0.64278296  0.81919692  -0.56551264  1
  N  N22  1  -0.49999964  0.63509120  -0.08038704  1
  N  N23  1  -0.49999966  0.39173141  -0.50280868  1
