# generated using pymatgen
data_Mg2PN3
_symmetry_space_group_name_H-M   'P 1'
_cell_length_a   9.78832651
_cell_length_b   5.69381226
_cell_length_c   4.76866071
_cell_angle_alpha   88.96716788
_cell_angle_beta   89.99999355
_cell_angle_gamma   90.00000785
_symmetry_Int_Tables_number   1
_chemical_formula_structural   Mg2PN3
_chemical_formula_sum   'Mg8 P4 N12'
_cell_volume   265.72807967
_cell_formula_units_Z   4
loop_
 _symmetry_equiv_pos_site_id
 _symmetry_equiv_pos_as_xyz
  1  'x, y, z'
loop_
 _atom_site_type_symbol
 _atom_site_label
 _atom_site_symmetry_multiplicity
 _atom_site_fract_x
 _atom_site_fract_y
 _atom_site_fract_z
 _atom_site_occupancy
  Mg  Mg0  1  -0.16146632  0.35040106  -0.03935790  1
  Mg  Mg1  1  -0.83853310  0.35040107  -0.03935794  1
  Mg  Mg2  1  -0.16410545  0.68150924  -0.53445678  1
  Mg  Mg3  1  -0.83589403  0.68150926  -0.53445681  1
  Mg  Mg4  1  -0.66452766  0.84656220  -0.02933941  1
  Mg  Mg5  1  -0.33547178  0.84656225  -0.02933935  1
  Mg  Mg6  1  -0.66394816  0.18235729  -0.55650727  1
  Mg  Mg7  1  -0.33605128  0.18235730  -0.55650720  1
  P  P8  1  -0.99999961  0.85312114  -0.01681178  1
  P  P9  1  -0.99999957  0.17710909  -0.52058697  1
  P  P10  1  -0.50000004  0.34666490  -0.08108784  1
  P  P11  1  -0.49999985  0.67794823  -0.50719082  1
  N  N12  1  0.00000027  0.12559192  -0.16622865  1
  N  N13  1  0.00000027  0.90544574  -0.66424999  1
  N  N14  1  -0.85967187  0.71198738  -0.08840594  1
  N  N15  1  -0.14032772  0.71198727  -0.08840599  1
  N  N16  1  -0.85968976  0.31956881  -0.59363073  1
  N  N17  1  -0.14030980  0.31956892  -0.59363082  1
  N  N18  1  -0.35652915  0.21016252  -0.08546075  1
  N  N19  1  -0.64347003  0.21016273  -0.08546122  1
  N  N20  1  -0.35892712  0.82101717  -0.58321629  1
  N  N21  1  -0.64107223  0.82101706  -0.58321622  1
  N  N22  1  -0.49999974  0.63618017  -0.14323661  1
  N  N23  1  -0.49999974  0.40004083  -0.59761519  1
