# generated using pymatgen
data_Mg2PN3
_symmetry_space_group_name_H-M   'P 1'
_cell_length_a   9.80753215
_cell_length_b   5.69292303
_cell_length_c   4.76980417
_cell_angle_alpha   88.37500846
_cell_angle_beta   89.99995634
_cell_angle_gamma   89.99998008
_symmetry_Int_Tables_number   1
_chemical_formula_structural   Mg2PN3
_chemical_formula_sum   'Mg8 P4 N12'
_cell_volume   266.20788232
_cell_formula_units_Z   4
loop_
 _symmetry_equiv_pos_site_id
 _symmetry_equiv_pos_as_xyz
  1  'x, y, z'
loop_
 _atom_site_type_symbol
 _atom_site_label
 _atom_site_symmetry_multiplicity
 _atom_site_fract_x
 _atom_site_fract_y
 _atom_site_fract_z
 _atom_site_occupancy
  Mg  Mg0  1  -0.16466468  0.34987536  -0.04880319  1
  Mg  Mg1  1  -0.83533462  0.34987537  -0.04880315  1
  Mg  Mg2  1  -0.16491705  0.68265107  -0.61120496  1
  Mg  Mg3  1  -0.83508198  0.68265089  -0.61120495  1
  Mg  Mg4  1  -0.66309527  0.84990505  -0.10697525  1
  Mg  Mg5  1  -0.33690456  0.84990490  -0.10697519  1
  Mg  Mg6  1  -0.66228342  0.18047381  -0.59568130  1
  Mg  Mg7  1  -0.33771619  0.18047377  -0.59568133  1
  P  P8  1  0.00000310  0.84464848  -0.15712088  1
  P  P9  1  0.00000354  0.18654656  -0.49254119  1
  P  P10  1  -0.50000250  0.35341681  -0.12013459  1
  P  P11  1  -0.50000207  0.67711992  -0.62491176  1
  N  N12  1  -1.00000024  0.14332939  -0.13069634  1
  N  N13  1  -1.00000026  0.88719520  -0.51869931  1
  N  N14  1  -0.85869239  0.71471796  -0.06393490  1
  N  N15  1  -0.14130965  0.71471614  -0.06393346  1
  N  N16  1  -0.85848992  0.31724473  -0.58287060  1
  N  N17  1  -0.14151266  0.31724705  -0.58287231  1
  N  N18  1  -0.35976188  0.21104985  -0.04721146  1
  N  N19  1  -0.64023479  0.21105200  -0.04721263  1
  N  N20  1  -0.35990712  0.81788683  -0.55415321  1
  N  N21  1  -0.64009018  0.81788522  -0.55415392  1
  N  N22  1  -0.49999934  0.62484929  -0.97734028  1
  N  N23  1  -0.49999934  0.40451790  -0.47464231  1
