# generated using pymatgen
data_Mg2PN3
_symmetry_space_group_name_H-M   'P 1'
_cell_length_a   9.80992300
_cell_length_b   5.70012529
_cell_length_c   4.76870337
_cell_angle_alpha   91.06088177
_cell_angle_beta   89.99999627
_cell_angle_gamma   90.00000905
_symmetry_Int_Tables_number   1
_chemical_formula_structural   Mg2PN3
_chemical_formula_sum   'Mg8 P4 N12'
_cell_volume   266.60964619
_cell_formula_units_Z   4
loop_
 _symmetry_equiv_pos_site_id
 _symmetry_equiv_pos_as_xyz
  1  'x, y, z'
loop_
 _atom_site_type_symbol
 _atom_site_label
 _atom_site_symmetry_multiplicity
 _atom_site_fract_x
 _atom_site_fract_y
 _atom_site_fract_z
 _atom_site_occupancy
  Mg  Mg0  1  -0.16425843  0.34744400  0.04837659  1
  Mg  Mg1  1  -0.83574117  0.34744398  0.04837661  1
  Mg  Mg2  1  -0.16373773  0.68337716  0.58087226  1
  Mg  Mg3  1  -0.83626187  0.68337717  0.58087224  1
  Mg  Mg4  1  -0.66154980  0.85033040  0.10151829  1
  Mg  Mg5  1  -0.33844949  0.85033045  0.10151828  1
  Mg  Mg6  1  -0.66334523  0.18146132  0.59372468  1
  Mg  Mg7  1  -0.33665407  0.18146128  0.59372466  1
  P  P8  1  -0.00000269  0.84813877  0.06751014  1
  P  P9  1  -0.00000091  0.17779857  0.51285826  1
  P  P10  1  -0.49999848  0.35301753  0.11954803  1
  P  P11  1  -0.49999837  0.67711725  0.62232654  1
  N  N12  1  -0.99999942  0.13399642  0.14986969  1
  N  N13  1  -0.99999943  0.90137554  0.61212294  1
  N  N14  1  -0.85704475  0.71076387  0.08269341  1
  N  N15  1  -0.14295183  0.71076620  0.08269318  1
  N  N16  1  -0.85901811  0.32130847  0.58560471  1
  N  N17  1  -0.14098022  0.32130754  0.58560425  1
  N  N18  1  -0.35984918  0.21073537  0.04741857  1
  N  N19  1  -0.64015151  0.21073444  0.04741808  1
  N  N20  1  -0.36006891  0.81883360  0.55231930  1
  N  N21  1  -0.63993193  0.81883458  0.55231879  1
  N  N22  1  -0.49999997  0.62408006  0.97509920  1
  N  N23  1  -0.49999995  0.40519958  0.47336977  1
