# generated using pymatgen
data_Mg2PN3
_symmetry_space_group_name_H-M   'P 1'
_cell_length_a   9.75820563
_cell_length_b   5.67601848
_cell_length_c   4.76788595
_cell_angle_alpha   89.99999943
_cell_angle_beta   90.00000080
_cell_angle_gamma   89.99999708
_symmetry_Int_Tables_number   1
_chemical_formula_structural   Mg2PN3
_chemical_formula_sum   'Mg8 P4 N12'
_cell_volume   264.08250153
_cell_formula_units_Z   4
loop_
 _symmetry_equiv_pos_site_id
 _symmetry_equiv_pos_as_xyz
  1  'x, y, z'
loop_
 _atom_site_type_symbol
 _atom_site_label
 _atom_site_symmetry_multiplicity
 _atom_site_fract_x
 _atom_site_fract_y
 _atom_site_fract_z
 _atom_site_occupancy
  Mg  Mg0  1  -0.16333021  0.34936647  -0.07157968  1
  Mg  Mg1  1  -0.83666864  0.34936650  -0.07157967  1
  Mg  Mg2  1  -0.16333021  0.68140317  -0.57157967  1
  Mg  Mg3  1  -0.83666861  0.68140315  -0.57157968  1
  Mg  Mg4  1  -0.66333025  0.84936652  -0.07157969  1
  Mg  Mg5  1  -0.33666875  0.84936650  -0.07157968  1
  Mg  Mg6  1  -0.66333023  0.18140320  -0.57157968  1
  Mg  Mg7  1  -0.33666875  0.18140322  -0.57157969  1
  P  P8  1  -0.99999875  0.85332313  -0.08878600  1
  P  P9  1  -0.99999873  0.17744641  -0.58878599  1
  P  P10  1  -0.50000014  0.35332356  -0.08878613  1
  P  P11  1  -0.50000013  0.67744636  -0.58878614  1
  N  N12  1  -0.99999966  0.12585168  -0.94215667  1
  N  N13  1  -0.99999965  0.90491795  -0.44215666  1
  N  N14  1  -0.85906763  0.71187031  -0.01623108  1
  N  N15  1  -0.14093207  0.71186976  -0.01623083  1
  N  N16  1  -0.85906763  0.31889932  -0.51623111  1
  N  N17  1  -0.14093210  0.31889986  -0.51623083  1
  N  N18  1  -0.35906676  0.21186968  -0.01623079  1
  N  N19  1  -0.64093137  0.21187020  -0.01623108  1
  N  N20  1  -0.35906678  0.81890005  -0.51623081  1
  N  N21  1  -0.64093138  0.81889953  -0.51623105  1
  N  N22  1  -0.49999925  0.62585168  -0.94215671  1
  N  N23  1  -0.49999924  0.40491797  -0.44215660  1
