# generated using pymatgen
data_Mg2PN3
_symmetry_space_group_name_H-M   'P 1'
_cell_length_a   4.76879762
_cell_length_b   5.70153962
_cell_length_c   9.81063807
_cell_angle_alpha   90.00001469
_cell_angle_beta   89.99999718
_cell_angle_gamma   91.12036119
_symmetry_Int_Tables_number   1
_chemical_formula_structural   Mg2PN3
_chemical_formula_sum   'Mg8 P4 N12'
_cell_volume   266.69523670
_cell_formula_units_Z   4
loop_
 _symmetry_equiv_pos_site_id
 _symmetry_equiv_pos_as_xyz
  1  'x, y, z'
loop_
 _atom_site_type_symbol
 _atom_site_label
 _atom_site_symmetry_multiplicity
 _atom_site_fract_x
 _atom_site_fract_y
 _atom_site_fract_z
 _atom_site_occupancy
  Mg  Mg0  1  0.04781531  0.34727302  0.16429273  1
  Mg  Mg1  1  0.04781531  0.34727304  0.83570654  1
  Mg  Mg2  1  0.58393435  0.68363187  0.16370528  1
  Mg  Mg3  1  0.58393434  0.68363185  0.83629399  1
  Mg  Mg4  1  0.10166255  0.85042217  0.66148974  1
  Mg  Mg5  1  0.10166255  0.85042210  0.33850994  1
  Mg  Mg6  1  0.59364667  0.18146533  0.66337211  1
  Mg  Mg7  1  0.59364669  0.18146538  0.33662755  1
  P  P8  1  0.09982763  0.84579898  0.99999567  1
  P  P9  1  0.51020435  0.17864559  0.99999819  1
  P  P10  1  0.11950356  0.35301797  0.50000133  1
  P  P11  1  0.62233386  0.67710041  0.50000147  1
  N  N12  1  0.14445582  0.13663582  0.00000014  1
  N  N13  1  0.58880991  0.89962080  0.00000010  1
  N  N14  1  0.08022910  0.71077760  0.85678223  1
  N  N15  1  0.08022862  0.71077443  0.14322121  1
  N  N16  1  0.58508534  0.32145393  0.85897318  1
  N  N17  1  0.58508595  0.32145515  0.14102775  1
  N  N18  1  0.04732746  0.21073759  0.35986243  1
  N  N19  1  0.04732810  0.21073880  0.64013540  1
  N  N20  1  0.55237934  0.81881097  0.36007041  1
  N  N21  1  0.55237999  0.81880970  0.63992724  1
  N  N22  1  0.97511791  0.62406945  0.49999940  1
  N  N23  1  0.47334376  0.40520160  0.49999943  1
