# generated using pymatgen
data_Mg2PN3
_symmetry_space_group_name_H-M   'P 1'
_cell_length_a   9.79750535
_cell_length_b   5.69715106
_cell_length_c   4.76909950
_cell_angle_alpha   91.29257847
_cell_angle_beta   89.99995752
_cell_angle_gamma   89.99995291
_symmetry_Int_Tables_number   1
_chemical_formula_structural   Mg2PN3
_chemical_formula_sum   'Mg8 P4 N12'
_cell_volume   266.13322849
_cell_formula_units_Z   4
loop_
 _symmetry_equiv_pos_site_id
 _symmetry_equiv_pos_as_xyz
  1  'x, y, z'
loop_
 _atom_site_type_symbol
 _atom_site_label
 _atom_site_symmetry_multiplicity
 _atom_site_fract_x
 _atom_site_fract_y
 _atom_site_fract_z
 _atom_site_occupancy
  Mg  Mg0  1  -0.16233967  0.35036124  0.04236971  1
  Mg  Mg1  1  -0.83766016  0.35036116  0.04236965  1
  Mg  Mg2  1  -0.16335849  0.68075972  0.53433942  1
  Mg  Mg3  1  -0.83664140  0.68075981  0.53433944  1
  Mg  Mg4  1  -0.66446742  0.84832426  0.02921619  1
  Mg  Mg5  1  -0.33553161  0.84832440  0.02921622  1
  Mg  Mg6  1  -0.66611397  0.17968489  0.57530282  1
  Mg  Mg7  1  -0.33388514  0.17968482  0.57530264  1
  P  P8  1  -0.00000329  0.85348067  0.01719009  1
  P  P9  1  -0.00000378  0.17716892  0.52109838  1
  P  P10  1  -0.49999461  0.34502757  0.15639811  1
  P  P11  1  -0.49999555  0.68612227  0.49221911  1
  N  N12  1  -0.99999904  0.12598136  0.16680472  1
  N  N13  1  -0.99999904  0.90567724  0.66439764  1
  N  N14  1  -0.85971659  0.71260902  0.08823765  1
  N  N15  1  -0.14027928  0.71261178  0.08823636  1
  N  N16  1  -0.86000774  0.31979888  0.59480549  1
  N  N17  1  -0.13998753  0.31979574  0.59480374  1
  N  N18  1  -0.35785381  0.21245449  0.07484726  1
  N  N19  1  -0.64215063  0.21245079  0.07484474  1
  N  N20  1  -0.35869308  0.81728287  0.58289477  1
  N  N21  1  -0.64131040  0.81728585  0.58289689  1
  N  N22  1  -0.50000062  0.64332198  0.13048951  1
  N  N23  1  -0.50000060  0.38990381  0.52513794  1
