# generated using pymatgen
data_Mg2PN3
_symmetry_space_group_name_H-M   'P 1'
_cell_length_a   9.75692922
_cell_length_b   5.67594792
_cell_length_c   4.76788595
_cell_angle_alpha   89.99996473
_cell_angle_beta   89.99999998
_cell_angle_gamma   90.00000001
_symmetry_Int_Tables_number   1
_chemical_formula_structural   Mg2PN3
_chemical_formula_sum   'Mg8 P4 N12'
_cell_volume   264.04467576
_cell_formula_units_Z   4
loop_
 _symmetry_equiv_pos_site_id
 _symmetry_equiv_pos_as_xyz
  1  'x, y, z'
loop_
 _atom_site_type_symbol
 _atom_site_label
 _atom_site_symmetry_multiplicity
 _atom_site_fract_x
 _atom_site_fract_y
 _atom_site_fract_z
 _atom_site_occupancy
  Mg  Mg0  1  -0.16333599  0.34937667  -0.09425341  1
  Mg  Mg1  1  -0.83666337  0.34937667  -0.09425344  1
  Mg  Mg2  1  -0.16333600  0.68138469  -0.59425342  1
  Mg  Mg3  1  -0.83666337  0.68138470  -0.59425345  1
  Mg  Mg4  1  -0.66333587  0.84937666  -0.09425340  1
  Mg  Mg5  1  -0.33666325  0.84937667  -0.09425338  1
  Mg  Mg6  1  -0.66333588  0.18138470  -0.59425340  1
  Mg  Mg7  1  -0.33666325  0.18138469  -0.59425338  1
  P  P8  1  -1.00000085  0.85328343  -0.11143416  1
  P  P9  1  -1.00000085  0.17747792  -0.61143422  1
  P  P10  1  -0.49999839  0.35328342  -0.11143409  1
  P  P11  1  -0.49999839  0.67747792  -0.61143415  1
  N  N12  1  -0.99999940  0.12591132  -0.96489539  1
  N  N13  1  -0.99999940  0.90485000  -0.46489536  1
  N  N14  1  -0.85902919  0.71180533  -0.03884898  1
  N  N15  1  -0.14096883  0.71180629  -0.03884946  1
  N  N16  1  -0.85902920  0.31895600  -0.53884905  1
  N  N17  1  -0.14096882  0.31895504  -0.53884952  1
  N  N18  1  -0.35903041  0.21180628  -0.03884940  1
  N  N19  1  -0.64097005  0.21180532  -0.03884892  1
  N  N20  1  -0.35903042  0.81895504  -0.53884947  1
  N  N21  1  -0.64097004  0.81895599  -0.53884899  1
  N  N22  1  -0.49999984  0.62591131  -0.96489532  1
  N  N23  1  -0.49999984  0.40484999  -0.46489528  1
