# generated using pymatgen
data_Mg2PN3
_symmetry_space_group_name_H-M   'P 1'
_cell_length_a   9.80781833
_cell_length_b   5.69784875
_cell_length_c   4.76857704
_cell_angle_alpha   90.97547579
_cell_angle_beta   90.00000348
_cell_angle_gamma   89.99998633
_symmetry_Int_Tables_number   1
_chemical_formula_structural   Mg2PN3
_chemical_formula_sum   'Mg8 P4 N12'
_cell_volume   266.44598948
_cell_formula_units_Z   4
loop_
 _symmetry_equiv_pos_site_id
 _symmetry_equiv_pos_as_xyz
  1  'x, y, z'
loop_
 _atom_site_type_symbol
 _atom_site_label
 _atom_site_symmetry_multiplicity
 _atom_site_fract_x
 _atom_site_fract_y
 _atom_site_fract_z
 _atom_site_occupancy
  Mg  Mg0  1  -0.16321326  0.34935751  0.04930641  1
  Mg  Mg1  1  -0.83678618  0.34935752  0.04930640  1
  Mg  Mg2  1  -0.16179759  0.68065923  0.54212250  1
  Mg  Mg3  1  -0.83820185  0.68065923  0.54212250  1
  Mg  Mg4  1  -0.66398142  0.84805392  0.06681066  1
  Mg  Mg5  1  -0.33601806  0.84805393  0.06681071  1
  Mg  Mg6  1  -0.66407156  0.18280446  0.59404292  1
  Mg  Mg7  1  -0.33592791  0.18280447  0.59404293  1
  P  P8  1  -0.99999953  0.85360852  0.02088395  1
  P  P9  1  -0.99999955  0.17772765  0.52361559  1
  P  P10  1  -0.49999988  0.35323391  0.12816149  1
  P  P11  1  -0.49999964  0.67982297  0.60314139  1
  N  N12  1  -0.99999975  0.12555272  0.16977348  1
  N  N13  1  -0.99999975  0.90663985  0.66816558  1
  N  N14  1  -0.86005505  0.71188034  0.09110171  1
  N  N15  1  -0.13994459  0.71188019  0.09110179  1
  N  N16  1  -0.85980100  0.31999278  0.59559723  1
  N  N17  1  -0.14019861  0.31999291  0.59559731  1
  N  N18  1  -0.35911986  0.21015537  0.05668406  1
  N  N19  1  -0.64087944  0.21015549  0.05668411  1
  N  N20  1  -0.35776409  0.81945008  0.55905204  1
  N  N21  1  -0.64223548  0.81945017  0.55905250  1
  N  N22  1  -0.49999969  0.62817301  0.00675583  1
  N  N23  1  -0.49999972  0.39976732  0.48782538  1
