# generated using pymatgen
data_Mg2PN3
_symmetry_space_group_name_H-M   'P 1'
_cell_length_a   9.75692944
_cell_length_b   5.67594819
_cell_length_c   4.76788595
_cell_angle_alpha   90.00004233
_cell_angle_beta   90.00000004
_cell_angle_gamma   90.00000003
_symmetry_Int_Tables_number   1
_chemical_formula_structural   Mg2PN3
_chemical_formula_sum   'Mg8 P4 N12'
_cell_volume   264.04469428
_cell_formula_units_Z   4
loop_
 _symmetry_equiv_pos_site_id
 _symmetry_equiv_pos_as_xyz
  1  'x, y, z'
loop_
 _atom_site_type_symbol
 _atom_site_label
 _atom_site_symmetry_multiplicity
 _atom_site_fract_x
 _atom_site_fract_y
 _atom_site_fract_z
 _atom_site_occupancy
  Mg  Mg0  1  -0.16333616  0.34938396  0.04900462  1
  Mg  Mg1  1  -0.83666354  0.34938396  0.04900462  1
  Mg  Mg2  1  -0.16333616  0.68139206  0.54900462  1
  Mg  Mg3  1  -0.83666354  0.68139206  0.54900461  1
  Mg  Mg4  1  -0.66333613  0.84938396  0.04900455  1
  Mg  Mg5  1  -0.33666351  0.84938396  0.04900456  1
  Mg  Mg6  1  -0.66333613  0.18139205  0.54900457  1
  Mg  Mg7  1  -0.33666351  0.18139205  0.54900458  1
  P  P8  1  -1.00000010  0.85329074  0.03182352  1
  P  P9  1  -1.00000010  0.17748532  0.53182360  1
  P  P10  1  -0.49999957  0.35329074  0.03182343  1
  P  P11  1  -0.49999957  0.67748531  0.53182350  1
  N  N12  1  -0.99999979  0.12591860  0.17836257  1
  N  N13  1  -0.99999979  0.90485752  0.67836253  1
  N  N14  1  -0.85902990  0.71181303  0.10440858  1
  N  N15  1  -0.14096952  0.71181323  0.10440847  1
  N  N16  1  -0.85902988  0.31896304  0.60440866  1
  N  N17  1  -0.14096953  0.31896284  0.60440856  1
  N  N18  1  -0.35903015  0.21181322  0.10440841  1
  N  N19  1  -0.64096977  0.21181302  0.10440850  1
  N  N20  1  -0.35903014  0.81896282  0.60440848  1
  N  N21  1  -0.64096979  0.81896302  0.60440858  1
  N  N22  1  -0.49999988  0.62591860  0.17836247  1
  N  N23  1  -0.49999988  0.40485750  0.67836244  1
