# generated using pymatgen
data_Mg2PN3
_symmetry_space_group_name_H-M   'P 1'
_cell_length_a   9.78966389
_cell_length_b   5.69537236
_cell_length_c   4.76873221
_cell_angle_alpha   91.07943231
_cell_angle_beta   90.00000141
_cell_angle_gamma   90.00001907
_symmetry_Int_Tables_number   1
_chemical_formula_structural   Mg2PN3
_chemical_formula_sum   'Mg8 P4 N12'
_cell_volume   265.83720542
_cell_formula_units_Z   4
loop_
 _symmetry_equiv_pos_site_id
 _symmetry_equiv_pos_as_xyz
  1  'x, y, z'
loop_
 _atom_site_type_symbol
 _atom_site_label
 _atom_site_symmetry_multiplicity
 _atom_site_fract_x
 _atom_site_fract_y
 _atom_site_fract_z
 _atom_site_occupancy
  Mg  Mg0  1  -0.16431871  0.34868613  0.08425555  1
  Mg  Mg1  1  -0.83568045  0.34868622  0.08425572  1
  Mg  Mg2  1  -0.16449810  0.68417159  0.61427806  1
  Mg  Mg3  1  -0.83550106  0.68417157  0.61427807  1
  Mg  Mg4  1  -0.66407470  0.84930374  0.10876130  1
  Mg  Mg5  1  -0.33592509  0.84930364  0.10876128  1
  Mg  Mg6  1  -0.66149043  0.18033007  0.60373697  1
  Mg  Mg7  1  -0.33850945  0.18033022  0.60373698  1
  P  P8  1  -0.99999713  0.85117948  0.13905906  1
  P  P9  1  -0.99999238  0.18562392  0.52916020  1
  P  P10  1  -0.50000256  0.35366820  0.12259601  1
  P  P11  1  -0.50000191  0.67763905  0.62634956  1
  N  N12  1  -0.00000037  0.13286589  0.06815684  1
  N  N13  1  -0.00000042  0.89220652  0.50473853  1
  N  N14  1  -0.85891930  0.70996123  0.06026894  1
  N  N15  1  -0.14108258  0.70995908  0.06026794  1
  N  N16  1  -0.85647966  0.32042810  0.56027928  1
  N  N17  1  -0.14352692  0.32043375  0.56028084  1
  N  N18  1  -0.35973341  0.21117181  0.04950975  1
  N  N19  1  -0.64026315  0.21117376  0.04951088  1
  N  N20  1  -0.35968402  0.81873965  0.55482131  1
  N  N21  1  -0.64031317  0.81873807  0.55482204  1
  N  N22  1  -0.49999927  0.62528593  0.97893941  1
  N  N23  1  -0.49999922  0.40517594  0.47693396  1
