# generated using pymatgen
data_Mg2PN3
_symmetry_space_group_name_H-M   'P 1'
_cell_length_a   9.80021495
_cell_length_b   5.69158866
_cell_length_c   4.76823066
_cell_angle_alpha   90.68895024
_cell_angle_beta   89.99999608
_cell_angle_gamma   89.99999703
_symmetry_Int_Tables_number   1
_chemical_formula_structural   Mg2PN3
_chemical_formula_sum   'Mg8 P4 N12'
_cell_volume   265.94691989
_cell_formula_units_Z   4
loop_
 _symmetry_equiv_pos_site_id
 _symmetry_equiv_pos_as_xyz
  1  'x, y, z'
loop_
 _atom_site_type_symbol
 _atom_site_label
 _atom_site_symmetry_multiplicity
 _atom_site_fract_x
 _atom_site_fract_y
 _atom_site_fract_z
 _atom_site_occupancy
  Mg  Mg0  1  -0.16285325  0.34958692  0.04874854  1
  Mg  Mg1  1  -0.83714625  0.34958692  0.04874853  1
  Mg  Mg2  1  -0.16255970  0.68106971  0.54476995  1
  Mg  Mg3  1  -0.83743979  0.68106972  0.54476995  1
  Mg  Mg4  1  -0.66387826  0.84929810  0.08005499  1
  Mg  Mg5  1  -0.33612117  0.84929811  0.08005498  1
  Mg  Mg6  1  -0.66337655  0.18155108  0.59282791  1
  Mg  Mg7  1  -0.33662287  0.18155108  0.59282791  1
  P  P8  1  -0.99999998  0.85356533  0.02153712  1
  P  P9  1  -1.00000004  0.17763112  0.52353925  1
  P  P10  1  -0.49999943  0.35336566  0.12428769  1
  P  P11  1  -0.49999915  0.67723656  0.62219192  1
  N  N12  1  -0.99999967  0.12549167  0.16976944  1
  N  N13  1  -0.99999967  0.90626442  0.66873139  1
  N  N14  1  -0.85987457  0.71184232  0.09235647  1
  N  N15  1  -0.14012463  0.71184252  0.09235637  1
  N  N16  1  -0.85959370  0.31965403  0.59500666  1
  N  N17  1  -0.14040544  0.31965379  0.59500654  1
  N  N18  1  -0.35921260  0.21154923  0.05350322  1
  N  N19  1  -0.64078714  0.21154899  0.05350309  1
  N  N20  1  -0.35897292  0.81859745  0.55618127  1
  N  N21  1  -0.64102710  0.81859791  0.55618118  1
  N  N22  1  -0.49999979  0.62538511  0.98154266  1
  N  N23  1  -0.49999980  0.40399581  0.47926144  1
