# generated using pymatgen
data_Mg2PN3
_symmetry_space_group_name_H-M   'P 1'
_cell_length_a   9.81090511
_cell_length_b   5.70250824
_cell_length_c   4.76887805
_cell_angle_alpha   88.83126635
_cell_angle_beta   90.00000090
_cell_angle_gamma   90.00000319
_symmetry_Int_Tables_number   1
_chemical_formula_structural   Mg2PN3
_chemical_formula_sum   'Mg8 P4 N12'
_cell_volume   266.74780544
_cell_formula_units_Z   4
loop_
 _symmetry_equiv_pos_site_id
 _symmetry_equiv_pos_as_xyz
  1  'x, y, z'
loop_
 _atom_site_type_symbol
 _atom_site_label
 _atom_site_symmetry_multiplicity
 _atom_site_fract_x
 _atom_site_fract_y
 _atom_site_fract_z
 _atom_site_occupancy
  Mg  Mg0  1  -0.16424181  0.34766833  -0.04743175  1
  Mg  Mg1  1  -0.83575768  0.34766832  -0.04743175  1
  Mg  Mg2  1  -0.16425386  0.68311911  -0.58723940  1
  Mg  Mg3  1  -0.83574563  0.68311910  -0.58723941  1
  Mg  Mg4  1  -0.66169912  0.85033753  -0.10175901  1
  Mg  Mg5  1  -0.33830030  0.85033754  -0.10175901  1
  Mg  Mg6  1  -0.66322887  0.18135049  -0.59363497  1
  Mg  Mg7  1  -0.33677054  0.18135048  -0.59363497  1
  P  P8  1  -0.00000054  0.84483761  -0.13096924  1
  P  P9  1  -0.00000007  0.18116658  -0.50632727  1
  P  P10  1  -0.49999938  0.35308053  -0.11940673  1
  P  P11  1  -0.49999935  0.67715821  -0.62242425  1
  N  N12  1  -0.99999962  0.13890643  -0.14051577  1
  N  N13  1  -0.99999962  0.89596985  -0.56459478  1
  N  N14  1  -0.85716577  0.71153619  -0.07760790  1
  N  N15  1  -0.14283285  0.71153685  -0.07760810  1
  N  N16  1  -0.85895403  0.32077626  -0.58515562  1
  N  N17  1  -0.14104507  0.32077595  -0.58515545  1
  N  N18  1  -0.35984604  0.21080387  -0.04726898  1
  N  N19  1  -0.64015380  0.21080358  -0.04726884  1
  N  N20  1  -0.36010398  0.81881448  -0.55242228  1
  N  N21  1  -0.63989589  0.81881478  -0.55242213  1
  N  N22  1  -0.49999982  0.62408329  -0.97513824  1
  N  N23  1  -0.49999981  0.40521820  -0.47334261  1
