# generated using pymatgen
data_Mg2PN3
_symmetry_space_group_name_H-M   'P 1'
_cell_length_a   9.75696453
_cell_length_b   5.67595284
_cell_length_c   4.76788596
_cell_angle_alpha   90.00394170
_cell_angle_beta   90.00000009
_cell_angle_gamma   90.00000137
_symmetry_Int_Tables_number   1
_chemical_formula_structural   Mg2PN3
_chemical_formula_sum   'Mg8 P4 N12'
_cell_volume   264.04586019
_cell_formula_units_Z   4
loop_
 _symmetry_equiv_pos_site_id
 _symmetry_equiv_pos_as_xyz
  1  'x, y, z'
loop_
 _atom_site_type_symbol
 _atom_site_label
 _atom_site_symmetry_multiplicity
 _atom_site_fract_x
 _atom_site_fract_y
 _atom_site_fract_z
 _atom_site_occupancy
  Mg  Mg0  1  -0.16333544  0.34939029  0.04145986  1
  Mg  Mg1  1  -0.83666396  0.34939032  0.04145985  1
  Mg  Mg2  1  -0.16333596  0.68139863  0.54145642  1
  Mg  Mg3  1  -0.83666345  0.68139860  0.54145642  1
  Mg  Mg4  1  -0.66333639  0.84938954  0.04144866  1
  Mg  Mg5  1  -0.33666332  0.84938951  0.04144866  1
  Mg  Mg6  1  -0.66333688  0.18139767  0.54145573  1
  Mg  Mg7  1  -0.33666283  0.18139770  0.54145574  1
  P  P8  1  -0.99999834  0.85329817  0.02427337  1
  P  P9  1  -0.99999834  0.17749290  0.52428140  1
  P  P10  1  -0.50000122  0.35329758  0.02426149  1
  P  P11  1  -0.50000122  0.67749115  0.52426651  1
  N  N12  1  0.00000001  0.12592749  0.17081870  1
  N  N13  1  0.00000001  0.90486731  0.67081468  1
  N  N14  1  -0.85903138  0.71182258  0.09685602  1
  N  N15  1  -0.14096956  0.71182152  0.09685655  1
  N  N16  1  -0.85903051  0.31897121  0.59686590  1
  N  N17  1  -0.14097041  0.31897226  0.59686643  1
  N  N18  1  -0.35902984  0.21182139  0.09684740  1
  N  N19  1  -0.64096835  0.21182244  0.09684687  1
  N  N20  1  -0.35902905  0.81897017  0.59685324  1
  N  N21  1  -0.64096913  0.81896911  0.59685272  1
  N  N22  1  -0.49999957  0.62592821  0.17080278  1
  N  N23  1  -0.49999957  0.40486498  0.67080061  1
