# generated using pymatgen
data_Mg2PN3
_symmetry_space_group_name_H-M   'P 1'
_cell_length_a   4.76857704
_cell_length_b   5.69784875
_cell_length_c   9.80781833
_cell_angle_alpha   90.00001367
_cell_angle_beta   89.99999652
_cell_angle_gamma   90.97547579
_symmetry_Int_Tables_number   1
_chemical_formula_structural   Mg2PN3
_chemical_formula_sum   'Mg8 P4 N12'
_cell_volume   266.44598948
_cell_formula_units_Z   4
loop_
 _symmetry_equiv_pos_site_id
 _symmetry_equiv_pos_as_xyz
  1  'x, y, z'
loop_
 _atom_site_type_symbol
 _atom_site_label
 _atom_site_symmetry_multiplicity
 _atom_site_fract_x
 _atom_site_fract_y
 _atom_site_fract_z
 _atom_site_occupancy
  Mg  Mg0  1  0.04930641  0.34935751  0.16321326  1
  Mg  Mg1  1  0.04930640  0.34935752  0.83678618  1
  Mg  Mg2  1  0.54212250  0.68065923  0.16179759  1
  Mg  Mg3  1  0.54212250  0.68065923  0.83820185  1
  Mg  Mg4  1  0.06681066  0.84805392  0.66398142  1
  Mg  Mg5  1  0.06681071  0.84805393  0.33601806  1
  Mg  Mg6  1  0.59404292  0.18280446  0.66407156  1
  Mg  Mg7  1  0.59404293  0.18280447  0.33592791  1
  P  P8  1  0.02088395  0.85360852  0.99999953  1
  P  P9  1  0.52361559  0.17772765  0.99999955  1
  P  P10  1  0.12816149  0.35323391  0.49999988  1
  P  P11  1  0.60314139  0.67982297  0.49999964  1
  N  N12  1  0.16977348  0.12555272  0.99999975  1
  N  N13  1  0.66816558  0.90663985  0.99999975  1
  N  N14  1  0.09110171  0.71188034  0.86005505  1
  N  N15  1  0.09110179  0.71188019  0.13994459  1
  N  N16  1  0.59559723  0.31999278  0.85980100  1
  N  N17  1  0.59559731  0.31999291  0.14019861  1
  N  N18  1  0.05668406  0.21015537  0.35911986  1
  N  N19  1  0.05668411  0.21015549  0.64087944  1
  N  N20  1  0.55905204  0.81945008  0.35776409  1
  N  N21  1  0.55905250  0.81945017  0.64223548  1
  N  N22  1  0.00675583  0.62817301  0.49999969  1
  N  N23  1  0.48782538  0.39976732  0.49999972  1
