# generated using pymatgen
data_Mg2PN3
_symmetry_space_group_name_H-M   'P 1'
_cell_length_a   4.76788595
_cell_length_b   5.67594806
_cell_length_c   9.75692866
_cell_angle_alpha   89.99999999
_cell_angle_beta   90.00000005
_cell_angle_gamma   89.99999932
_symmetry_Int_Tables_number   1
_chemical_formula_structural   Mg2PN3
_chemical_formula_sum   'Mg8 P4 N12'
_cell_volume   264.04466694
_cell_formula_units_Z   4
loop_
 _symmetry_equiv_pos_site_id
 _symmetry_equiv_pos_as_xyz
  1  'x, y, z'
loop_
 _atom_site_type_symbol
 _atom_site_label
 _atom_site_symmetry_multiplicity
 _atom_site_fract_x
 _atom_site_fract_y
 _atom_site_fract_z
 _atom_site_occupancy
  Mg  Mg0  1  0.05653412  0.34938092  0.16333620  1
  Mg  Mg1  1  0.05653413  0.34938091  0.83666359  1
  Mg  Mg2  1  0.55653412  0.68138904  0.16333620  1
  Mg  Mg3  1  0.55653413  0.68138905  0.83666360  1
  Mg  Mg4  1  0.05653414  0.84938091  0.66333619  1
  Mg  Mg5  1  0.05653411  0.84938092  0.33666358  1
  Mg  Mg6  1  0.55653413  0.18138905  0.66333618  1
  Mg  Mg7  1  0.55653411  0.18138904  0.33666358  1
  P  P8  1  0.03935344  0.85328769  0.99999998  1
  P  P9  1  0.53935344  0.17748229  0.99999998  1
  P  P10  1  0.03935344  0.35328769  0.49999980  1
  P  P11  1  0.53935344  0.67748229  0.49999980  1
  N  N12  1  0.18589245  0.12591552  -0.00000012  1
  N  N13  1  0.68589244  0.90485447  -0.00000012  1
  N  N14  1  0.11193838  0.71181003  0.85903002  1
  N  N15  1  0.11193836  0.71181009  0.14096967  1
  N  N16  1  0.61193837  0.31895993  0.85903002  1
  N  N17  1  0.61193835  0.31895987  0.14096967  1
  N  N18  1  0.11193835  0.21181009  0.35903011  1
  N  N19  1  0.11193839  0.21181003  0.64096975  1
  N  N20  1  0.61193834  0.81895987  0.35903011  1
  N  N21  1  0.61193838  0.81895993  0.64096976  1
  N  N22  1  0.18589245  0.62591552  0.49999990  1
  N  N23  1  0.68589244  0.40485447  0.49999990  1
