# generated using pymatgen
data_Mg2PN3
_symmetry_space_group_name_H-M   'P 1'
_cell_length_a   9.78155439
_cell_length_b   5.68777028
_cell_length_c   4.76843107
_cell_angle_alpha   89.13363971
_cell_angle_beta   89.99996745
_cell_angle_gamma   89.99994029
_symmetry_Int_Tables_number   1
_chemical_formula_structural   Mg2PN3
_chemical_formula_sum   'Mg8 P4 N12'
_cell_volume   265.26245230
_cell_formula_units_Z   4
loop_
 _symmetry_equiv_pos_site_id
 _symmetry_equiv_pos_as_xyz
  1  'x, y, z'
loop_
 _atom_site_type_symbol
 _atom_site_label
 _atom_site_symmetry_multiplicity
 _atom_site_fract_x
 _atom_site_fract_y
 _atom_site_fract_z
 _atom_site_occupancy
  Mg  Mg0  1  -0.16391218  0.34904779  -0.09457999  1
  Mg  Mg1  1  -0.83608709  0.34904796  -0.09457993  1
  Mg  Mg2  1  -0.16421576  0.68306701  -0.61191566  1
  Mg  Mg3  1  -0.83578366  0.68306712  -0.61191563  1
  Mg  Mg4  1  -0.66381592  0.84935094  -0.10854198  1
  Mg  Mg5  1  -0.33618352  0.84935101  -0.10854203  1
  Mg  Mg6  1  -0.66202197  0.18086778  -0.60431481  1
  Mg  Mg7  1  -0.33797770  0.18086790  -0.60431482  1
  P  P8  1  0.00000139  0.85368582  -0.13176937  1
  P  P9  1  0.00000141  0.17929152  -0.61621113  1
  P  P10  1  -0.50000106  0.35346826  -0.12292403  1
  P  P11  1  -0.50000104  0.67754370  -0.62608327  1
  N  N12  1  -0.99999991  0.12883242  -0.99961624  1
  N  N13  1  -0.99999988  0.90050118  -0.48968384  1
  N  N14  1  -0.85909314  0.71109549  -0.05826262  1
  N  N15  1  -0.14090747  0.71109448  -0.05826215  1
  N  N16  1  -0.85802058  0.31924075  -0.55581658  1
  N  N17  1  -0.14197989  0.31924145  -0.55581614  1
  N  N18  1  -0.35953779  0.21124349  -0.04999550  1
  N  N19  1  -0.64046053  0.21124443  -0.04999609  1
  N  N20  1  -0.35953245  0.81877462  -0.55438303  1
  N  N21  1  -0.64046561  0.81877349  -0.55438354  1
  N  N22  1  -0.49999956  0.62541691  -0.97881252  1
  N  N23  1  -0.49999957  0.40511801  -0.47703757  1
