# generated using pymatgen
data_Mg2PN3
_symmetry_space_group_name_H-M   'P 1'
_cell_length_a   9.76386795
_cell_length_b   5.67809477
_cell_length_c   4.76798360
_cell_angle_alpha   90.36669483
_cell_angle_beta   89.99999896
_cell_angle_gamma   90.00012229
_symmetry_Int_Tables_number   1
_chemical_formula_structural   Mg2PN3
_chemical_formula_sum   'Mg8 P4 N12'
_cell_volume   264.33239580
_cell_formula_units_Z   4
loop_
 _symmetry_equiv_pos_site_id
 _symmetry_equiv_pos_as_xyz
  1  'x, y, z'
loop_
 _atom_site_type_symbol
 _atom_site_label
 _atom_site_symmetry_multiplicity
 _atom_site_fract_x
 _atom_site_fract_y
 _atom_site_fract_z
 _atom_site_occupancy
  Mg  Mg0  1  -0.16349373  0.34950062  0.10657617  1
  Mg  Mg1  1  -0.83650536  0.34950087  0.10657620  1
  Mg  Mg2  1  -0.16346538  0.68165259  0.60935570  1
  Mg  Mg3  1  -0.83653428  0.68165283  0.60935564  1
  Mg  Mg4  1  -0.66337729  0.84943765  0.10843240  1
  Mg  Mg5  1  -0.33662194  0.84943786  0.10843248  1
  Mg  Mg6  1  -0.66312987  0.18140909  0.60737713  1
  Mg  Mg7  1  -0.33686996  0.18140932  0.60737710  1
  P  P8  1  0.00000109  0.85350770  0.12722563  1
  P  P9  1  0.00000121  0.17758840  0.62681161  1
  P  P10  1  -0.50000067  0.35329800  0.12478816  1
  P  P11  1  -0.50000052  0.67748510  0.62578957  1
  N  N12  1  -0.99999992  0.12618512  0.98149032  1
  N  N13  1  -0.99999984  0.90434166  0.48122175  1
  N  N14  1  -0.85903742  0.71193127  0.05443607  1
  N  N15  1  -0.14096322  0.71193025  0.05443568  1
  N  N16  1  -0.85900689  0.31876950  0.55444437  1
  N  N17  1  -0.14099308  0.31876987  0.55444400  1
  N  N18  1  -0.35911195  0.21162894  0.05217661  1
  N  N19  1  -0.64088699  0.21162933  0.05217695  1
  N  N20  1  -0.35915176  0.81882274  0.55351586  1
  N  N21  1  -0.64084652  0.81882178  0.55351622  1
  N  N22  1  -0.49999963  0.62568681  0.97900034  1
  N  N23  1  -0.49999955  0.40482628  0.47843822  1
