# generated using pymatgen
data_Mg2PN3
_symmetry_space_group_name_H-M   'P 1'
_cell_length_a   9.79936154
_cell_length_b   5.69096750
_cell_length_c   4.76819074
_cell_angle_alpha   89.35217096
_cell_angle_beta   90.00000060
_cell_angle_gamma   89.99999931
_symmetry_Int_Tables_number   1
_chemical_formula_structural   Mg2PN3
_chemical_formula_sum   'Mg8 P4 N12'
_cell_volume   265.89473928
_cell_formula_units_Z   4
loop_
 _symmetry_equiv_pos_site_id
 _symmetry_equiv_pos_as_xyz
  1  'x, y, z'
loop_
 _atom_site_type_symbol
 _atom_site_label
 _atom_site_symmetry_multiplicity
 _atom_site_fract_x
 _atom_site_fract_y
 _atom_site_fract_z
 _atom_site_occupancy
  Mg  Mg0  1  -0.16332222  0.34929585  -0.05038352  1
  Mg  Mg1  1  -0.83667728  0.34929583  -0.05038352  1
  Mg  Mg2  1  -0.16382249  0.68140576  -0.56187606  1
  Mg  Mg3  1  -0.83617700  0.68140575  -0.56187604  1
  Mg  Mg4  1  -0.66260404  0.84968362  -0.09818081  1
  Mg  Mg5  1  -0.33739539  0.84968362  -0.09818081  1
  Mg  Mg6  1  -0.66282755  0.18115881  -0.59448127  1
  Mg  Mg7  1  -0.33717186  0.18115879  -0.59448127  1
  P  P8  1  -1.00000019  0.85359068  -0.02070417  1
  P  P9  1  -1.00000002  0.17740652  -0.51921253  1
  P  P10  1  -0.49999942  0.35315144  -0.11958696  1
  P  P11  1  -0.49999939  0.67720983  -0.62147092  1
  N  N12  1  -0.99999967  0.12655028  -0.16448386  1
  N  N13  1  -0.99999967  0.90553880  -0.66263021  1
  N  N14  1  -0.85903032  0.71218248  -0.08738216  1
  N  N15  1  -0.14096868  0.71218285  -0.08738201  1
  N  N16  1  -0.85921520  0.31915984  -0.58997039  1
  N  N17  1  -0.14078398  0.31915962  -0.58997028  1
  N  N18  1  -0.35957760  0.21115426  -0.04816555  1
  N  N19  1  -0.64042214  0.21115404  -0.04816543  1
  N  N20  1  -0.35985146  0.81892941  -0.55058768  1
  N  N21  1  -0.64014832  0.81892966  -0.55058755  1
  N  N22  1  -0.49999978  0.62455373  -0.97428870  1
  N  N23  1  -0.49999977  0.40529208  -0.47332676  1
