# generated using pymatgen
data_Mg2PN3
_symmetry_space_group_name_H-M   'P 1'
_cell_length_a   4.76870337
_cell_length_b   5.70012529
_cell_length_c   9.80992300
_cell_angle_alpha   89.99999095
_cell_angle_beta   90.00000373
_cell_angle_gamma   91.06088177
_symmetry_Int_Tables_number   1
_chemical_formula_structural   Mg2PN3
_chemical_formula_sum   'Mg8 P4 N12'
_cell_volume   266.60964619
_cell_formula_units_Z   4
loop_
 _symmetry_equiv_pos_site_id
 _symmetry_equiv_pos_as_xyz
  1  'x, y, z'
loop_
 _atom_site_type_symbol
 _atom_site_label
 _atom_site_symmetry_multiplicity
 _atom_site_fract_x
 _atom_site_fract_y
 _atom_site_fract_z
 _atom_site_occupancy
  Mg  Mg0  1  0.04837659  0.34744400  0.16425843  1
  Mg  Mg1  1  0.04837661  0.34744398  0.83574117  1
  Mg  Mg2  1  0.58087226  0.68337716  0.16373773  1
  Mg  Mg3  1  0.58087224  0.68337717  0.83626187  1
  Mg  Mg4  1  0.10151829  0.85033040  0.66154980  1
  Mg  Mg5  1  0.10151828  0.85033045  0.33844949  1
  Mg  Mg6  1  0.59372468  0.18146132  0.66334523  1
  Mg  Mg7  1  0.59372466  0.18146128  0.33665407  1
  P  P8  1  0.06751014  0.84813877  0.00000269  1
  P  P9  1  0.51285826  0.17779857  0.00000091  1
  P  P10  1  0.11954803  0.35301753  0.49999848  1
  P  P11  1  0.62232654  0.67711725  0.49999837  1
  N  N12  1  0.14986969  0.13399642  0.99999942  1
  N  N13  1  0.61212294  0.90137554  0.99999943  1
  N  N14  1  0.08269341  0.71076387  0.85704475  1
  N  N15  1  0.08269318  0.71076620  0.14295183  1
  N  N16  1  0.58560471  0.32130847  0.85901811  1
  N  N17  1  0.58560425  0.32130754  0.14098022  1
  N  N18  1  0.04741857  0.21073537  0.35984918  1
  N  N19  1  0.04741808  0.21073444  0.64015151  1
  N  N20  1  0.55231930  0.81883360  0.36006891  1
  N  N21  1  0.55231879  0.81883458  0.63993193  1
  N  N22  1  0.97509920  0.62408006  0.49999997  1
  N  N23  1  0.47336977  0.40519958  0.49999995  1
