# generated using pymatgen
data_Sc2Al34N35O
_symmetry_space_group_name_H-M   'P 1'
_cell_length_a   9.44224241
_cell_length_b   9.43914235
_cell_length_c   10.00953162
_cell_angle_alpha   89.98359021
_cell_angle_beta   90.00000784
_cell_angle_gamma   59.98913604
_symmetry_Int_Tables_number   1
_chemical_formula_structural   Sc2Al34N35O
_chemical_formula_sum   'Sc2 Al34 N35 O1'
_cell_volume   772.51067841
_cell_formula_units_Z   1
loop_
 _symmetry_equiv_pos_site_id
 _symmetry_equiv_pos_as_xyz
  1  'x, y, z'
loop_
 _atom_site_type_symbol
 _atom_site_label
 _atom_site_symmetry_multiplicity
 _atom_site_fract_x
 _atom_site_fract_y
 _atom_site_fract_z
 _atom_site_occupancy
  Al  Al0  1  0.10871230  0.09938821  0.30757259  1
  Al  Al1  1  0.22377301  0.21110725  0.05902428  1
  Al  Al2  1  0.77344641  0.09606637  0.80691971  1
  Al  Al3  1  0.88673793  0.20566966  0.55285771  1
  Al  Al4  1  0.44616321  0.09412055  0.30629351  1
  Al  Al5  1  0.55564844  0.20551591  0.05627036  1
  Al  Al6  1  0.22440525  0.20566967  0.55285771  1
  Al  Al7  1  0.77652905  0.09412056  0.30629350  1
  Al  Al8  1  0.88193252  0.21110725  0.05902428  1
  Al  Al9  1  0.44730005  0.09606640  0.80691972  1
  Al  Al10  1  0.55540581  0.20600120  0.55678060  1
  Al  Al11  1  0.11883982  0.42529736  0.30446145  1
  Al  Al12  1  0.22077634  0.53663927  0.05533255  1
  Al  Al13  1  0.77354674  0.43047944  0.80621419  1
  Al  Al14  1  0.88897504  0.53886275  0.56511473  1
  Al  Al15  1  0.44462504  0.42756273  0.30622121  1
  Al  Al16  1  0.55939724  0.53663926  0.05533256  1
  Al  Al17  1  0.11278667  0.43047944  0.80621419  1
  Al  Al18  1  0.22372313  0.53795488  0.55752910  1
  Al  Al19  1  0.77267568  0.42529737  0.30446145  1
  Al  Al20  1  0.88894832  0.53891619  0.05461046  1
  Al  Al21  1  0.44451981  0.42777320  0.80766668  1
  Al  Al22  1  0.55513482  0.53795486  0.55752911  1
  Al  Al23  1  0.10794685  0.75790383  0.30864690  1
  Al  Al24  1  0.77757296  0.76166690  0.80625205  1
  Al  Al25  1  0.88822975  0.87313327  0.55768542  1
  Al  Al26  1  0.45096218  0.75790383  0.30864693  1
  Al  Al27  1  0.55925320  0.87120331  0.05558409  1
  Al  Al28  1  0.11149923  0.75752555  0.80311745  1
  Al  Al29  1  0.22335686  0.87009912  0.55022501  1
  Al  Al30  1  0.77366637  0.76948014  0.30409201  1
  Al  Al31  1  0.88635637  0.87120331  0.05558409  1
  Al  Al32  1  0.44778807  0.75752553  0.80311745  1
  Al  Al33  1  0.55544982  0.87313327  0.55768543  1
  Sc  Sc34  1  0.10985008  0.09711265  0.80759238  1
  Sc  Sc35  1  0.22451474  0.86778347  0.06850718  1
  N  N36  1  0.22284264  0.20793456  0.36307040  1
  N  N37  1  0.10049046  0.11583187  0.11624687  1
  N  N38  1  0.86806113  0.21642542  0.87057286  1
  N  N39  1  0.77756906  0.09485468  0.61505659  1
  N  N40  1  0.55538390  0.20604504  0.36550967  1
  N  N41  1  0.44630615  0.09303070  0.11628747  1
  N  N42  1  0.23232628  0.21642542  0.87057286  1
  N  N43  1  0.11127291  0.09426705  0.59677353  1
  N  N44  1  0.88603563  0.20793457  0.36307041  1
  N  N45  1  0.77747596  0.09303069  0.11628746  1
  N  N46  1  0.55533655  0.20613976  0.86577290  1
  N  N47  1  0.44438910  0.09485469  0.61505659  1
  N  N48  1  0.22252187  0.53726575  0.36744173  1
  N  N49  1  0.10818857  0.43057861  0.11777861  1
  N  N50  1  0.88918141  0.53845003  0.86319138  1
  N  N51  1  0.77862063  0.42756888  0.61315505  1
  N  N52  1  0.55702524  0.53726574  0.36744173  1
  N  N53  1  0.44400731  0.42879821  0.11472768  1
  N  N54  1  0.22199320  0.53930046  0.86433146  1
  N  N55  1  0.11062334  0.42756889  0.61315504  1
  N  N56  1  0.77804568  0.43057859  0.11777862  1
  N  N57  1  0.55551919  0.53930045  0.86433146  1
  N  N58  1  0.44469636  0.42742011  0.61608344  1
  N  N59  1  0.22308454  0.87064377  0.35478110  1
  N  N60  1  0.09893442  0.74934736  0.12169854  1
  N  N61  1  0.88882171  0.87235102  0.86368565  1
  N  N62  1  0.77833969  0.76013348  0.61407868  1
  N  N63  1  0.55778024  0.87186536  0.36741081  1
  N  N64  1  0.46853115  0.74934734  0.12169856  1
  N  N65  1  0.23149198  0.85382891  0.85958609  1
  N  N66  1  0.11096154  0.76073564  0.61120519  1
  N  N67  1  0.88716727  0.87186538  0.36741079  1
  N  N68  1  0.77874700  0.75931890  0.11611315  1
  N  N69  1  0.55564011  0.87235104  0.86368565  1
  N  N70  1  0.44511567  0.76073564  0.61120519  1
  O  O71  1  0.88875645  0.53929999  0.36672209  1
