# generated using pymatgen
data_Sc2Al34N35O
_symmetry_space_group_name_H-M   'P 1'
_cell_length_a   9.44224004
_cell_length_b   9.43913791
_cell_length_c   10.00952793
_cell_angle_alpha   89.98360013
_cell_angle_beta   90.00000315
_cell_angle_gamma   59.98912740
_symmetry_Int_Tables_number   1
_chemical_formula_structural   Sc2Al34N35O
_chemical_formula_sum   'Sc2 Al34 N35 O1'
_cell_volume   772.50976961
_cell_formula_units_Z   1
loop_
 _symmetry_equiv_pos_site_id
 _symmetry_equiv_pos_as_xyz
  1  'x, y, z'
loop_
 _atom_site_type_symbol
 _atom_site_label
 _atom_site_symmetry_multiplicity
 _atom_site_fract_x
 _atom_site_fract_y
 _atom_site_fract_z
 _atom_site_occupancy
  Al  Al0  1  0.10871988  0.09939412  0.31136251  1
  Al  Al1  1  0.22378277  0.21111024  0.06281523  1
  Al  Al2  1  0.77345572  0.09606854  0.81070391  1
  Al  Al3  1  0.88674822  0.20567165  0.55665400  1
  Al  Al4  1  0.44617151  0.09412347  0.31007857  1
  Al  Al5  1  0.55565782  0.20551822  0.06005202  1
  Al  Al6  1  0.22441404  0.20567168  0.55665401  1
  Al  Al7  1  0.77653888  0.09412350  0.31007857  1
  Al  Al8  1  0.88194084  0.21111023  0.06281520  1
  Al  Al9  1  0.44730967  0.09606857  0.81070393  1
  Al  Al10  1  0.55541496  0.20600397  0.56056199  1
  Al  Al11  1  0.11884847  0.42529929  0.30825179  1
  Al  Al12  1  0.22078555  0.53664128  0.05912034  1
  Al  Al13  1  0.77355644  0.43048119  0.81000271  1
  Al  Al14  1  0.88898440  0.53886511  0.56891100  1
  Al  Al15  1  0.44463431  0.42756525  0.31000478  1
  Al  Al16  1  0.55940707  0.53664127  0.05912036  1
  Al  Al17  1  0.11279627  0.43048120  0.81000270  1
  Al  Al18  1  0.22373231  0.53795858  0.56131723  1
  Al  Al19  1  0.77268616  0.42529929  0.30825179  1
  Al  Al20  1  0.88895752  0.53891884  0.05840099  1
  Al  Al21  1  0.44452933  0.42777524  0.81145094  1
  Al  Al22  1  0.55514302  0.53795855  0.56131722  1
  Al  Al23  1  0.10795469  0.75790530  0.31243979  1
  Al  Al24  1  0.77758217  0.76166956  0.81003854  1
  Al  Al25  1  0.88824026  0.87313561  0.56147384  1
  Al  Al26  1  0.45097390  0.75790530  0.31243980  1
  Al  Al27  1  0.55926340  0.87120518  0.05937185  1
  Al  Al28  1  0.11150967  0.75752772  0.80691569  1
  Al  Al29  1  0.22336602  0.87010185  0.55401536  1
  Al  Al30  1  0.77367627  0.76948138  0.30788255  1
  Al  Al31  1  0.88636534  0.87120518  0.05937185  1
  Al  Al32  1  0.44779654  0.75752768  0.80691570  1
  Al  Al33  1  0.55545802  0.87313561  0.56147386  1
  Sc  Sc34  1  0.10986191  0.09711017  0.81139056  1
  Sc  Sc35  1  0.22452467  0.86778460  0.07231215  1
  N  N36  1  0.22285212  0.20793681  0.36686410  1
  N  N37  1  0.10049835  0.11583718  0.12003686  1
  N  N38  1  0.86806976  0.21642734  0.87436223  1
  N  N39  1  0.77757689  0.09485718  0.61884316  1
  N  N40  1  0.55539311  0.20604766  0.36929300  1
  N  N41  1  0.44631597  0.09303317  0.12007367  1
  N  N42  1  0.23233682  0.21642739  0.87436226  1
  N  N43  1  0.11128291  0.09426813  0.60057026  1
  N  N44  1  0.88604496  0.20793682  0.36686410  1
  N  N45  1  0.77748473  0.09303317  0.12007369  1
  N  N46  1  0.55534606  0.20614181  0.86955649  1
  N  N47  1  0.44439982  0.09485719  0.61884316  1
  N  N48  1  0.22253186  0.53726747  0.37123041  1
  N  N49  1  0.10819813  0.43058079  0.12156874  1
  N  N50  1  0.88919058  0.53845276  0.86698096  1
  N  N51  1  0.77862858  0.42757216  0.61694571  1
  N  N52  1  0.55703458  0.53726746  0.37123038  1
  N  N53  1  0.44401690  0.42880007  0.11851306  1
  N  N54  1  0.22200369  0.53930065  0.86812060  1
  N  N55  1  0.11063317  0.42757217  0.61694570  1
  N  N56  1  0.77805501  0.43058075  0.12156872  1
  N  N57  1  0.55552958  0.53930062  0.86812063  1
  N  N58  1  0.44470598  0.42742195  0.61986885  1
  N  N59  1  0.22309344  0.87064701  0.35856918  1
  N  N60  1  0.09894174  0.74934780  0.12549048  1
  N  N61  1  0.88882990  0.87235384  0.86747459  1
  N  N62  1  0.77834841  0.76013707  0.61786700  1
  N  N63  1  0.55778941  0.87186873  0.37119991  1
  N  N64  1  0.46854438  0.74934780  0.12549049  1
  N  N65  1  0.23150312  0.85382768  0.86339009  1
  N  N66  1  0.11097143  0.76073877  0.61499954  1
  N  N67  1  0.88717578  0.87186873  0.37119992  1
  N  N68  1  0.77875619  0.75932154  0.11990333  1
  N  N69  1  0.55565016  0.87235385  0.86747458  1
  N  N70  1  0.44512373  0.76073874  0.61499952  1
  O  O71  1  0.88876578  0.53930237  0.37051452  1
