# generated using pymatgen
data_Sc2Al34N35O
_symmetry_space_group_name_H-M   'P 1'
_cell_length_a   9.93225270
_cell_length_b   9.92998854
_cell_length_c   8.53651727
_cell_angle_alpha   90.00614526
_cell_angle_beta   90.00000192
_cell_angle_gamma   59.99247619
_symmetry_Int_Tables_number   1
_chemical_formula_structural   Sc2Al34N35O
_chemical_formula_sum   'Sc2 Al34 N35 O1'
_cell_volume   729.07956945
_cell_formula_units_Z   1
loop_
 _symmetry_equiv_pos_site_id
 _symmetry_equiv_pos_as_xyz
  1  'x, y, z'
loop_
 _atom_site_type_symbol
 _atom_site_label
 _atom_site_symmetry_multiplicity
 _atom_site_fract_x
 _atom_site_fract_y
 _atom_site_fract_z
 _atom_site_occupancy
  Al  Al0  1  0.11000150  0.09691270  0.35958606  1
  Al  Al1  1  0.22438502  0.20828810  0.11532960  1
  Al  Al2  1  0.77388566  0.09531601  0.85963329  1
  Al  Al3  1  0.88316182  0.20943372  0.60361617  1
  Al  Al4  1  0.44685806  0.09426743  0.36080387  1
  Al  Al5  1  0.55522423  0.20646682  0.10968651  1
  Al  Al6  1  0.22431994  0.20943387  0.60361634  1
  Al  Al7  1  0.77578984  0.09426734  0.36080383  1
  Al  Al8  1  0.88424277  0.20828795  0.11532980  1
  Al  Al9  1  0.44771364  0.09531600  0.85963329  1
  Al  Al10  1  0.55563698  0.20564125  0.61119026  1
  Al  Al11  1  0.11393160  0.42775740  0.35785156  1
  Al  Al12  1  0.22320536  0.53651241  0.11325313  1
  Al  Al13  1  0.77211079  0.42953615  0.86637319  1
  Al  Al14  1  0.88901832  0.53887847  0.62789173  1
  Al  Al15  1  0.44499031  0.42693449  0.36253079  1
  Al  Al16  1  0.55719758  0.53651241  0.11325322  1
  Al  Al17  1  0.11526815  0.42953610  0.86637311  1
  Al  Al18  1  0.22181101  0.53774515  0.60885259  1
  Al  Al19  1  0.77522631  0.42775716  0.35785158  1
  Al  Al20  1  0.88868488  0.53954538  0.09772580  1
  Al  Al21  1  0.44454035  0.42783444  0.85847789  1
  Al  Al22  1  0.55735916  0.53774492  0.60885255  1
  Al  Al23  1  0.10926265  0.75934085  0.36429346  1
  Al  Al24  1  0.77593738  0.76504070  0.86440401  1
  Al  Al25  1  0.88737738  0.87216400  0.60881231  1
  Al  Al26  1  0.44831208  0.75934079  0.36429342  1
  Al  Al27  1  0.55811185  0.87221441  0.11231392  1
  Al  Al28  1  0.10921943  0.75608388  0.85490903  1
  Al  Al29  1  0.22444784  0.86802015  0.60437017  1
  Al  Al30  1  0.77630530  0.76430484  0.35910928  1
  Al  Al31  1  0.88658935  0.87221438  0.11231391  1
  Al  Al32  1  0.45161244  0.75608388  0.85490914  1
  Al  Al33  1  0.55737415  0.87216389  0.60881233  1
  Sc  Sc34  1  0.10846278  0.09998965  0.85073424  1
  Sc  Sc35  1  0.22502231  0.86687114  0.10657483  1
  N  N36  1  0.22392955  0.20698845  0.35190822  1
  N  N37  1  0.10264299  0.11162940  0.10925775  1
  N  N38  1  0.86803284  0.21700526  0.84418332  1
  N  N39  1  0.77626652  0.09389928  0.59624987  1
  N  N40  1  0.55514514  0.20662533  0.34638416  1
  N  N41  1  0.44513588  0.09356467  0.09987285  1
  N  N42  1  0.23187687  0.21700545  0.84418340  1
  N  N43  1  0.11004503  0.09682528  0.59402050  1
  N  N44  1  0.88599760  0.20698808  0.35190821  1
  N  N45  1  0.77821512  0.09356458  0.09987275  1
  N  N46  1  0.55541621  0.20608361  0.84963612  1
  N  N47  1  0.44674963  0.09389929  0.59624979  1
  N  N48  1  0.22330338  0.53829481  0.34999525  1
  N  N49  1  0.10972570  0.42894816  0.10505243  1
  N  N50  1  0.88923879  0.53843753  0.85607265  1
  N  N51  1  0.78017167  0.43283097  0.58957644  1
  N  N52  1  0.55531719  0.53829450  0.34999532  1
  N  N53  1  0.44393307  0.42904903  0.09741189  1
  N  N54  1  0.22283835  0.53683101  0.84547846  1
  N  N55  1  0.10391233  0.43283131  0.58957640  1
  N  N56  1  0.77824166  0.42894768  0.10505239  1
  N  N57  1  0.55724619  0.53683056  0.84547833  1
  N  N58  1  0.44479271  0.42732970  0.59861274  1
  N  N59  1  0.22350786  0.86989976  0.36120332  1
  N  N60  1  0.10110414  0.75095924  0.09743544  1
  N  N61  1  0.88620952  0.87317324  0.84607256  1
  N  N62  1  0.78092891  0.75505788  0.59280880  1
  N  N63  1  0.55689870  0.87184694  0.34986277  1
  N  N64  1  0.46485212  0.75095893  0.09743542  1
  N  N65  1  0.23098811  0.85493922  0.84430390  1
  N  N66  1  0.10899778  0.75963337  0.59943617  1
  N  N67  1  0.88817006  0.87184694  0.34986262  1
  N  N68  1  0.77839742  0.76012122  0.10246714  1
  N  N69  1  0.55753317  0.87317310  0.84607244  1
  N  N70  1  0.44828441  0.75963302  0.59943615  1
  O  O71  1  0.88837856  0.54015808  0.33579611  1
