# generated using pymatgen
data_Sc2Al34N35O
_symmetry_space_group_name_H-M   'P 1'
_cell_length_a   9.44783044
_cell_length_b   9.44453449
_cell_length_c   9.99519674
_cell_angle_alpha   89.97262337
_cell_angle_beta   89.99998389
_cell_angle_gamma   59.98846228
_symmetry_Int_Tables_number   1
_chemical_formula_structural   Sc2Al34N35O
_chemical_formula_sum   'Sc2 Al34 N35 O1'
_cell_volume   772.29648216
_cell_formula_units_Z   1
loop_
 _symmetry_equiv_pos_site_id
 _symmetry_equiv_pos_as_xyz
  1  'x, y, z'
loop_
 _atom_site_type_symbol
 _atom_site_label
 _atom_site_symmetry_multiplicity
 _atom_site_fract_x
 _atom_site_fract_y
 _atom_site_fract_z
 _atom_site_occupancy
  Al  Al0  1  0.11070057  0.09552616  0.39343646  1
  Al  Al1  1  0.22243057  0.20822158  0.13823003  1
  Al  Al2  1  0.77339802  0.09587192  0.88577763  1
  Al  Al3  1  0.88157457  0.20912133  0.63303508  1
  Al  Al4  1  0.44599351  0.09425745  0.38506474  1
  Al  Al5  1  0.55536067  0.20620602  0.13506864  1
  Al  Al6  1  0.22623138  0.20912131  0.63303506  1
  Al  Al7  1  0.77667633  0.09425748  0.38506475  1
  Al  Al8  1  0.88627524  0.20822157  0.13823002  1
  Al  Al9  1  0.44765744  0.09587189  0.88577762  1
  Al  Al10  1  0.55576481  0.20539763  0.63619409  1
  Al  Al11  1  0.11809309  0.42566907  0.38671600  1
  Al  Al12  1  0.22207417  0.53656160  0.13491589  1
  Al  Al13  1  0.77302195  0.43027387  0.88660261  1
  Al  Al14  1  0.88893686  0.53905357  0.63845910  1
  Al  Al15  1  0.44463368  0.42765991  0.38567539  1
  Al  Al16  1  0.55829155  0.53656159  0.13491588  1
  Al  Al17  1  0.11363156  0.43027384  0.88660261  1
  Al  Al18  1  0.22270306  0.53813102  0.63628855  1
  Al  Al19  1  0.77316522  0.42566907  0.38671599  1
  Al  Al20  1  0.88903073  0.53886592  0.12575538  1
  Al  Al21  1  0.44457233  0.42778260  0.88440206  1
  Al  Al22  1  0.55609314  0.53813101  0.63628853  1
  Al  Al23  1  0.11015045  0.76062613  0.39042760  1
  Al  Al24  1  0.77726915  0.76238895  0.88591467  1
  Al  Al25  1  0.88790557  0.87295802  0.63603040  1
  Al  Al26  1  0.44615076  0.76062609  0.39042757  1
  Al  Al27  1  0.55871448  0.87145008  0.13471507  1
  Al  Al28  1  0.10957516  0.75523169  0.88249545  1
  Al  Al29  1  0.22546710  0.86599304  0.63473199  1
  Al  Al30  1  0.77408991  0.76874754  0.38752883  1
  Al  Al31  1  0.88676279  0.87145005  0.13471507  1
  Al  Al32  1  0.45212039  0.75523165  0.88249544  1
  Al  Al33  1  0.55606369  0.87295801  0.63603038  1
  Sc  Sc34  1  0.10892485  0.09907764  0.87170392  1
  Sc  Sc35  1  0.22356590  0.86979544  0.13290425  1
  N  N36  1  0.22110018  0.20673557  0.33071100  1
  N  N37  1  0.10175199  0.11342344  0.08155828  1
  N  N38  1  0.86444081  0.21804474  0.82046170  1
  N  N39  1  0.77660688  0.09350653  0.57470694  1
  N  N40  1  0.55531363  0.20630010  0.32606925  1
  N  N41  1  0.44428090  0.09438530  0.07848853  1
  N  N42  1  0.23444181  0.21804477  0.82046169  1
  N  N43  1  0.11043190  0.09606344  0.58826365  1
  N  N44  1  0.88909164  0.20673553  0.33071101  1
  N  N45  1  0.77826121  0.09438524  0.07848854  1
  N  N46  1  0.55548293  0.20596154  0.82729026  1
  N  N47  1  0.44681386  0.09350655  0.57470693  1
  N  N48  1  0.22119067  0.54007369  0.32684477  1
  N  N49  1  0.11090262  0.42763190  0.07986298  1
  N  N50  1  0.88933346  0.53826054  0.83007414  1
  N  N51  1  0.77797216  0.43116060  0.57385556  1
  N  N52  1  0.55566302  0.54007362  0.32684480  1
  N  N53  1  0.44419781  0.42853159  0.07712600  1
  N  N54  1  0.22334594  0.53695334  0.82578632  1
  N  N55  1  0.10779455  0.43116060  0.57385555  1
  N  N56  1  0.77839290  0.42763188  0.07986297  1
  N  N57  1  0.55662805  0.53695327  0.82578630  1
  N  N58  1  0.44460676  0.42771365  0.57653206  1
  N  N59  1  0.22211826  0.87269081  0.34442078  1
  N  N60  1  0.10071155  0.75069685  0.07153119  1
  N  N61  1  0.88670690  0.87365875  0.82643330  1
  N  N62  1  0.77893003  0.75906732  0.57573820  1
  N  N63  1  0.55678900  0.87054782  0.32683737  1
  N  N64  1  0.46551880  0.75069693  0.07153121  1
  N  N65  1  0.23305400  0.85081919  0.82668535  1
  N  N66  1  0.10939229  0.75963901  0.57962691  1
  N  N67  1  0.88959059  0.87054782  0.32683736  1
  N  N68  1  0.77827031  0.76038683  0.07853382  1
  N  N69  1  0.55656168  0.87365874  0.82643329  1
  N  N70  1  0.44789592  0.75963902  0.57962692  1
  O  O71  1  0.88873558  0.53945632  0.32483245  1
