# generated using pymatgen
data_Sc2Al34N35O
_symmetry_space_group_name_H-M   'P 1'
_cell_length_a   9.54971569
_cell_length_b   9.54560241
_cell_length_c   9.71613882
_cell_angle_alpha   90.02132573
_cell_angle_beta   90.00004429
_cell_angle_gamma   59.98571502
_symmetry_Int_Tables_number   1
_chemical_formula_structural   Sc2Al34N35O
_chemical_formula_sum   'Sc2 Al34 N35 O1'
_cell_volume   766.92969504
_cell_formula_units_Z   1
loop_
 _symmetry_equiv_pos_site_id
 _symmetry_equiv_pos_as_xyz
  1  'x, y, z'
loop_
 _atom_site_type_symbol
 _atom_site_label
 _atom_site_symmetry_multiplicity
 _atom_site_fract_x
 _atom_site_fract_y
 _atom_site_fract_z
 _atom_site_occupancy
  Al  Al0  1  0.10831148  0.10029196  0.32642328  1
  Al  Al1  1  0.22452929  0.21241538  0.07950734  1
  Al  Al2  1  0.77296637  0.09632404  0.82672809  1
  Al  Al3  1  0.88803807  0.20478619  0.57486613  1
  Al  Al4  1  0.44640167  0.09391167  0.32729708  1
  Al  Al5  1  0.55586440  0.20518612  0.07691991  1
  Al  Al6  1  0.22409064  0.20478627  0.57486614  1
  Al  Al7  1  0.77660159  0.09391167  0.32729704  1
  Al  Al8  1  0.87997026  0.21241531  0.07950731  1
  Al  Al9  1  0.44762452  0.09632410  0.82672806  1
  Al  Al10  1  0.55516706  0.20658088  0.57682764  1
  Al  Al11  1  0.11830002  0.42548022  0.32756543  1
  Al  Al12  1  0.21998458  0.53644014  0.07561012  1
  Al  Al13  1  0.77311394  0.43051657  0.82436700  1
  Al  Al14  1  0.88877622  0.53936249  0.58698733  1
  Al  Al15  1  0.44468497  0.42754495  0.32576418  1
  Al  Al16  1  0.56049014  0.53644019  0.07561014  1
  Al  Al17  1  0.11328442  0.43051659  0.82436701  1
  Al  Al18  1  0.22451358  0.53805405  0.57821823  1
  Al  Al19  1  0.77313466  0.42548021  0.32756541  1
  Al  Al20  1  0.88914508  0.53862465  0.07338826  1
  Al  Al21  1  0.44463691  0.42764115  0.82894064  1
  Al  Al22  1  0.55434731  0.53805399  0.57821820  1
  Al  Al23  1  0.10715027  0.75729416  0.33033324  1
  Al  Al24  1  0.77737418  0.76216658  0.82596553  1
  Al  Al25  1  0.88805958  0.87346831  0.57867587  1
  Al  Al26  1  0.45247051  0.75729417  0.33033327  1
  Al  Al27  1  0.55973660  0.87094060  0.07572882  1
  Al  Al28  1  0.11183580  0.75764303  0.82409351  1
  Al  Al29  1  0.22270621  0.87150259  0.57199444  1
  Al  Al30  1  0.77400066  0.76891358  0.32554332  1
  Al  Al31  1  0.88623769  0.87094049  0.07572883  1
  Al  Al32  1  0.44743616  0.75764302  0.82409351  1
  Al  Al33  1  0.55538711  0.87346834  0.57867588  1
  Sc  Sc34  1  0.11021192  0.09649112  0.83766871  1
  Sc  Sc35  1  0.22584735  0.86522017  0.09519564  1
  N  N36  1  0.22283931  0.20692501  0.37922763  1
  N  N37  1  0.10057716  0.11576073  0.12677762  1
  N  N38  1  0.86557706  0.21802236  0.88540439  1
  N  N39  1  0.77710364  0.09513937  0.63024562  1
  N  N40  1  0.55521603  0.20648285  0.38083225  1
  N  N41  1  0.44657318  0.09278245  0.13233866  1
  N  N42  1  0.23331547  0.21802239  0.88540440  1
  N  N43  1  0.11132324  0.09426864  0.61830748  1
  N  N44  1  0.88715056  0.20692500  0.37922761  1
  N  N45  1  0.77755944  0.09278236  0.13233863  1
  N  N46  1  0.55550200  0.20591092  0.88162039  1
  N  N47  1  0.44467206  0.09513942  0.63024559  1
  N  N48  1  0.22357060  0.53687867  0.38352263  1
  N  N49  1  0.10722199  0.43101407  0.13532310  1
  N  N50  1  0.88938616  0.53814258  0.87664198  1
  N  N51  1  0.77831163  0.42802240  0.62689364  1
  N  N52  1  0.55646562  0.53687869  0.38352260  1
  N  N53  1  0.44390913  0.42909676  0.12947186  1
  N  N54  1  0.22158015  0.53919491  0.87955124  1
  N  N55  1  0.11058100  0.42802244  0.62689364  1
  N  N56  1  0.77867894  0.43101403  0.13532312  1
  N  N57  1  0.55613986  0.53919491  0.87955125  1
  N  N58  1  0.44477805  0.42735895  0.63256481  1
  N  N59  1  0.22277160  0.87137172  0.36878539  1
  N  N60  1  0.09805417  0.74855937  0.13772756  1
  N  N61  1  0.88858746  0.87260018  0.87883158  1
  N  N62  1  0.77826004  0.76039505  0.62936259  1
  N  N63  1  0.55795879  0.87217695  0.38375646  1
  N  N64  1  0.47030145  0.74855944  0.13772756  1
  N  N65  1  0.23257044  0.85177409  0.87859756  1
  N  N66  1  0.11105160  0.76110507  0.62663372  1
  N  N67  1  0.88677917  0.87217694  0.38375644  1
  N  N68  1  0.77917764  0.75855965  0.13213205  1
  N  N69  1  0.55572725  0.87260025  0.87883157  1
  N  N70  1  0.44475847  0.76110505  0.62663372  1
  O  O71  1  0.88854698  0.53982094  0.38497514  1
