# generated using pymatgen
data_Sc2Al34N35O
_symmetry_space_group_name_H-M   'P 1'
_cell_length_a   9.96983278
_cell_length_b   9.96679556
_cell_length_c   8.43037710
_cell_angle_alpha   90.02448699
_cell_angle_beta   89.99999617
_cell_angle_gamma   59.98993286
_symmetry_Int_Tables_number   1
_chemical_formula_structural   Sc2Al34N35O
_chemical_formula_sum   'Sc2 Al34 N35 O1'
_cell_volume   725.39897766
_cell_formula_units_Z   1
loop_
 _symmetry_equiv_pos_site_id
 _symmetry_equiv_pos_as_xyz
  1  'x, y, z'
loop_
 _atom_site_type_symbol
 _atom_site_label
 _atom_site_symmetry_multiplicity
 _atom_site_fract_x
 _atom_site_fract_y
 _atom_site_fract_z
 _atom_site_occupancy
  Al  Al0  1  0.10960740  0.09770063  0.35573667  1
  Al  Al1  1  0.22324098  0.21074763  0.10629651  1
  Al  Al2  1  0.77331352  0.09556444  0.85210652  1
  Al  Al3  1  0.88451610  0.20690064  0.59793316  1
  Al  Al4  1  0.44645007  0.09408033  0.35216200  1
  Al  Al5  1  0.55553439  0.20584625  0.10283361  1
  Al  Al6  1  0.22549831  0.20690092  0.59793323  1
  Al  Al7  1  0.77638464  0.09408006  0.35216202  1
  Al  Al8  1  0.88292685  0.21074718  0.10629662  1
  Al  Al9  1  0.44803705  0.09556463  0.85210656  1
  Al  Al10  1  0.55532646  0.20626199  0.60127862  1
  Al  Al11  1  0.11492724  0.42711060  0.35383672  1
  Al  Al12  1  0.22115277  0.53602219  0.10291416  1
  Al  Al13  1  0.77263192  0.43006555  0.84634481  1
  Al  Al14  1  0.88874563  0.53942305  0.61227005  1
  Al  Al15  1  0.44472361  0.42746732  0.35163136  1
  Al  Al16  1  0.55973989  0.53602195  0.10291416  1
  Al  Al17  1  0.11421690  0.43006592  0.84634478  1
  Al  Al18  1  0.22382769  0.53844599  0.60071458  1
  Al  Al19  1  0.77487691  0.42711008  0.35383669  1
  Al  Al20  1  0.88901033  0.53889375  0.08545663  1
  Al  Al21  1  0.44482401  0.42726652  0.85242326  1
  Al  Al22  1  0.55464105  0.53844591  0.60071458  1
  Al  Al23  1  0.10874675  0.75882115  0.35629929  1
  Al  Al24  1  0.77645857  0.76399796  0.84783254  1
  Al  Al25  1  0.88803166  0.87325762  0.60130856  1
  Al  Al26  1  0.44934752  0.75882103  0.35629911  1
  Al  Al27  1  0.55975800  0.87110166  0.10290927  1
  Al  Al28  1  0.10952018  0.75650058  0.84946017  1
  Al  Al29  1  0.22450106  0.86791340  0.60192281  1
  Al  Al30  1  0.77585850  0.76519809  0.35363575  1
  Al  Al31  1  0.88605572  0.87110149  0.10290925  1
  Al  Al32  1  0.45089466  0.75650048  0.84946037  1
  Al  Al33  1  0.55562569  0.87325769  0.60130856  1
  Sc  Sc34  1  0.10866246  0.09959028  0.85141531  1
  Sc  Sc35  1  0.22499941  0.86691643  0.10683571  1
  N  N36  1  0.22412042  0.20714894  0.35692854  1
  N  N37  1  0.10266526  0.11158489  0.11308892  1
  N  N38  1  0.86858834  0.21664705  0.85572826  1
  N  N39  1  0.77653231  0.09424214  0.60478433  1
  N  N40  1  0.55519344  0.20652814  0.35539972  1
  N  N41  1  0.44576825  0.09324064  0.10765941  1
  N  N42  1  0.23167962  0.21664737  0.85572822  1
  N  N43  1  0.10999197  0.09693131  0.59563042  1
  N  N44  1  0.88564601  0.20714848  0.35692851  1
  N  N45  1  0.77790620  0.09324046  0.10765942  1
  N  N46  1  0.55536359  0.20618798  0.85710180  1
  N  N47  1  0.44614045  0.09424222  0.60478436  1
  N  N48  1  0.22355771  0.53756784  0.35786934  1
  N  N49  1  0.10555141  0.43134719  0.11407304  1
  N  N50  1  0.88921787  0.53847870  0.85273944  1
  N  N51  1  0.77847810  0.43044363  0.60057716  1
  N  N52  1  0.55578927  0.53756768  0.35786929  1
  N  N53  1  0.44399954  0.42891552  0.10571166  1
  N  N54  1  0.22262926  0.53740447  0.85494895  1
  N  N55  1  0.10799262  0.43044394  0.60057717  1
  N  N56  1  0.78001621  0.43134680  0.11407306  1
  N  N57  1  0.55688106  0.53740431  0.85494900  1
  N  N58  1  0.44470215  0.42751035  0.60682285  1
  N  N59  1  0.22358612  0.86974327  0.36395949  1
  N  N60  1  0.10120448  0.75132339  0.10744505  1
  N  N61  1  0.88676771  0.87284364  0.85469789  1
  N  N62  1  0.77914307  0.75862879  0.60273278  1
  N  N63  1  0.55718755  0.87227111  0.35782727  1
  N  N64  1  0.46438755  0.75132323  0.10744499  1
  N  N65  1  0.23086126  0.85519291  0.84642225  1
  N  N66  1  0.10903556  0.75957621  0.60445892  1
  N  N67  1  0.88745662  0.87227091  0.35782732  1
  N  N68  1  0.78029890  0.75631730  0.11122647  1
  N  N69  1  0.55730379  0.87284383  0.85469794  1
  N  N70  1  0.44830358  0.75957601  0.60445896  1
  O  O71  1  0.88844832  0.54001777  0.36427389  1
