# generated using pymatgen
data_Sc2Al34N35O
_symmetry_space_group_name_H-M   'P 1'
_cell_length_a   9.75644972
_cell_length_b   9.75267396
_cell_length_c   9.09276416
_cell_angle_alpha   90.03313936
_cell_angle_beta   90.00002787
_cell_angle_gamma   59.98717190
_symmetry_Int_Tables_number   1
_chemical_formula_structural   Sc2Al34N35O
_chemical_formula_sum   'Sc2 Al34 N35 O1'
_cell_volume   749.17939599
_cell_formula_units_Z   1
loop_
 _symmetry_equiv_pos_site_id
 _symmetry_equiv_pos_as_xyz
  1  'x, y, z'
loop_
 _atom_site_type_symbol
 _atom_site_label
 _atom_site_symmetry_multiplicity
 _atom_site_fract_x
 _atom_site_fract_y
 _atom_site_fract_z
 _atom_site_occupancy
  Al  Al0  1  0.10925328  0.09840857  0.34058855  1
  Al  Al1  1  0.22358582  0.21294064  0.08950395  1
  Al  Al2  1  0.77289342  0.09633635  0.83424849  1
  Al  Al3  1  0.88698536  0.20461052  0.58159472  1
  Al  Al4  1  0.44692412  0.09357874  0.33445763  1
  Al  Al5  1  0.55606430  0.20478644  0.08467881  1
  Al  Al6  1  0.22531895  0.20461058  0.58159476  1
  Al  Al7  1  0.77641223  0.09357860  0.33445758  1
  Al  Al8  1  0.88038863  0.21294056  0.08950397  1
  Al  Al9  1  0.44768507  0.09633646  0.83424844  1
  Al  Al10  1  0.55493013  0.20705469  0.58374389  1
  Al  Al11  1  0.11590735  0.42688854  0.33990012  1
  Al  Al12  1  0.21913335  0.53632915  0.08385562  1
  Al  Al13  1  0.77232665  0.42965589  0.82787092  1
  Al  Al14  1  0.88857451  0.53976566  0.59990740  1
  Al  Al15  1  0.44468682  0.42754129  0.33145509  1
  Al  Al16  1  0.56145222  0.53632912  0.08385566  1
  Al  Al17  1  0.11493210  0.42965599  0.82787089  1
  Al  Al18  1  0.22567524  0.53790874  0.58469001  1
  Al  Al19  1  0.77411904  0.42688842  0.33990008  1
  Al  Al20  1  0.88925059  0.53841361  0.07529389  1
  Al  Al21  1  0.44481194  0.42729102  0.83789717  1
  Al  Al22  1  0.55333079  0.53790876  0.58468996  1
  Al  Al23  1  0.10766192  0.75772195  0.33984366  1
  Al  Al24  1  0.77649858  0.76391794  0.83095526  1
  Al  Al25  1  0.88772122  0.87393340  0.58552981  1
  Al  Al26  1  0.45153127  0.75772196  0.33984353  1
  Al  Al27  1  0.56028075  0.87049684  0.08364727  1
  Al  Al28  1  0.11082148  0.75717314  0.83116280  1
  Al  Al29  1  0.22326724  0.87038074  0.58613643  1
  Al  Al30  1  0.77520525  0.76650463  0.33632679  1
  Al  Al31  1  0.88613741  0.87049670  0.08364725  1
  Al  Al32  1  0.44892051  0.75717318  0.83116293  1
  Al  Al33  1  0.55526043  0.87393339  0.58552979  1
  Sc  Sc34  1  0.10921047  0.09849406  0.84810861  1
  Sc  Sc35  1  0.22573776  0.86543939  0.10272684  1
  N  N36  1  0.22398811  0.20632068  0.37070561  1
  N  N37  1  0.10158244  0.11375026  0.11844632  1
  N  N38  1  0.86578407  0.21836579  0.87658510  1
  N  N39  1  0.77665489  0.09507629  0.62246431  1
  N  N40  1  0.55500282  0.20690940  0.37266745  1
  N  N41  1  0.44667226  0.09252424  0.12447133  1
  N  N42  1  0.23276498  0.21836590  0.87658509  1
  N  N43  1  0.11065659  0.09560179  0.60884372  1
  N  N44  1  0.88660625  0.20632056  0.37070555  1
  N  N45  1  0.77771861  0.09252413  0.12447128  1
  N  N46  1  0.55564193  0.20563104  0.87434132  1
  N  N47  1  0.44518377  0.09507632  0.62246427  1
  N  N48  1  0.22482934  0.53670905  0.37548963  1
  N  N49  1  0.10485102  0.43228073  0.13092215  1
  N  N50  1  0.88951222  0.53789023  0.86290881  1
  N  N51  1  0.77790833  0.42830780  0.61530883  1
  N  N52  1  0.55537648  0.53670911  0.37548956  1
  N  N53  1  0.44391923  0.42907630  0.12017263  1
  N  N54  1  0.22120000  0.53876053  0.87179454  1
  N  N55  1  0.11069861  0.42830787  0.61530885  1
  N  N56  1  0.77978313  0.43228069  0.13092215  1
  N  N57  1  0.55695425  0.53876055  0.87179462  1
  N  N58  1  0.44486559  0.42718374  0.62642735  1
  N  N59  1  0.22318421  0.87054673  0.36581522  1
  N  N60  1  0.09918450  0.74971608  0.12902205  1
  N  N61  1  0.88796190  0.87254712  0.87087195  1
  N  N62  1  0.77809058  0.76073392  0.61979736  1
  N  N63  1  0.55759892  0.87262347  0.37604828  1
  N  N64  1  0.46801444  0.74971611  0.12902194  1
  N  N65  1  0.23177942  0.85335622  0.86443310  1
  N  N66  1  0.11010610  0.76024430  0.61815876  1
  N  N67  1  0.88669269  0.87262343  0.37604833  1
  N  N68  1  0.78020485  0.75650529  0.12619399  1
  N  N69  1  0.55640600  0.87254725  0.87087198  1
  N  N70  1  0.44656480  0.76024425  0.61815886  1
  O  O71  1  0.88816912  0.54057669  0.38247877  1
