# generated using pymatgen
data_Sc2Al34N35O
_symmetry_space_group_name_H-M   'P 1'
_cell_length_a   9.44637039
_cell_length_b   9.44315396
_cell_length_c   9.99884985
_cell_angle_alpha   89.98828802
_cell_angle_beta   90.00000899
_cell_angle_gamma   59.98872962
_symmetry_Int_Tables_number   1
_chemical_formula_structural   Sc2Al34N35O
_chemical_formula_sum   'Sc2 Al34 N35 O1'
_cell_volume   772.34861741
_cell_formula_units_Z   1
loop_
 _symmetry_equiv_pos_site_id
 _symmetry_equiv_pos_as_xyz
  1  'x, y, z'
loop_
 _atom_site_type_symbol
 _atom_site_label
 _atom_site_symmetry_multiplicity
 _atom_site_fract_x
 _atom_site_fract_y
 _atom_site_fract_z
 _atom_site_occupancy
  Al  Al0  1  0.10870836  0.09948491  0.32343983  1
  Al  Al1  1  0.22387279  0.21116956  0.07501457  1
  Al  Al2  1  0.77344636  0.09609435  0.82289825  1
  Al  Al3  1  0.88686802  0.20564105  0.56901210  1
  Al  Al4  1  0.44619477  0.09412715  0.32236387  1
  Al  Al5  1  0.55569534  0.20551092  0.07231109  1
  Al  Al6  1  0.22439259  0.20564109  0.56901211  1
  Al  Al7  1  0.77657968  0.09412718  0.32236388  1
  Al  Al8  1  0.88185923  0.21116956  0.07501456  1
  Al  Al9  1  0.44736096  0.09609437  0.82289828  1
  Al  Al10  1  0.55542318  0.20605526  0.57277479  1
  Al  Al11  1  0.11888003  0.42529059  0.32059409  1
  Al  Al12  1  0.22077634  0.53661822  0.07133628  1
  Al  Al13  1  0.77358282  0.43050303  0.82213396  1
  Al  Al14  1  0.88899357  0.53891454  0.58113258  1
  Al  Al15  1  0.44465821  0.42758521  0.32221356  1
  Al  Al16  1  0.55950712  0.53661821  0.07133628  1
  Al  Al17  1  0.11281585  0.43050302  0.82213398  1
  Al  Al18  1  0.22378316  0.53798886  0.57358999  1
  Al  Al19  1  0.77273106  0.42529060  0.32059410  1
  Al  Al20  1  0.88900044  0.53890075  0.07060303  1
  Al  Al21  1  0.44456432  0.42777302  0.82372368  1
  Al  Al22  1  0.55512963  0.53798882  0.57358997  1
  Al  Al23  1  0.10791757  0.75786698  0.32474114  1
  Al  Al24  1  0.77761040  0.76168086  0.82225798  1
  Al  Al25  1  0.88825676  0.87316631  0.57376193  1
  Al  Al26  1  0.45111712  0.75786697  0.32474115  1
  Al  Al27  1  0.55931591  0.87120395  0.07158558  1
  Al  Al28  1  0.11157539  0.75753441  0.81921375  1
  Al  Al29  1  0.22334252  0.87021660  0.56627481  1
  Al  Al30  1  0.77370213  0.76949742  0.32013887  1
  Al  Al31  1  0.88638186  0.87120395  0.07158558  1
  Al  Al32  1  0.44779190  0.75753437  0.81921375  1
  Al  Al33  1  0.55547857  0.87316631  0.57376194  1
  Sc  Sc34  1  0.10995731  0.09698700  0.82418666  1
  Sc  Sc35  1  0.22465656  0.86758866  0.08498512  1
  N  N36  1  0.22285339  0.20789074  0.37900336  1
  N  N37  1  0.10052144  0.11585875  0.13182954  1
  N  N38  1  0.86794936  0.21652562  0.88639133  1
  N  N39  1  0.77756680  0.09489947  0.63090129  1
  N  N40  1  0.55540758  0.20608644  0.38135887  1
  N  N41  1  0.44635325  0.09302998  0.13218979  1
  N  N42  1  0.23242668  0.21652561  0.88639134  1
  N  N43  1  0.11131969  0.09426234  0.61306389  1
  N  N44  1  0.88615751  0.20789074  0.37900335  1
  N  N45  1  0.77751839  0.09302999  0.13218980  1
  N  N46  1  0.55538072  0.20614026  0.88165891  1
  N  N47  1  0.44443540  0.09489947  0.63090130  1
  N  N48  1  0.22260057  0.53725554  0.38335583  1
  N  N49  1  0.10820682  0.43057569  0.13373066  1
  N  N50  1  0.88922641  0.53844887  0.87901396  1
  N  N51  1  0.77863940  0.42763175  0.62895084  1
  N  N52  1  0.55704556  0.53725552  0.38335582  1
  N  N53  1  0.44403324  0.42883518  0.13056329  1
  N  N54  1  0.22201057  0.53928816  0.88017672  1
  N  N55  1  0.11063053  0.42763177  0.62895086  1
  N  N56  1  0.77811918  0.43057567  0.13373066  1
  N  N57  1  0.55560298  0.53928813  0.88017672  1
  N  N58  1  0.44473034  0.42744097  0.63199109  1
  N  N59  1  0.22309357  0.87071452  0.37050674  1
  N  N60  1  0.09888236  0.74926787  0.13761956  1
  N  N61  1  0.88884642  0.87238205  0.87952931  1
  N  N62  1  0.77837170  0.76015827  0.62995007  1
  N  N63  1  0.55783169  0.87189550  0.38333859  1
  N  N64  1  0.46875155  0.74926785  0.13761959  1
  N  N65  1  0.23163392  0.85363386  0.87582116  1
  N  N66  1  0.11101134  0.76079869  0.62709710  1
  N  N67  1  0.88717447  0.87189552  0.38333858  1
  N  N68  1  0.77879509  0.75931157  0.13198719  1
  N  N69  1  0.55567322  0.87238205  0.87952930  1
  N  N70  1  0.44509164  0.76079867  0.62709709  1
  O  O71  1  0.88878194  0.53933782  0.38267721  1
