# generated using pymatgen
data_Sc2Al34N35O
_symmetry_space_group_name_H-M   'P 1'
_cell_length_a   9.44223257
_cell_length_b   9.43913047
_cell_length_c   10.00954077
_cell_angle_alpha   89.98356576
_cell_angle_beta   90.00000296
_cell_angle_gamma   59.98912895
_symmetry_Int_Tables_number   1
_chemical_formula_structural   Sc2Al34N35O
_chemical_formula_sum   'Sc2 Al34 N35 O1'
_cell_volume   772.50955249
_cell_formula_units_Z   1
loop_
 _symmetry_equiv_pos_site_id
 _symmetry_equiv_pos_as_xyz
  1  'x, y, z'
loop_
 _atom_site_type_symbol
 _atom_site_label
 _atom_site_symmetry_multiplicity
 _atom_site_fract_x
 _atom_site_fract_y
 _atom_site_fract_z
 _atom_site_occupancy
  Al  Al0  1  0.10870171  0.09938891  0.30388529  1
  Al  Al1  1  0.22376433  0.21110574  0.05533843  1
  Al  Al2  1  0.77343731  0.09606456  0.80322566  1
  Al  Al3  1  0.88672965  0.20566722  0.54917390  1
  Al  Al4  1  0.44615358  0.09411839  0.30260041  1
  Al  Al5  1  0.55563944  0.20551345  0.05257367  1
  Al  Al6  1  0.22439549  0.20566724  0.54917390  1
  Al  Al7  1  0.77652036  0.09411841  0.30260042  1
  Al  Al8  1  0.88192223  0.21110575  0.05533842  1
  Al  Al9  1  0.44729051  0.09606459  0.80322568  1
  Al  Al10  1  0.55539634  0.20599967  0.55308388  1
  Al  Al11  1  0.11883022  0.42529526  0.30077149  1
  Al  Al12  1  0.22076655  0.53663760  0.05164014  1
  Al  Al13  1  0.77353830  0.43047638  0.80252257  1
  Al  Al14  1  0.88896597  0.53886043  0.56142849  1
  Al  Al15  1  0.44461564  0.42756106  0.30252564  1
  Al  Al16  1  0.55938820  0.53663761  0.05164014  1
  Al  Al17  1  0.11277768  0.43047639  0.80252257  1
  Al  Al18  1  0.22371423  0.53795349  0.55383981  1
  Al  Al19  1  0.77266688  0.42529526  0.30077149  1
  Al  Al20  1  0.88893900  0.53891434  0.05091966  1
  Al  Al21  1  0.44451088  0.42777057  0.80397358  1
  Al  Al22  1  0.55512463  0.53795348  0.55383980  1
  Al  Al23  1  0.10793633  0.75790082  0.30496305  1
  Al  Al24  1  0.77756383  0.76166469  0.80255842  1
  Al  Al25  1  0.88822142  0.87313114  0.55399630  1
  Al  Al26  1  0.45095521  0.75790083  0.30496304  1
  Al  Al27  1  0.55924438  0.87120064  0.05189178  1
  Al  Al28  1  0.11149108  0.75752368  0.79943571  1
  Al  Al29  1  0.22334728  0.87009779  0.54653866  1
  Al  Al30  1  0.77365745  0.76947748  0.30040143  1
  Al  Al31  1  0.88634735  0.87120063  0.05189178  1
  Al  Al32  1  0.44777760  0.75752365  0.79943572  1
  Al  Al33  1  0.55543979  0.87313115  0.55399631  1
  Sc  Sc34  1  0.10984266  0.09710716  0.80391291  1
  Sc  Sc35  1  0.22450613  0.86778015  0.06483307  1
  N  N36  1  0.22283363  0.20793259  0.35938479  1
  N  N37  1  0.10047997  0.11583236  0.11255983  1
  N  N38  1  0.86805077  0.21642340  0.86688539  1
  N  N39  1  0.77755847  0.09485302  0.61136483  1
  N  N40  1  0.55537448  0.20604338  0.36181472  1
  N  N41  1  0.44629790  0.09302816  0.11259557  1
  N  N42  1  0.23231822  0.21642343  0.86688541  1
  N  N43  1  0.11126398  0.09426442  0.59309230  1
  N  N44  1  0.88602612  0.20793260  0.35938479  1
  N  N45  1  0.77746626  0.09302816  0.11259558  1
  N  N46  1  0.55532767  0.20613705  0.86207843  1
  N  N47  1  0.44438086  0.09485303  0.61136484  1
  N  N48  1  0.22251367  0.53726255  0.36375278  1
  N  N49  1  0.10817920  0.43057712  0.11408909  1
  N  N50  1  0.88917213  0.53844810  0.85950074  1
  N  N51  1  0.77861068  0.42756733  0.60946614  1
  N  N52  1  0.55701614  0.53726255  0.36375276  1
  N  N53  1  0.44399819  0.42879596  0.11103345  1
  N  N54  1  0.22198457  0.53929667  0.86064080  1
  N  N55  1  0.11061435  0.42756733  0.60946617  1
  N  N56  1  0.77803601  0.43057714  0.11408909  1
  N  N57  1  0.55551111  0.53929666  0.86064080  1
  N  N58  1  0.44468764  0.42741707  0.61239173  1
  N  N59  1  0.22307492  0.87064251  0.35109283  1
  N  N60  1  0.09892325  0.74934348  0.11801312  1
  N  N61  1  0.88881155  0.87234926  0.85999483  1
  N  N62  1  0.77833029  0.76013177  0.61038777  1
  N  N63  1  0.55777150  0.87186390  0.36372224  1
  N  N64  1  0.46852564  0.74934348  0.11801310  1
  N  N65  1  0.23148428  0.85382379  0.85591091  1
  N  N66  1  0.11095287  0.76073411  0.60752091  1
  N  N67  1  0.88715697  0.87186390  0.36372224  1
  N  N68  1  0.77873765  0.75931706  0.11242261  1
  N  N69  1  0.55563154  0.87234928  0.85999483  1
  N  N70  1  0.44510538  0.76073411  0.60752091  1
  O  O71  1  0.88874726  0.53929787  0.36303401  1
