# generated using pymatgen
data_Sc2Al34N35O
_symmetry_space_group_name_H-M   'P 1'
_cell_length_a   9.55187986
_cell_length_b   9.54824595
_cell_length_c   9.70650067
_cell_angle_alpha   89.98838371
_cell_angle_beta   89.99995624
_cell_angle_gamma   59.98745059
_symmetry_Int_Tables_number   1
_chemical_formula_structural   Sc2Al34N35O
_chemical_formula_sum   'Sc2 Al34 N35 O1'
_cell_volume   766.56824422
_cell_formula_units_Z   1
loop_
 _symmetry_equiv_pos_site_id
 _symmetry_equiv_pos_as_xyz
  1  'x, y, z'
loop_
 _atom_site_type_symbol
 _atom_site_label
 _atom_site_symmetry_multiplicity
 _atom_site_fract_x
 _atom_site_fract_y
 _atom_site_fract_z
 _atom_site_occupancy
  Al  Al0  1  0.11145213  0.09401111  0.38836611  1
  Al  Al1  1  0.22226091  0.20756918  0.13411450  1
  Al  Al2  1  0.77354797  0.09583869  0.88193939  1
  Al  Al3  1  0.87986322  0.21027743  0.62702353  1
  Al  Al4  1  0.44655763  0.09415063  0.38027305  1
  Al  Al5  1  0.55520506  0.20650535  0.13011662  1
  Al  Al6  1  0.22677477  0.21027744  0.62702355  1
  Al  Al7  1  0.77620709  0.09415065  0.38027306  1
  Al  Al8  1  0.88708533  0.20756919  0.13411452  1
  Al  Al9  1  0.44752864  0.09583867  0.88193939  1
  Al  Al10  1  0.55587669  0.20516201  0.63270251  1
  Al  Al11  1  0.11681782  0.42623228  0.38024351  1
  Al  Al12  1  0.22259976  0.53650265  0.13192366  1
  Al  Al13  1  0.77221674  0.42984378  0.88415472  1
  Al  Al14  1  0.88900559  0.53890427  0.63659855  1
  Al  Al15  1  0.44493579  0.42704379  0.38198995  1
  Al  Al16  1  0.55781301  0.53650266  0.13192369  1
  Al  Al17  1  0.11485487  0.42984375  0.88415472  1
  Al  Al18  1  0.22228657  0.53795433  0.63096223  1
  Al  Al19  1  0.77386530  0.42623230  0.38024349  1
  Al  Al20  1  0.88889033  0.53913488  0.11883995  1
  Al  Al21  1  0.44440615  0.42810305  0.87976968  1
  Al  Al22  1  0.55667453  0.53795435  0.63096219  1
  Al  Al23  1  0.11076078  0.76103548  0.38473870  1
  Al  Al24  1  0.77668164  0.76355205  0.88253036  1
  Al  Al25  1  0.88764933  0.87283429  0.63084671  1
  Al  Al26  1  0.44511915  0.76103546  0.38473869  1
  Al  Al27  1  0.55874199  0.87149187  0.13150149  1
  Al  Al28  1  0.10845465  0.75447359  0.87826054  1
  Al  Al29  1  0.22602034  0.86487473  0.63188050  1
  Al  Al30  1  0.77476246  0.76739046  0.38228577  1
  Al  Al31  1  0.88668156  0.87149185  0.13150149  1
  Al  Al32  1  0.45398714  0.75447355  0.87826053  1
  Al  Al33  1  0.55643180  0.87283433  0.63084670  1
  Sc  Sc34  1  0.10771135  0.10149244  0.86096545  1
  Sc  Sc35  1  0.22322364  0.87046814  0.11959965  1
  N  N36  1  0.22138752  0.20594908  0.33183583  1
  N  N37  1  0.10079106  0.11533324  0.07858588  1
  N  N38  1  0.86266633  0.21912407  0.82023254  1
  N  N39  1  0.77599958  0.09347750  0.57470171  1
  N  N40  1  0.55522544  0.20646461  0.32581013  1
  N  N41  1  0.44418587  0.09409029  0.07942159  1
  N  N42  1  0.23512503  0.21912398  0.82023258  1
  N  N43  1  0.11076439  0.09538656  0.59044104  1
  N  N44  1  0.88957892  0.20594908  0.33183584  1
  N  N45  1  0.77863921  0.09409029  0.07942159  1
  N  N46  1  0.55555681  0.20580179  0.82867464  1
  N  N47  1  0.44743825  0.09347752  0.57470170  1
  N  N48  1  0.22198336  0.53969161  0.32818556  1
  N  N49  1  0.11148438  0.42745092  0.08217826  1
  N  N50  1  0.88945065  0.53801424  0.83370790  1
  N  N51  1  0.77848820  0.43214942  0.57275995  1
  N  N52  1  0.55524057  0.53969160  0.32818559  1
  N  N53  1  0.44397330  0.42896879  0.07727120  1
  N  N54  1  0.22317387  0.53682202  0.82556094  1
  N  N55  1  0.10627780  0.43214938  0.57275999  1
  N  N56  1  0.77798010  0.42745094  0.08217827  1
  N  N57  1  0.55691964  0.53682201  0.82556092  1
  N  N58  1  0.44484935  0.42721667  0.57751518  1
  N  N59  1  0.22214735  0.87262087  0.33976805  1
  N  N60  1  0.09968447  0.74956218  0.07271336  1
  N  N61  1  0.88623050  0.87386840  0.82628107  1
  N  N62  1  0.77958690  0.75774156  0.57572847  1
  N  N63  1  0.55686357  0.87056286  0.32800208  1
  N  N64  1  0.46766872  0.74956217  0.07271336  1
  N  N65  1  0.23300493  0.85090566  0.83196603  1
  N  N66  1  0.10975659  0.76002864  0.57985219  1
  N  N67  1  0.88948914  0.87056285  0.32800208  1
  N  N68  1  0.77792463  0.76106611  0.07978009  1
  N  N69  1  0.55681661  0.87386839  0.82628106  1
  N  N70  1  0.44713014  0.76002867  0.57985218  1
  O  O71  1  0.88858850  0.53973856  0.32231414  1
