# generated using pymatgen
data_Sc2Al34N35O
_symmetry_space_group_name_H-M   'P 1'
_cell_length_a   9.49312999
_cell_length_b   9.48930568
_cell_length_c   9.87413509
_cell_angle_alpha   90.01085593
_cell_angle_beta   90.00003577
_cell_angle_gamma   59.98664786
_symmetry_Int_Tables_number   1
_chemical_formula_structural   Sc2Al34N35O
_chemical_formula_sum   'Sc2 Al34 N35 O1'
_cell_volume   770.22055108
_cell_formula_units_Z   1
loop_
 _symmetry_equiv_pos_site_id
 _symmetry_equiv_pos_as_xyz
  1  'x, y, z'
loop_
 _atom_site_type_symbol
 _atom_site_label
 _atom_site_symmetry_multiplicity
 _atom_site_fract_x
 _atom_site_fract_y
 _atom_site_fract_z
 _atom_site_occupancy
  Al  Al0  1  0.10839605  0.10012282  0.32540058  1
  Al  Al1  1  0.22434823  0.21181758  0.07805651  1
  Al  Al2  1  0.77313804  0.09623804  0.82570737  1
  Al  Al3  1  0.88763905  0.20518957  0.57318455  1
  Al  Al4  1  0.44623512  0.09403915  0.32589830  1
  Al  Al5  1  0.55577713  0.20536064  0.07560802  1
  Al  Al6  1  0.22408633  0.20518963  0.57318456  1
  Al  Al7  1  0.77664065  0.09403917  0.32589827  1
  Al  Al8  1  0.88074908  0.21181755  0.07805649  1
  Al  Al9  1  0.44753889  0.09623809  0.82570736  1
  Al  Al10  1  0.55527520  0.20636460  0.57573519  1
  Al  Al11  1  0.11873727  0.42526373  0.32497100  1
  Al  Al12  1  0.22038007  0.53647502  0.07438892  1
  Al  Al13  1  0.77338881  0.43060903  0.82426555  1
  Al  Al14  1  0.88886269  0.53918961  0.58469172  1
  Al  Al15  1  0.44465769  0.42759953  0.32501052  1
  Al  Al16  1  0.56005985  0.53647505  0.07438893  1
  Al  Al17  1  0.11291715  0.43060904  0.82426556  1
  Al  Al18  1  0.22410037  0.53808654  0.57697636  1
  Al  Al19  1  0.77291395  0.42526373  0.32497100  1
  Al  Al20  1  0.88909238  0.53873013  0.07321166  1
  Al  Al21  1  0.44460256  0.42770986  0.82726416  1
  Al  Al22  1  0.55472808  0.53808649  0.57697634  1
  Al  Al23  1  0.10741246  0.75749840  0.32852716  1
  Al  Al24  1  0.77754026  0.76183444  0.82517674  1
  Al  Al25  1  0.88816729  0.87331956  0.57729393  1
  Al  Al26  1  0.45200407  0.75749842  0.32852719  1
  Al  Al27  1  0.55953335  0.87109978  0.07459206  1
  Al  Al28  1  0.11180848  0.75760673  0.82280446  1
  Al  Al29  1  0.22291889  0.87107721  0.56990358  1
  Al  Al30  1  0.77378193  0.76935108  0.32369131  1
  Al  Al31  1  0.88628183  0.87109971  0.07459206  1
  Al  Al32  1  0.44749979  0.75760670  0.82280445  1
  Al  Al33  1  0.55542814  0.87331958  0.57729394  1
  Sc  Sc34  1  0.11026146  0.09639200  0.83252900  1
  Sc  Sc35  1  0.22542244  0.86607009  0.09173874  1
  N  N36  1  0.22272423  0.20735961  0.38065598  1
  N  N37  1  0.10048227  0.11595046  0.13034266  1
  N  N38  1  0.86652539  0.21739941  0.88721945  1
  N  N39  1  0.77728752  0.09507519  0.63191318  1
  N  N40  1  0.55530144  0.20631206  0.38245043  1
  N  N41  1  0.44646003  0.09291637  0.13370291  1
  N  N42  1  0.23299012  0.21739942  0.88721946  1
  N  N43  1  0.11137069  0.09417373  0.61779990  1
  N  N44  1  0.88683108  0.20735961  0.38065597  1
  N  N45  1  0.77753861  0.09291632  0.13370289  1
  N  N46  1  0.55543836  0.20603826  0.88302632  1
  N  N47  1  0.44455235  0.09507523  0.63191317  1
  N  N48  1  0.22306505  0.53705148  0.38489932  1
  N  N49  1  0.10783732  0.43067908  0.13586211  1
  N  N50  1  0.88930422  0.53830655  0.87948478  1
  N  N51  1  0.77847057  0.42793153  0.62938617  1
  N  N52  1  0.55679841  0.53705149  0.38489930  1
  N  N53  1  0.44394693  0.42902118  0.13142904  1
  N  N54  1  0.22179263  0.53922064  0.88121170  1
  N  N55  1  0.11051297  0.42793156  0.62938618  1
  N  N56  1  0.77839861  0.43067906  0.13586213  1
  N  N57  1  0.55590171  0.53922063  0.88121170  1
  N  N58  1  0.44474138  0.42743230  0.63362342  1
  N  N59  1  0.22286037  0.87119420  0.37064397  1
  N  N60  1  0.09826002  0.74870421  0.13917032  1
  N  N61  1  0.88871746  0.87253961  0.88053934  1
  N  N62  1  0.77832795  0.76025919  0.63112153  1
  N  N63  1  0.55793668  0.87203736  0.38500953  1
  N  N64  1  0.46995083  0.74870423  0.13917035  1
  N  N65  1  0.23231909  0.85227682  0.87947942  1
  N  N66  1  0.11109441  0.76108724  0.62834590  1
  N  N67  1  0.88694089  0.87203738  0.38500952  1
  N  N68  1  0.77894337  0.75902825  0.13336294  1
  N  N69  1  0.55565787  0.87253965  0.88053934  1
  N  N70  1  0.44473345  0.76108722  0.62834589  1
  O  O71  1  0.88867007  0.53957483  0.38503738  1
