# generated using pymatgen
data_Sc2Al34N35O
_symmetry_space_group_name_H-M   'P 1'
_cell_length_a   9.65844172
_cell_length_b   9.65506516
_cell_length_c   9.39054133
_cell_angle_alpha   89.99423960
_cell_angle_beta   89.99996037
_cell_angle_gamma   59.98847383
_symmetry_Int_Tables_number   1
_chemical_formula_structural   Sc2Al34N35O
_chemical_formula_sum   'Sc2 Al34 N35 O1'
_cell_volume   758.28606854
_cell_formula_units_Z   1
loop_
 _symmetry_equiv_pos_site_id
 _symmetry_equiv_pos_as_xyz
  1  'x, y, z'
loop_
 _atom_site_type_symbol
 _atom_site_label
 _atom_site_symmetry_multiplicity
 _atom_site_fract_x
 _atom_site_fract_y
 _atom_site_fract_z
 _atom_site_occupancy
  Al  Al0  1  0.11147818  0.09395905  0.38281762  1
  Al  Al1  1  0.22282710  0.20712419  0.13206694  1
  Al  Al2  1  0.77393692  0.09573250  0.87874337  1
  Al  Al3  1  0.87980152  0.21079003  0.62178240  1
  Al  Al4  1  0.44714881  0.09414963  0.37704067  1
  Al  Al5  1  0.55508525  0.20674497  0.12610695  1
  Al  Al6  1  0.22632384  0.21079007  0.62178247  1
  Al  Al7  1  0.77561690  0.09414960  0.37704065  1
  Al  Al8  1  0.88696408  0.20712424  0.13206699  1
  Al  Al9  1  0.44724577  0.09573252  0.87874336  1
  Al  Al10  1  0.55592617  0.20506310  0.63016201  1
  Al  Al11  1  0.11524239  0.42725435  0.37474293  1
  Al  Al12  1  0.22304691  0.53674479  0.12962112  1
  Al  Al13  1  0.77172265  0.42909902  0.88261761  1
  Al  Al14  1  0.88902587  0.53886377  0.63625869  1
  Al  Al15  1  0.44512016  0.42667509  0.37932262  1
  Al  Al16  1  0.55712382  0.53674476  0.12962119  1
  Al  Al17  1  0.11609359  0.42909903  0.88261764  1
  Al  Al18  1  0.22190249  0.53757674  0.62688466  1
  Al  Al19  1  0.77441871  0.42725437  0.37474295  1
  Al  Al20  1  0.88877955  0.53935645  0.11176760  1
  Al  Al21  1  0.44431080  0.42829378  0.87609251  1
  Al  Al22  1  0.55743625  0.53757677  0.62688459  1
  Al  Al23  1  0.11059019  0.76082960  0.38159318  1
  Al  Al24  1  0.77598663  0.76494209  0.88047641  1
  Al  Al25  1  0.88714195  0.87270681  0.62693153  1
  Al  Al26  1  0.44549565  0.76082962  0.38159314  1
  Al  Al27  1  0.55833943  0.87167573  0.12902073  1
  Al  Al28  1  0.10824834  0.75447631  0.87400702  1
  Al  Al29  1  0.22571863  0.86547820  0.62630670  1
  Al  Al30  1  0.77550096  0.76591351  0.37745736  1
  Al  Al31  1  0.88690029  0.87167572  0.12902072  1
  Al  Al32  1  0.45419074  0.75447625  0.87400705  1
  Al  Al33  1  0.55706668  0.87270683  0.62693151  1
  Sc  Sc34  1  0.10751270  0.10188968  0.85637945  1
  Sc  Sc35  1  0.22368043  0.86955456  0.11337297  1
  N  N36  1  0.22211547  0.20584825  0.33642619  1
  N  N37  1  0.10105705  0.11480118  0.08403694  1
  N  N38  1  0.86329440  0.21903695  0.82327413  1
  N  N39  1  0.77559841  0.09355060  0.57807926  1
  N  N40  1  0.55511424  0.20668699  0.32843695  1
  N  N41  1  0.44411111  0.09392965  0.08302124  1
  N  N42  1  0.23458394  0.21903691  0.82327420  1
  N  N43  1  0.11067363  0.09556808  0.59229527  1
  N  N44  1  0.88895177  0.20584824  0.33642623  1
  N  N45  1  0.77887458  0.09392965  0.08302125  1
  N  N46  1  0.55559745  0.20572047  0.83295350  1
  N  N47  1  0.44776628  0.09355065  0.57807929  1
  N  N48  1  0.22256651  0.53959661  0.33234640  1
  N  N49  1  0.11194178  0.42724688  0.08758597  1
  N  N50  1  0.88944563  0.53802417  0.84095725  1
  N  N51  1  0.77913103  0.43302175  0.57462585  1
  N  N52  1  0.55475247  0.53959658  0.33234646  1
  N  N53  1  0.44379379  0.42932783  0.08026875  1
  N  N54  1  0.22310005  0.53649365  0.82845707  1
  N  N55  1  0.10476266  0.43302174  0.57462587  1
  N  N56  1  0.77772673  0.42724689  0.08758596  1
  N  N57  1  0.55732177  0.53649364  0.82845701  1
  N  N58  1  0.44500763  0.42690013  0.58142176  1
  N  N59  1  0.22253149  0.87185258  0.34329940  1
  N  N60  1  0.09959791  0.74941846  0.07642332  1
  N  N61  1  0.88583487  0.87395967  0.82923472  1
  N  N62  1  0.78022631  0.75646278  0.57820581  1
  N  N63  1  0.55670068  0.87080930  0.33200423  1
  N  N64  1  0.46789898  0.74941845  0.07642338  1
  N  N65  1  0.23252522  0.85186510  0.83650107  1
  N  N66  1  0.10951951  0.75999442  0.58377287  1
  N  N67  1  0.88940562  0.87080927  0.33200421  1
  N  N68  1  0.77762289  0.76166961  0.08436899  1
  N  N69  1  0.55712096  0.87395965  0.82923471  1
  N  N70  1  0.44740144  0.75999444  0.58377283  1
  O  O71  1  0.88839868  0.54011821  0.32267847  1
