# generated using pymatgen
data_Sc2Al34N35O
_symmetry_space_group_name_H-M   'P 1'
_cell_length_a   9.93099620
_cell_length_b   9.92806547
_cell_length_c   8.54236418
_cell_angle_alpha   90.02859749
_cell_angle_beta   89.99999992
_cell_angle_gamma   59.99022049
_symmetry_Int_Tables_number   1
_chemical_formula_structural   Sc2Al34N35O
_chemical_formula_sum   'Sc2 Al34 N35 O1'
_cell_volume   729.32866702
_cell_formula_units_Z   1
loop_
 _symmetry_equiv_pos_site_id
 _symmetry_equiv_pos_as_xyz
  1  'x, y, z'
loop_
 _atom_site_type_symbol
 _atom_site_label
 _atom_site_symmetry_multiplicity
 _atom_site_fract_x
 _atom_site_fract_y
 _atom_site_fract_z
 _atom_site_occupancy
  Al  Al0  1  0.10975259  0.09741020  0.35418710  1
  Al  Al1  1  0.22289370  0.21156762  0.10320563  1
  Al  Al2  1  0.77319088  0.09576975  0.84780482  1
  Al  Al3  1  0.88517719  0.20603019  0.59394953  1
  Al  Al4  1  0.44655233  0.09388778  0.34763975  1
  Al  Al5  1  0.55572715  0.20546063  0.09829429  1
  Al  Al6  1  0.22570760  0.20603031  0.59394960  1
  Al  Al7  1  0.77647488  0.09388758  0.34763982  1
  Al  Al8  1  0.88245395  0.21156733  0.10320573  1
  Al  Al9  1  0.44795436  0.09576984  0.84780487  1
  Al  Al10  1  0.55515672  0.20660138  0.59658335  1
  Al  Al11  1  0.11478202  0.42725729  0.35177574  1
  Al  Al12  1  0.22029211  0.53594812  0.09825311  1
  Al  Al13  1  0.77243950  0.42988664  0.83968303  1
  Al  Al14  1  0.88865957  0.53959518  0.60941556  1
  Al  Al15  1  0.44467139  0.42757195  0.34579623  1
  Al  Al16  1  0.56067449  0.53594798  0.09825313  1
  Al  Al17  1  0.11458834  0.42988681  0.83968294  1
  Al  Al18  1  0.22465849  0.53837527  0.59640947  1
  Al  Al19  1  0.77487546  0.42725695  0.35177564  1
  Al  Al20  1  0.88911875  0.53867683  0.08139129  1
  Al  Al21  1  0.44486633  0.42718205  0.84919497  1
  Al  Al22  1  0.55388098  0.53837530  0.59640945  1
  Al  Al23  1  0.10866500  0.75869389  0.35292299  1
  Al  Al24  1  0.77634384  0.76422736  0.84213195  1
  Al  Al25  1  0.88802388  0.87360754  0.59724125  1
  Al  Al26  1  0.44955653  0.75869382  0.35292277  1
  Al  Al27  1  0.56023177  0.87075433  0.09836162  1
  Al  Al28  1  0.10970334  0.75665939  0.84535025  1
  Al  Al29  1  0.22428388  0.86834770  0.60031177  1
  Al  Al30  1  0.77591351  0.76508797  0.35057445  1
  Al  Al31  1  0.88592910  0.87075416  0.09836160  1
  Al  Al32  1  0.45055271  0.75665930  0.84535051  1
  Al  Al33  1  0.55528345  0.87360758  0.59724122  1
  Sc  Sc34  1  0.10860395  0.09970718  0.85150055  1
  Sc  Sc35  1  0.22507580  0.86676398  0.10650471  1
  N  N36  1  0.22415543  0.20678144  0.35967736  1
  N  N37  1  0.10251403  0.11188734  0.11373152  1
  N  N38  1  0.86806202  0.21715671  0.86080779  1
  N  N39  1  0.77650152  0.09451779  0.60918271  1
  N  N40  1  0.55510932  0.20669625  0.35955002  1
  N  N41  1  0.44596623  0.09300415  0.11170372  1
  N  N42  1  0.23169618  0.21715686  0.86080776  1
  N  N43  1  0.11013984  0.09663544  0.59747747  1
  N  N44  1  0.88597833  0.20678117  0.35967730  1
  N  N45  1  0.77794461  0.09300408  0.11170370  1
  N  N46  1  0.55544907  0.20601687  0.86163578  1
  N  N47  1  0.44589565  0.09451778  0.60918274  1
  N  N48  1  0.22405145  0.53731577  0.36218326  1
  N  N49  1  0.10456661  0.43197554  0.11938607  1
  N  N50  1  0.88932085  0.53827274  0.85306432  1
  N  N51  1  0.77816478  0.42968739  0.60334928  1
  N  N52  1  0.55554756  0.53731579  0.36218306  1
  N  N53  1  0.44395933  0.42899607  0.10891930  1
  N  N54  1  0.22210959  0.53773111  0.85918414  1
  N  N55  1  0.10906231  0.42968759  0.60334926  1
  N  N56  1  0.78037248  0.43197537  0.11938601  1
  N  N57  1  0.55707405  0.53773107  0.85918432  1
  N  N58  1  0.44477102  0.42737285  0.61221948  1
  N  N59  1  0.22349865  0.86991821  0.36430148  1
  N  N60  1  0.10091076  0.75112688  0.11258264  1
  N  N61  1  0.88702510  0.87267894  0.85854753  1
  N  N62  1  0.77870618  0.75950252  0.60635636  1
  N  N63  1  0.55722148  0.87241607  0.36230882  1
  N  N64  1  0.46487794  0.75112668  0.11258252  1
  N  N65  1  0.23092932  0.85505675  0.84870050  1
  N  N66  1  0.10925388  0.75966323  0.60716129  1
  N  N67  1  0.88727752  0.87241592  0.36230899  1
  N  N68  1  0.78064572  0.75562336  0.11560954  1
  N  N69  1  0.55721098  0.87267906  0.85854773  1
  N  N70  1  0.44799825  0.75966305  0.60716139  1
  O  O71  1  0.88832496  0.54026451  0.37178044  1
