# generated using pymatgen
data_Sc2Al34N35O
_symmetry_space_group_name_H-M   'P 1'
_cell_length_a   9.89175107
_cell_length_b   9.88941059
_cell_length_c   8.66099631
_cell_angle_alpha   90.00394923
_cell_angle_beta   89.99999512
_cell_angle_gamma   59.99219448
_symmetry_Int_Tables_number   1
_chemical_formula_structural   Sc2Al34N35O
_chemical_formula_sum   'Sc2 Al34 N35 O1'
_cell_volume   733.68207166
_cell_formula_units_Z   1
loop_
 _symmetry_equiv_pos_site_id
 _symmetry_equiv_pos_as_xyz
  1  'x, y, z'
loop_
 _atom_site_type_symbol
 _atom_site_label
 _atom_site_symmetry_multiplicity
 _atom_site_fract_x
 _atom_site_fract_y
 _atom_site_fract_z
 _atom_site_occupancy
  Al  Al0  1  0.11030066  0.09631426  0.36256412  1
  Al  Al1  1  0.22435712  0.20780415  0.11978863  1
  Al  Al2  1  0.77413702  0.09530148  0.86411855  1
  Al  Al3  1  0.88254526  0.20994023  0.60635597  1
  Al  Al4  1  0.44717908  0.09428708  0.36466146  1
  Al  Al5  1  0.55511673  0.20668185  0.11295087  1
  Al  Al6  1  0.22442999  0.20994032  0.60635610  1
  Al  Al7  1  0.77544917  0.09428699  0.36466141  1
  Al  Al8  1  0.88475445  0.20780405  0.11978877  1
  Al  Al9  1  0.44747678  0.09530150  0.86411853  1
  Al  Al10  1  0.55575974  0.20539576  0.61635065  1
  Al  Al11  1  0.11364249  0.42804430  0.36026319  1
  Al  Al12  1  0.22345609  0.53668439  0.11746625  1
  Al  Al13  1  0.77182978  0.42917517  0.87097690  1
  Al  Al14  1  0.88903873  0.53883773  0.63033223  1
  Al  Al15  1  0.44512271  0.42666974  0.36688945  1
  Al  Al16  1  0.55677495  0.53668431  0.11746638  1
  Al  Al17  1  0.11591016  0.42917519  0.87097687  1
  Al  Al18  1  0.22157811  0.53750113  0.61256259  1
  Al  Al19  1  0.77522860  0.42804416  0.36026321  1
  Al  Al20  1  0.88865379  0.53960764  0.09906104  1
  Al  Al21  1  0.44440556  0.42810410  0.86214177  1
  Al  Al22  1  0.55783612  0.53750094  0.61256251  1
  Al  Al23  1  0.10949245  0.75958225  0.36854136  1
  Al  Al24  1  0.77568670  0.76554216  0.86878382  1
  Al  Al25  1  0.88706398  0.87220892  0.61263313  1
  Al  Al26  1  0.44784081  0.75958224  0.36854134  1
  Al  Al27  1  0.55791216  0.87218835  0.11654591  1
  Al  Al28  1  0.10903406  0.75582051  0.85829779  1
  Al  Al29  1  0.22446356  0.86798865  0.60667185  1
  Al  Al30  1  0.77640312  0.76410926  0.36220834  1
  Al  Al31  1  0.88681506  0.87218840  0.11654589  1
  Al  Al32  1  0.45206110  0.75582047  0.85829784  1
  Al  Al33  1  0.55764264  0.87220879  0.61263313  1
  Sc  Sc34  1  0.10827960  0.10035613  0.85099779  1
  Sc  Sc35  1  0.22496826  0.86697928  0.10690389  1
  N  N36  1  0.22382478  0.20671527  0.34949358  1
  N  N37  1  0.10248073  0.11195407  0.10607150  1
  N  N38  1  0.86728814  0.21743363  0.83902599  1
  N  N39  1  0.77592921  0.09384751  0.59211057  1
  N  N40  1  0.55508665  0.20674209  0.34162782  1
  N  N41  1  0.44480708  0.09360143  0.09603977  1
  N  N42  1  0.23219348  0.21743368  0.83902606  1
  N  N43  1  0.11014030  0.09663486  0.59371985  1
  N  N44  1  0.88637552  0.20671508  0.34949363  1
  N  N45  1  0.77850687  0.09360149  0.09603983  1
  N  N46  1  0.55548306  0.20594935  0.84635934  1
  N  N47  1  0.44713858  0.09384745  0.59211063  1
  N  N48  1  0.22332524  0.53866148  0.34641363  1
  N  N49  1  0.11048864  0.42840768  0.10238083  1
  N  N50  1  0.88929102  0.53833319  0.85491545  1
  N  N51  1  0.78020425  0.43326096  0.58549330  1
  N  N52  1  0.55492867  0.53866136  0.34641368  1
  N  N53  1  0.44381957  0.42927613  0.09314530  1
  N  N54  1  0.22283627  0.53658321  0.84131559  1
  N  N55  1  0.10344994  0.43326108  0.58549334  1
  N  N56  1  0.77801906  0.42840751  0.10238086  1
  N  N57  1  0.55749585  0.53658312  0.84131550  1
  N  N58  1  0.44493132  0.42705245  0.59506845  1
  N  N59  1  0.22342744  0.87006071  0.35903152  1
  N  N60  1  0.10084127  0.75060902  0.09237793  1
  N  N61  1  0.88593017  0.87336669  0.84205384  1
  N  N62  1  0.78103266  0.75485018  0.58904030  1
  N  N63  1  0.55671259  0.87166527  0.34608513  1
  N  N64  1  0.46546534  0.75060883  0.09237793  1
  N  N65  1  0.23115021  0.85461526  0.84345439  1
  N  N66  1  0.10901997  0.75970729  0.59672535  1
  N  N67  1  0.88853773  0.87166524  0.34608512  1
  N  N68  1  0.77809124  0.76073314  0.09924210  1
  N  N69  1  0.55761880  0.87336666  0.84205381  1
  N  N70  1  0.44818832  0.75970707  0.59672531  1
  O  O71  1  0.88831677  0.54028182  0.33157425  1
