# generated using pymatgen
data_Sc2Al34N35O
_symmetry_space_group_name_H-M   'P 1'
_cell_length_a   9.44317504
_cell_length_b   9.43988791
_cell_length_c   10.00753270
_cell_angle_alpha   89.96852282
_cell_angle_beta   89.99999751
_cell_angle_gamma   59.98847916
_symmetry_Int_Tables_number   1
_chemical_formula_structural   Sc2Al34N35O
_chemical_formula_sum   'Sc2 Al34 N35 O1'
_cell_volume   772.48847707
_cell_formula_units_Z   1
loop_
 _symmetry_equiv_pos_site_id
 _symmetry_equiv_pos_as_xyz
  1  'x, y, z'
loop_
 _atom_site_type_symbol
 _atom_site_label
 _atom_site_symmetry_multiplicity
 _atom_site_fract_x
 _atom_site_fract_y
 _atom_site_fract_z
 _atom_site_occupancy
  Al  Al0  1  0.11068583  0.09566582  0.41331361  1
  Al  Al1  1  0.22252432  0.20824680  0.15817803  1
  Al  Al2  1  0.77345639  0.09588408  0.90562984  1
  Al  Al3  1  0.88177535  0.20905768  0.65299650  1
  Al  Al4  1  0.44601444  0.09429515  0.40500397  1
  Al  Al5  1  0.55541762  0.20620226  0.15498174  1
  Al  Al6  1  0.22620443  0.20905760  0.65299648  1
  Al  Al7  1  0.77672788  0.09429521  0.40500398  1
  Al  Al8  1  0.88626640  0.20824681  0.15817804  1
  Al  Al9  1  0.44769710  0.09588405  0.90562983  1
  Al  Al10  1  0.55579896  0.20543949  0.65604366  1
  Al  Al11  1  0.11817365  0.42569681  0.40670787  1
  Al  Al12  1  0.22208530  0.53658278  0.15471677  1
  Al  Al13  1  0.77314151  0.43026479  0.90639514  1
  Al  Al14  1  0.88897204  0.53909339  0.65825213  1
  Al  Al15  1  0.44465390  0.42772969  0.40552182  1
  Al  Al16  1  0.55836940  0.53658279  0.15471678  1
  Al  Al17  1  0.11363130  0.43026475  0.90639512  1
  Al  Al18  1  0.22277125  0.53813880  0.65623278  1
  Al  Al19  1  0.77316716  0.42569682  0.40670787  1
  Al  Al20  1  0.88909154  0.53885451  0.14570199  1
  Al  Al21  1  0.44463519  0.42776707  0.90431025  1
  Al  Al22  1  0.55612736  0.53813880  0.65623280  1
  Al  Al23  1  0.11012947  0.76061077  0.41044738  1
  Al  Al24  1  0.77733814  0.76236112  0.90577665  1
  Al  Al25  1  0.88794035  0.87298613  0.65597096  1
  Al  Al26  1  0.44629735  0.76061069  0.41044737  1
  Al  Al27  1  0.55873667  0.87146803  0.15453366  1
  Al  Al28  1  0.10970798  0.75528583  0.90232223  1
  Al  Al29  1  0.22545562  0.86612619  0.65443195  1
  Al  Al30  1  0.77410376  0.76883007  0.40742243  1
  Al  Al31  1  0.88683280  0.87146800  0.15453364  1
  Al  Al32  1  0.45204356  0.75528581  0.90232226  1
  Al  Al33  1  0.55611097  0.87298611  0.65597096  1
  Sc  Sc34  1  0.10908903  0.09885950  0.89214006  1
  Sc  Sc35  1  0.22370313  0.86963114  0.15342550  1
  N  N36  1  0.22114814  0.20682956  0.35042794  1
  N  N37  1  0.10192209  0.11319334  0.10170542  1
  N  N38  1  0.86471052  0.21793329  0.84022106  1
  N  N39  1  0.77668206  0.09353892  0.59446419  1
  N  N40  1  0.55535616  0.20632519  0.34581123  1
  N  N41  1  0.44432918  0.09442165  0.09816549  1
  N  N42  1  0.23439374  0.21793325  0.84022103  1
  N  N43  1  0.11044669  0.09614403  0.60777316  1
  N  N44  1  0.88905984  0.20682956  0.35042795  1
  N  N45  1  0.77828670  0.09442163  0.09816551  1
  N  N46  1  0.55552649  0.20598452  0.84695656  1
  N  N47  1  0.44681648  0.09353888  0.59446418  1
  N  N48  1  0.22117834  0.54014130  0.34650147  1
  N  N49  1  0.11093470  0.42761889  0.09948348  1
  N  N50  1  0.88936856  0.53830046  0.84966472  1
  N  N51  1  0.77800291  0.43113481  0.59364529  1
  N  N52  1  0.55571795  0.54014124  0.34650148  1
  N  N53  1  0.44425499  0.42852750  0.09685029  1
  N  N54  1  0.22341518  0.53693862  0.84553255  1
  N  N55  1  0.10789978  0.43113476  0.59364529  1
  N  N56  1  0.77848395  0.42761892  0.09948352  1
  N  N57  1  0.55668370  0.53693860  0.84553259  1
  N  N58  1  0.44463418  0.42776909  0.59620729  1
  N  N59  1  0.22217833  0.87268090  0.36457465  1
  N  N60  1  0.10083482  0.75078997  0.09117007  1
  N  N61  1  0.88677298  0.87366114  0.84617549  1
  N  N62  1  0.77894188  0.75915372  0.59544223  1
  N  N63  1  0.55680752  0.87058928  0.34650772  1
  N  N64  1  0.46541267  0.75079000  0.09117011  1
  N  N65  1  0.23309047  0.85085645  0.84605476  1
  N  N66  1  0.10938921  0.75962255  0.59938774  1
  N  N67  1  0.88964073  0.87058932  0.34650771  1
  N  N68  1  0.77833166  0.76037417  0.09822208  1
  N  N69  1  0.55660329  0.87366111  0.84617550  1
  N  N70  1  0.44802570  0.75962254  0.59938776  1
  O  O71  1  0.88878118  0.53947530  0.34466243  1
