# generated using pymatgen
data_Sc2Al34N35O
_symmetry_space_group_name_H-M   'P 1'
_cell_length_a   9.44226031
_cell_length_b   9.43915521
_cell_length_c   10.00948461
_cell_angle_alpha   89.98364228
_cell_angle_beta   90.00000200
_cell_angle_gamma   59.98911768
_symmetry_Int_Tables_number   1
_chemical_formula_structural   Sc2Al34N35O
_chemical_formula_sum   'Sc2 Al34 N35 O1'
_cell_volume   772.50942469
_cell_formula_units_Z   1
loop_
 _symmetry_equiv_pos_site_id
 _symmetry_equiv_pos_as_xyz
  1  'x, y, z'
loop_
 _atom_site_type_symbol
 _atom_site_label
 _atom_site_symmetry_multiplicity
 _atom_site_fract_x
 _atom_site_fract_y
 _atom_site_fract_z
 _atom_site_occupancy
  Al  Al0  1  0.10873110  0.09939351  0.31528752  1
  Al  Al1  1  0.22379290  0.21111177  0.06674068  1
  Al  Al2  1  0.77346536  0.09607147  0.81463462  1
  Al  Al3  1  0.88675812  0.20567404  0.56057399  1
  Al  Al4  1  0.44618243  0.09412502  0.31400924  1
  Al  Al5  1  0.55566776  0.20552016  0.06398551  1
  Al  Al6  1  0.22442359  0.20567406  0.56057399  1
  Al  Al7  1  0.77654825  0.09412504  0.31400925  1
  Al  Al8  1  0.88195100  0.21111176  0.06674068  1
  Al  Al9  1  0.44731892  0.09607149  0.81463464  1
  Al  Al10  1  0.55542445  0.20600681  0.56449543  1
  Al  Al11  1  0.11885910  0.42530214  0.31217636  1
  Al  Al12  1  0.22079476  0.53664359  0.06304625  1
  Al  Al13  1  0.77356701  0.43048318  0.81392712  1
  Al  Al14  1  0.88899383  0.53886809  0.57282709  1
  Al  Al15  1  0.44464378  0.42756816  0.31393555  1
  Al  Al16  1  0.55941741  0.53664358  0.06304626  1
  Al  Al17  1  0.11280557  0.43048318  0.81392713  1
  Al  Al18  1  0.22374254  0.53795971  0.56524588  1
  Al  Al19  1  0.77269453  0.42530215  0.31217636  1
  Al  Al20  1  0.88896770  0.53892032  0.06232349  1
  Al  Al21  1  0.44453925  0.42777724  0.81538294  1
  Al  Al22  1  0.55515347  0.53795969  0.56524587  1
  Al  Al23  1  0.10796485  0.75790783  0.31636481  1
  Al  Al24  1  0.77759236  0.76167101  0.81396585  1
  Al  Al25  1  0.88824843  0.87313855  0.56540245  1
  Al  Al26  1  0.45098306  0.75790783  0.31636482  1
  Al  Al27  1  0.55927244  0.87120759  0.06329779  1
  Al  Al28  1  0.11151918  0.75752975  0.81083401  1
  Al  Al29  1  0.22337534  0.87010504  0.55794193  1
  Al  Al30  1  0.77368504  0.76948570  0.31180551  1
  Al  Al31  1  0.88637576  0.87120759  0.06329780  1
  Al  Al32  1  0.44780684  0.75752971  0.81083401  1
  Al  Al33  1  0.55546875  0.87313855  0.56540246  1
  Sc  Sc34  1  0.10987072  0.09711434  0.81531502  1
  Sc  Sc35  1  0.22453545  0.86778489  0.07622960  1
  N  N36  1  0.22286133  0.20793900  0.37078510  1
  N  N37  1  0.10050986  0.11583597  0.12395965  1
  N  N38  1  0.86807943  0.21643049  0.87828741  1
  N  N39  1  0.77758745  0.09486045  0.62277094  1
  N  N40  1  0.55540261  0.20605048  0.37322354  1
  N  N41  1  0.44632581  0.09303476  0.12400199  1
  N  N42  1  0.23234581  0.21643049  0.87828742  1
  N  N43  1  0.11129201  0.09427175  0.60449318  1
  N  N44  1  0.88605538  0.20793901  0.37078510  1
  N  N45  1  0.77749512  0.09303477  0.12400200  1
  N  N46  1  0.55535599  0.20614378  0.87348722  1
  N  N47  1  0.44440783  0.09486045  0.62277096  1
  N  N48  1  0.22254140  0.53726987  0.37515725  1
  N  N49  1  0.10820746  0.43058306  0.12549243  1
  N  N50  1  0.88920076  0.53845423  0.87090386  1
  N  N51  1  0.77863993  0.42757413  0.62086777  1
  N  N52  1  0.55704448  0.53726986  0.37515724  1
  N  N53  1  0.44402614  0.42880344  0.12244063  1
  N  N54  1  0.22201189  0.53930410  0.87204445  1
  N  N55  1  0.11064169  0.42757413  0.62086778  1
  N  N56  1  0.77806522  0.43058305  0.12549243  1
  N  N57  1  0.55553978  0.53930407  0.87204445  1
  N  N58  1  0.44471539  0.42742494  0.62379890  1
  N  N59  1  0.22310348  0.87064878  0.36249509  1
  N  N60  1  0.09895213  0.74935041  0.12941441  1
  N  N61  1  0.88884085  0.87235558  0.87139863  1
  N  N62  1  0.77835884  0.76013807  0.62179251  1
  N  N63  1  0.55779991  0.87187032  0.37512657  1
  N  N64  1  0.46855328  0.74935039  0.12941441  1
  N  N65  1  0.23151302  0.85382971  0.86730650  1
  N  N66  1  0.11098074  0.76074111  0.61892068  1
  N  N67  1  0.88718552  0.87187034  0.37512656  1
  N  N68  1  0.77876615  0.75932350  0.12382545  1
  N  N69  1  0.55565933  0.87235558  0.87139863  1
  N  N70  1  0.44513388  0.76074110  0.61892067  1
  O  O71  1  0.88877526  0.53930526  0.37443552  1
