# generated using pymatgen
data_Sc2Al34N35O
_symmetry_space_group_name_H-M   'P 1'
_cell_length_a   9.80401288
_cell_length_b   9.80128715
_cell_length_c   8.93743204
_cell_angle_alpha   90.00039956
_cell_angle_beta   89.99998102
_cell_angle_gamma   59.99083281
_symmetry_Int_Tables_number   1
_chemical_formula_structural   Sc2Al34N35O
_chemical_formula_sum   'Sc2 Al34 N35 O1'
_cell_volume   743.68709413
_cell_formula_units_Z   1
loop_
 _symmetry_equiv_pos_site_id
 _symmetry_equiv_pos_as_xyz
  1  'x, y, z'
loop_
 _atom_site_type_symbol
 _atom_site_label
 _atom_site_symmetry_multiplicity
 _atom_site_fract_x
 _atom_site_fract_y
 _atom_site_fract_z
 _atom_site_occupancy
  Al  Al0  1  0.11086271  0.09519005  0.37059287  1
  Al  Al1  1  0.22394793  0.20722625  0.12653009  1
  Al  Al2  1  0.77430464  0.09543819  0.87138347  1
  Al  Al3  1  0.88123978  0.21059976  0.61252960  1
  Al  Al4  1  0.44751457  0.09423227  0.37072304  1
  Al  Al5  1  0.55502197  0.20687145  0.11872992  1
  Al  Al6  1  0.22507593  0.21059980  0.61252971  1
  Al  Al7  1  0.77516848  0.09423219  0.37072302  1
  Al  Al8  1  0.88574126  0.20722628  0.12653019  1
  Al  Al9  1  0.44717239  0.09543823  0.87138346  1
  Al  Al10  1  0.55590428  0.20510681  0.62377072  1
  Al  Al11  1  0.11373464  0.42816653  0.36579203  1
  Al  Al12  1  0.22352392  0.53689436  0.12378443  1
  Al  Al13  1  0.77151898  0.42872786  0.87744438  1
  Al  Al14  1  0.88904896  0.53881746  0.63368273  1
  Al  Al15  1  0.44523577  0.42644378  0.37331537  1
  Al  Al16  1  0.55649723  0.53689430  0.12378457  1
  Al  Al17  1  0.11666835  0.42872786  0.87744439  1
  Al  Al18  1  0.22150994  0.53729440  0.61914851  1
  Al  Al19  1  0.77501432  0.42816650  0.36579205  1
  Al  Al20  1  0.88865792  0.53959958  0.10261952  1
  Al  Al21  1  0.44427544  0.42836449  0.86860321  1
  Al  Al22  1  0.55811109  0.53729432  0.61914839  1
  Al  Al23  1  0.10991027  0.76005426  0.37527137  1
  Al  Al24  1  0.77548056  0.76595438  0.87507891  1
  Al  Al25  1  0.88678891  0.87241404  0.61932759  1
  Al  Al26  1  0.44695088  0.76005431  0.37527130  1
  Al  Al27  1  0.55786478  0.87200240  0.12296455  1
  Al  Al28  1  0.10864976  0.75522102  0.86517901  1
  Al  Al29  1  0.22481695  0.86728177  0.61362470  1
  Al  Al30  1  0.77627197  0.76437160  0.36860179  1
  Al  Al31  1  0.88704830  0.87200247  0.12296452  1
  Al  Al32  1  0.45304473  0.75522099  0.86517907  1
  Al  Al33  1  0.55771254  0.87241395  0.61932757  1
  Sc  Sc34  1  0.10790708  0.10110100  0.85238800  1
  Sc  Sc35  1  0.22457983  0.86775589  0.10847552  1
  N  N36  1  0.22333753  0.20625443  0.34428599  1
  N  N37  1  0.10197736  0.11296059  0.09741250  1
  N  N38  1  0.86558803  0.21820862  0.83081545  1
  N  N39  1  0.77551790  0.09371594  0.58529581  1
  N  N40  1  0.55503908  0.20683724  0.33462147  1
  N  N41  1  0.44434085  0.09371195  0.08981139  1
  N  N42  1  0.23311864  0.21820860  0.83081554  1
  N  N43  1  0.11032910  0.09625718  0.59325037  1
  N  N44  1  0.88732354  0.20625435  0.34428607  1
  N  N45  1  0.77886251  0.09371201  0.08981142  1
  N  N46  1  0.55557475  0.20576587  0.84051215  1
  N  N47  1  0.44768143  0.09371593  0.58529586  1
  N  N48  1  0.22318959  0.53920818  0.34002008  1
  N  N49  1  0.11152847  0.42764714  0.09657028  1
  N  N50  1  0.88937316  0.53816901  0.85077440  1
  N  N51  1  0.77992633  0.43359331  0.57961301  1
  N  N52  1  0.55451774  0.53920813  0.34002016  1
  N  N53  1  0.44370794  0.42949950  0.08661542  1
  N  N54  1  0.22292690  0.53632449  0.83485992  1
  N  N55  1  0.10339571  0.43359332  0.57961304  1
  N  N56  1  0.77773975  0.42764713  0.09657031  1
  N  N57  1  0.55766398  0.53632451  0.83485984  1
  N  N58  1  0.44507517  0.42676490  0.58884865  1
  N  N59  1  0.22317124  0.87057304  0.35318123  1
  N  N60  1  0.10024224  0.74998079  0.08427258  1
  N  N61  1  0.88564250  0.87372905  0.83568052  1
  N  N62  1  0.78090090  0.75511360  0.58346846  1
  N  N63  1  0.55655230  0.87130790  0.33953997  1
  N  N64  1  0.46669245  0.74998070  0.08427265  1
  N  N65  1  0.23163406  0.85364751  0.84115302  1
  N  N66  1  0.10910256  0.75979139  0.59122339  1
  N  N67  1  0.88905540  0.87130787  0.33953995  1
  N  N68  1  0.77768594  0.76154356  0.09287320  1
  N  N69  1  0.55754400  0.87372902  0.83568052  1
  N  N70  1  0.44802152  0.75979130  0.59122330  1
  O  O71  1  0.88826568  0.54038426  0.32622118  1
