# generated using pymatgen
data_Sc2Al34N35O
_symmetry_space_group_name_H-M   'P 1'
_cell_length_a   9.44329700
_cell_length_b   9.43998995
_cell_length_c   10.00803919
_cell_angle_alpha   89.96841630
_cell_angle_beta   89.99946497
_cell_angle_gamma   59.98903575
_symmetry_Int_Tables_number   1
_chemical_formula_structural   Sc2Al34N35O
_chemical_formula_sum   'Sc2 Al34 N35 O1'
_cell_volume   772.55023787
_cell_formula_units_Z   1
loop_
 _symmetry_equiv_pos_site_id
 _symmetry_equiv_pos_as_xyz
  1  'x, y, z'
loop_
 _atom_site_type_symbol
 _atom_site_label
 _atom_site_symmetry_multiplicity
 _atom_site_fract_x
 _atom_site_fract_y
 _atom_site_fract_z
 _atom_site_occupancy
  Al  Al0  1  0.11069163  0.09569983  0.42059613  1
  Al  Al1  1  0.22253926  0.20822440  0.16546130  1
  Al  Al2  1  0.77344312  0.09589033  0.91291446  1
  Al  Al3  1  0.88178569  0.20907353  0.66027475  1
  Al  Al4  1  0.44604920  0.09430039  0.41228366  1
  Al  Al5  1  0.55543407  0.20616908  0.16224734  1
  Al  Al6  1  0.22620895  0.20907134  0.66026775  1
  Al  Al7  1  0.77674735  0.09432056  0.41227110  1
  Al  Al8  1  0.88627996  0.20823206  0.16547130  1
  Al  Al9  1  0.44770131  0.09586063  0.91289287  1
  Al  Al10  1  0.55581414  0.20545606  0.66332143  1
  Al  Al11  1  0.11820954  0.42569563  0.41396494  1
  Al  Al12  1  0.22211234  0.53656131  0.16197172  1
  Al  Al13  1  0.77310984  0.43027867  0.91365153  1
  Al  Al14  1  0.88899782  0.53912658  0.66551525  1
  Al  Al15  1  0.44467549  0.42775094  0.41278282  1
  Al  Al16  1  0.55839927  0.53656346  0.16199364  1
  Al  Al17  1  0.11366588  0.43023245  0.91364323  1
  Al  Al18  1  0.22280133  0.53814680  0.66348573  1
  Al  Al19  1  0.77319241  0.42572535  0.41400567  1
  Al  Al20  1  0.88910959  0.53883019  0.15295748  1
  Al  Al21  1  0.44464776  0.42775169  0.91157724  1
  Al  Al22  1  0.55614754  0.53816205  0.66350995  1
  Al  Al23  1  0.11017305  0.76061758  0.41774088  1
  Al  Al24  1  0.77736737  0.76235548  0.91304865  1
  Al  Al25  1  0.88796730  0.87301364  0.66324649  1
  Al  Al26  1  0.44632080  0.76064476  0.41773182  1
  Al  Al27  1  0.55875050  0.87145520  0.16180432  1
  Al  Al28  1  0.10972706  0.75530338  0.90957712  1
  Al  Al29  1  0.22548519  0.86615314  0.66170637  1
  Al  Al30  1  0.77415676  0.76884249  0.41469447  1
  Al  Al31  1  0.88686867  0.87144645  0.16179832  1
  Al  Al32  1  0.45203361  0.75531859  0.90961486  1
  Al  Al33  1  0.55612417  0.87300456  0.66325800  1
  Sc  Sc34  1  0.10905322  0.09887088  0.89945921  1
  Sc  Sc35  1  0.22373179  0.86959969  0.16074627  1
  N  N36  1  0.22119112  0.20682472  0.35770421  1
  N  N37  1  0.10194344  0.11315778  0.10902799  1
  N  N38  1  0.86468116  0.21795391  0.84748765  1
  N  N39  1  0.77669695  0.09355451  0.60172200  1
  N  N40  1  0.55537592  0.20633634  0.35306965  1
  N  N41  1  0.44434115  0.09439308  0.10543111  1
  N  N42  1  0.23439016  0.21790139  0.84748973  1
  N  N43  1  0.11044799  0.09616715  0.61503569  1
  N  N44  1  0.88906529  0.20686650  0.35771630  1
  N  N45  1  0.77830336  0.09440614  0.10544400  1
  N  N46  1  0.55553039  0.20597116  0.85422496  1
  N  N47  1  0.44682947  0.09355470  0.60173831  1
  N  N48  1  0.22120134  0.54016253  0.35376156  1
  N  N49  1  0.11095240  0.42758912  0.10674079  1
  N  N50  1  0.88938507  0.53829057  0.85692805  1
  N  N51  1  0.77802535  0.43115889  0.60092719  1
  N  N52  1  0.55573596  0.54017542  0.35377916  1
  N  N53  1  0.44428580  0.42849358  0.10412557  1
  N  N54  1  0.22342564  0.53694244  0.85278524  1
  N  N55  1  0.10791849  0.43114680  0.60090144  1
  N  N56  1  0.77850752  0.42759179  0.10674923  1
  N  N57  1  0.55665309  0.53697661  0.85280893  1
  N  N58  1  0.44466836  0.42778219  0.60346640  1
  N  N59  1  0.22219867  0.87271152  0.37187754  1
  N  N60  1  0.10086330  0.75077446  0.09842783  1
  N  N61  1  0.88678685  0.87368036  0.85344504  1
  N  N62  1  0.77896459  0.75919268  0.60270868  1
  N  N63  1  0.55685760  0.87059525  0.35377921  1
  N  N64  1  0.46542352  0.75077066  0.09845788  1
  N  N65  1  0.23309940  0.85089556  0.85332089  1
  N  N66  1  0.10941451  0.75964423  0.60666473  1
  N  N67  1  0.88968707  0.87060061  0.35378190  1
  N  N68  1  0.77835272  0.76036033  0.10549739  1
  N  N69  1  0.55662954  0.87364576  0.85345473  1
  N  N70  1  0.44805014  0.75964594  0.60665903  1
  O  O71  1  0.88883101  0.53946828  0.35193899  1
