# generated using pymatgen
data_Sc2Al34N35O
_symmetry_space_group_name_H-M   'P 1'
_cell_length_a   9.44316626
_cell_length_b   9.43987744
_cell_length_c   10.00757375
_cell_angle_alpha   89.96861532
_cell_angle_beta   89.99999469
_cell_angle_gamma   59.98847415
_symmetry_Int_Tables_number   1
_chemical_formula_structural   Sc2Al34N35O
_chemical_formula_sum   'Sc2 Al34 N35 O1'
_cell_volume   772.49003293
_cell_formula_units_Z   1
loop_
 _symmetry_equiv_pos_site_id
 _symmetry_equiv_pos_as_xyz
  1  'x, y, z'
loop_
 _atom_site_type_symbol
 _atom_site_label
 _atom_site_symmetry_multiplicity
 _atom_site_fract_x
 _atom_site_fract_y
 _atom_site_fract_z
 _atom_site_occupancy
  Al  Al0  1  0.11067562  0.09566554  0.40958911  1
  Al  Al1  1  0.22251656  0.20824410  0.15445664  1
  Al  Al2  1  0.77344680  0.09588138  0.90189893  1
  Al  Al3  1  0.88176801  0.20905526  0.64927624  1
  Al  Al4  1  0.44600498  0.09429358  0.40127612  1
  Al  Al5  1  0.55540872  0.20619940  0.15125005  1
  Al  Al6  1  0.22619347  0.20905521  0.64927620  1
  Al  Al7  1  0.77671821  0.09429362  0.40127613  1
  Al  Al8  1  0.88625621  0.20824407  0.15445664  1
  Al  Al9  1  0.44768874  0.09588137  0.90189891  1
  Al  Al10  1  0.55578918  0.20543835  0.65231026  1
  Al  Al11  1  0.11816360  0.42569570  0.40298005  1
  Al  Al12  1  0.22207592  0.53658005  0.15098802  1
  Al  Al13  1  0.77313169  0.43026260  0.90266785  1
  Al  Al14  1  0.88896276  0.53909119  0.65452721  1
  Al  Al15  1  0.44464426  0.42772825  0.40178922  1
  Al  Al16  1  0.55836086  0.53658002  0.15098802  1
  Al  Al17  1  0.11362257  0.43026261  0.90266783  1
  Al  Al18  1  0.22276215  0.53813601  0.65250371  1
  Al  Al19  1  0.77315760  0.42569569  0.40298006  1
  Al  Al20  1  0.88908216  0.53885255  0.14197227  1
  Al  Al21  1  0.44462597  0.42776481  0.90057974  1
  Al  Al22  1  0.55611853  0.53813600  0.65250373  1
  Al  Al23  1  0.11011916  0.76060834  0.40672930  1
  Al  Al24  1  0.77732843  0.76235984  0.90204580  1
  Al  Al25  1  0.88793025  0.87298441  0.65224200  1
  Al  Al26  1  0.44628937  0.76060827  0.40672931  1
  Al  Al27  1  0.55872746  0.87146641  0.15080502  1
  Al  Al28  1  0.10969970  0.75528400  0.89860118  1
  Al  Al29  1  0.22544500  0.86612671  0.65070760  1
  Al  Al30  1  0.77409445  0.76882795  0.40369242  1
  Al  Al31  1  0.88682298  0.87146639  0.15080502  1
  Al  Al32  1  0.45203301  0.75528394  0.89860118  1
  Al  Al33  1  0.55610205  0.87298441  0.65224200  1
  Sc  Sc34  1  0.10908139  0.09885419  0.88842743  1
  Sc  Sc35  1  0.22369569  0.86962550  0.14971365  1
  N  N36  1  0.22113903  0.20682802  0.34670371  1
  N  N37  1  0.10191512  0.11318663  0.09799093  1
  N  N38  1  0.86470497  0.21792943  0.83649862  1
  N  N39  1  0.77667375  0.09353765  0.59073640  1
  N  N40  1  0.55534701  0.20632278  0.34208049  1
  N  N41  1  0.44431957  0.09441943  0.09443598  1
  N  N42  1  0.23438250  0.21792944  0.83649857  1
  N  N43  1  0.11043680  0.09614311  0.60404759  1
  N  N44  1  0.88904978  0.20682801  0.34670370  1
  N  N45  1  0.77827786  0.09441942  0.09443599  1
  N  N46  1  0.55551711  0.20598266  0.84322424  1
  N  N47  1  0.44680536  0.09353762  0.59073638  1
  N  N48  1  0.22116768  0.54014087  0.34277333  1
  N  N49  1  0.11092596  0.42761515  0.09575665  1
  N  N50  1  0.88935946  0.53829791  0.84593929  1
  N  N51  1  0.77799428  0.43113195  0.58991841  1
  N  N52  1  0.55570831  0.54014082  0.34277333  1
  N  N53  1  0.44424573  0.42852534  0.09312051  1
  N  N54  1  0.22340557  0.53693693  0.84180452  1
  N  N55  1  0.10789052  0.43113193  0.58991839  1
  N  N56  1  0.77847576  0.42761513  0.09575666  1
  N  N57  1  0.55667433  0.53693687  0.84180454  1
  N  N58  1  0.44462434  0.42776803  0.59247541  1
  N  N59  1  0.22216945  0.87267797  0.36085940  1
  N  N60  1  0.10082660  0.75078859  0.08744643  1
  N  N61  1  0.88676492  0.87365820  0.84244704  1
  N  N62  1  0.77893278  0.75915119  0.59171306  1
  N  N63  1  0.55679714  0.87058735  0.34278012  1
  N  N64  1  0.46540169  0.75078856  0.08744640  1
  N  N65  1  0.23308077  0.85085519  0.84232970  1
  N  N66  1  0.10937969  0.75962048  0.59566571  1
  N  N67  1  0.88963232  0.87058738  0.34278011  1
  N  N68  1  0.77832229  0.76037227  0.09449232  1
  N  N69  1  0.55659358  0.87365818  0.84244704  1
  N  N70  1  0.44801657  0.75962046  0.59566573  1
  O  O71  1  0.88877170  0.53947348  0.34093415  1
