# generated using pymatgen
data_Sc2Al34N35O
_symmetry_space_group_name_H-M   'P 1'
_cell_length_a   9.44347438
_cell_length_b   9.44018897
_cell_length_c   10.00674292
_cell_angle_alpha   89.96936935
_cell_angle_beta   89.99999357
_cell_angle_gamma   59.98848974
_symmetry_Int_Tables_number   1
_chemical_formula_structural   Sc2Al34N35O
_chemical_formula_sum   'Sc2 Al34 N35 O1'
_cell_volume   772.47672475
_cell_formula_units_Z   1
loop_
 _symmetry_equiv_pos_site_id
 _symmetry_equiv_pos_as_xyz
  1  'x, y, z'
loop_
 _atom_site_type_symbol
 _atom_site_label
 _atom_site_symmetry_multiplicity
 _atom_site_fract_x
 _atom_site_fract_y
 _atom_site_fract_z
 _atom_site_occupancy
  Al  Al0  1  0.11065136  0.09564794  0.39769981  1
  Al  Al1  1  0.22248101  0.20823954  0.14255169  1
  Al  Al2  1  0.77341568  0.09587526  0.89001555  1
  Al  Al3  1  0.88172433  0.20905370  0.63737600  1
  Al  Al4  1  0.44597746  0.09428250  0.38938444  1
  Al  Al5  1  0.55537829  0.20619413  0.13936553  1
  Al  Al6  1  0.22617262  0.20905364  0.63737596  1
  Al  Al7  1  0.77669068  0.09428257  0.38938444  1
  Al  Al8  1  0.88623017  0.20823956  0.14255166  1
  Al  Al9  1  0.44765987  0.09587521  0.89001553  1
  Al  Al10  1  0.55576184  0.20542690  0.64042952  1
  Al  Al11  1  0.11813456  0.42568377  0.39108294  1
  Al  Al12  1  0.22204927  0.53657461  0.13910801  1
  Al  Al13  1  0.77309531  0.43026009  0.89078224  1
  Al  Al14  1  0.88893477  0.53908105  0.64263790  1
  Al  Al15  1  0.44461816  0.42771438  0.38990935  1
  Al  Al16  1  0.55832684  0.53657459  0.13910802  1
  Al  Al17  1  0.11359532  0.43026009  0.89078223  1
  Al  Al18  1  0.22273189  0.53813016  0.64061255  1
  Al  Al19  1  0.77313241  0.42568379  0.39108293  1
  Al  Al20  1  0.88905138  0.53884791  0.13007905  1
  Al  Al21  1  0.44459522  0.42776024  0.88869431  1
  Al  Al22  1  0.55608854  0.53813016  0.64061256  1
  Al  Al23  1  0.11009688  0.76060256  0.39482076  1
  Al  Al24  1  0.77729779  0.76235498  0.89015980  1
  Al  Al25  1  0.88790419  0.87297401  0.64035072  1
  Al  Al26  1  0.44625132  0.76060248  0.39482076  1
  Al  Al27  1  0.55869963  0.87145897  0.13892311  1
  Al  Al28  1  0.10966329  0.75527541  0.88671288  1
  Al  Al29  1  0.22542185  0.86610694  0.63883153  1
  Al  Al30  1  0.77406806  0.76881455  0.39180446  1
  Al  Al31  1  0.88679206  0.87145896  0.13892310  1
  Al  Al32  1  0.45201193  0.75527535  0.88671289  1
  Al  Al33  1  0.55607240  0.87297399  0.64035072  1
  Sc  Sc34  1  0.10904022  0.09887023  0.87647866  1
  Sc  Sc35  1  0.22365359  0.86964373  0.13776513  1
  N  N36  1  0.22110976  0.20681257  0.33481936  1
  N  N37  1  0.10187163  0.11320751  0.08606109  1
  N  N38  1  0.86465235  0.21793494  0.82461305  1
  N  N39  1  0.77664286  0.09352624  0.57885646  1
  N  N40  1  0.55531916  0.20631235  0.33020641  1
  N  N41  1  0.44429106  0.09441061  0.08256256  1
  N  N42  1  0.23436350  0.21793501  0.82461303  1
  N  N43  1  0.11041050  0.09612961  0.59218496  1
  N  N44  1  0.88902840  0.20681256  0.33481937  1
  N  N45  1  0.77824907  0.09441059  0.08256257  1
  N  N46  1  0.55548796  0.20597481  0.83135403  1
  N  N47  1  0.44678155  0.09352622  0.57885645  1
  N  N48  1  0.22114512  0.54012597  0.33090153  1
  N  N49  1  0.11089645  0.42761482  0.08388230  1
  N  N50  1  0.88933070  0.53828935  0.83406423  1
  N  N51  1  0.77796515  0.43112622  0.57803459  1
  N  N52  1  0.55567965  0.54012592  0.33090154  1
  N  N53  1  0.44421590  0.42851884  0.08124607  1
  N  N54  1  0.22337504  0.53693384  0.82992560  1
  N  N55  1  0.10785925  0.43112621  0.57803459  1
  N  N56  1  0.77843947  0.42761482  0.08388232  1
  N  N57  1  0.55664181  0.53693380  0.82992561  1
  N  N58  1  0.44459780  0.42775497  0.58060542  1
  N  N59  1  0.22213838  0.87267396  0.34893811  1
  N  N60  1  0.10079161  0.75077715  0.07557377  1
  N  N61  1  0.88673393  0.87365221  0.83056847  1
  N  N62  1  0.77890629  0.75913807  0.57983716  1
  N  N63  1  0.55677198  0.87057587  0.33090631  1
  N  N64  1  0.46538188  0.75077718  0.07557379  1
  N  N65  1  0.23305206  0.85084647  0.83047505  1
  N  N66  1  0.10935563  0.75961434  0.58377888  1
  N  N67  1  0.88960285  0.87057588  0.33090631  1
  N  N68  1  0.77829162  0.76036746  0.08261717  1
  N  N69  1  0.55656448  0.87365219  0.83056847  1
  N  N70  1  0.44798064  0.75961431  0.58377890  1
  O  O71  1  0.88874357  0.53946366  0.32904826  1
