# generated using pymatgen
data_Sc2Al34N35O
_symmetry_space_group_name_H-M   'P 1'
_cell_length_a   9.44240668
_cell_length_b   9.43924549
_cell_length_c   10.01004480
_cell_angle_alpha   89.98572297
_cell_angle_beta   90.00073543
_cell_angle_gamma   59.98870387
_symmetry_Int_Tables_number   1
_chemical_formula_structural   Sc2Al34N35O
_chemical_formula_sum   'Sc2 Al34 N35 O1'
_cell_volume   772.56880964
_cell_formula_units_Z   1
loop_
 _symmetry_equiv_pos_site_id
 _symmetry_equiv_pos_as_xyz
  1  'x, y, z'
loop_
 _atom_site_type_symbol
 _atom_site_label
 _atom_site_symmetry_multiplicity
 _atom_site_fract_x
 _atom_site_fract_y
 _atom_site_fract_z
 _atom_site_occupancy
  Al  Al0  1  0.10866864  0.09943999  0.29665088  1
  Al  Al1  1  0.22376177  0.21104553  0.04814491  1
  Al  Al2  1  0.77343722  0.09600921  0.79602027  1
  Al  Al3  1  0.88668609  0.20574878  0.54195728  1
  Al  Al4  1  0.44612148  0.09414999  0.29538847  1
  Al  Al5  1  0.55564027  0.20543404  0.04537973  1
  Al  Al6  1  0.22436238  0.20572870  0.54196506  1
  Al  Al7  1  0.77649198  0.09414818  0.29538916  1
  Al  Al8  1  0.88190674  0.21104046  0.04814634  1
  Al  Al9  1  0.44726532  0.09601084  0.79602739  1
  Al  Al10  1  0.55535806  0.20606534  0.54588103  1
  Al  Al11  1  0.11880584  0.42533203  0.29357340  1
  Al  Al12  1  0.22076930  0.53656017  0.04446128  1
  Al  Al13  1  0.77353092  0.43042956  0.79533632  1
  Al  Al14  1  0.88893360  0.53891971  0.55425295  1
  Al  Al15  1  0.44460400  0.42756140  0.29531256  1
  Al  Al16  1  0.55938308  0.53657507  0.04444587  1
  Al  Al17  1  0.11276709  0.43044346  0.79532606  1
  Al  Al18  1  0.22367715  0.53804054  0.54661684  1
  Al  Al19  1  0.77264291  0.42532313  0.29354645  1
  Al  Al20  1  0.88894231  0.53885695  0.04370339  1
  Al  Al21  1  0.44450898  0.42771714  0.79674882  1
  Al  Al22  1  0.55506316  0.53805211  0.54661955  1
  Al  Al23  1  0.10791980  0.75792667  0.29775535  1
  Al  Al24  1  0.77754565  0.76164032  0.79535792  1
  Al  Al25  1  0.88819413  0.87319908  0.54678092  1
  Al  Al26  1  0.45092948  0.75792203  0.29775141  1
  Al  Al27  1  0.55926196  0.87111093  0.04471977  1
  Al  Al28  1  0.11149395  0.75746786  0.79225843  1
  Al  Al29  1  0.22329255  0.87019609  0.53931538  1
  Al  Al30  1  0.77363142  0.76950016  0.29323155  1
  Al  Al31  1  0.88635738  0.87112048  0.04471857  1
  Al  Al32  1  0.44778017  0.75747008  0.79223985  1
  Al  Al33  1  0.55540157  0.87320178  0.54677986  1
  Sc  Sc34  1  0.10983732  0.09704058  0.79669918  1
  Sc  Sc35  1  0.22450509  0.86772041  0.05765467  1
  N  N36  1  0.22280286  0.20796243  0.35217897  1
  N  N37  1  0.10046237  0.11578323  0.10534259  1
  N  N38  1  0.86805254  0.21636576  0.85970715  1
  N  N39  1  0.77751807  0.09492478  0.60415321  1
  N  N40  1  0.55535521  0.20605554  0.35460941  1
  N  N41  1  0.44628949  0.09296061  0.10539600  1
  N  N42  1  0.23228325  0.21637653  0.85970108  1
  N  N43  1  0.11122013  0.09433368  0.58589102  1
  N  N44  1  0.88599679  0.20797301  0.35216961  1
  N  N45  1  0.77746752  0.09296562  0.10540027  1
  N  N46  1  0.55532225  0.20606903  0.85488650  1
  N  N47  1  0.44434776  0.09492142  0.60416562  1
  N  N48  1  0.22249354  0.53729708  0.35653352  1
  N  N49  1  0.10816927  0.43050643  0.10689611  1
  N  N50  1  0.88916219  0.53840480  0.85229196  1
  N  N51  1  0.77854298  0.42763504  0.60228267  1
  N  N52  1  0.55698465  0.53729080  0.35653777  1
  N  N53  1  0.44400043  0.42872568  0.10383766  1
  N  N54  1  0.22199907  0.53922528  0.85346753  1
  N  N55  1  0.11060476  0.42763130  0.60227324  1
  N  N56  1  0.77803970  0.43053524  0.10688149  1
  N  N57  1  0.55550999  0.53922624  0.85345904  1
  N  N58  1  0.44465572  0.42747591  0.60516788  1
  N  N59  1  0.22304209  0.87069385  0.34387072  1
  N  N60  1  0.09893507  0.74926435  0.11082305  1
  N  N61  1  0.88881400  0.87229534  0.85282330  1
  N  N62  1  0.77830797  0.76018740  0.60318732  1
  N  N63  1  0.55773754  0.87189906  0.35651011  1
  N  N64  1  0.46852371  0.74926872  0.11081164  1
  N  N65  1  0.23149205  0.85376071  0.84875181  1
  N  N66  1  0.11092424  0.76081862  0.60033133  1
  N  N67  1  0.88713778  0.87189716  0.35651253  1
  N  N68  1  0.77874912  0.75925074  0.10525393  1
  N  N69  1  0.55562270  0.87229100  0.85282702  1
  N  N70  1  0.44503221  0.76082709  0.60031645  1
  O  O71  1  0.88871351  0.53934129  0.35584015  1
