# generated using pymatgen
data_Sc2Al34N35O
_symmetry_space_group_name_H-M   'P 1'
_cell_length_a   9.60608908
_cell_length_b   9.60255058
_cell_length_c   9.54786539
_cell_angle_alpha   89.99156380
_cell_angle_beta   89.99995608
_cell_angle_gamma   59.98785084
_symmetry_Int_Tables_number   1
_chemical_formula_structural   Sc2Al34N35O
_chemical_formula_sum   'Sc2 Al34 N35 O1'
_cell_volume   762.63537331
_cell_formula_units_Z   1
loop_
 _symmetry_equiv_pos_site_id
 _symmetry_equiv_pos_as_xyz
  1  'x, y, z'
loop_
 _atom_site_type_symbol
 _atom_site_label
 _atom_site_symmetry_multiplicity
 _atom_site_fract_x
 _atom_site_fract_y
 _atom_site_fract_z
 _atom_site_occupancy
  Al  Al0  1  0.11153154  0.09385232  0.38589281  1
  Al  Al1  1  0.22249307  0.20729717  0.13317490  1
  Al  Al2  1  0.77373776  0.09579872  0.88049608  1
  Al  Al3  1  0.87968329  0.21060815  0.62452715  1
  Al  Al4  1  0.44686891  0.09414584  0.37872463  1
  Al  Al5  1  0.55513941  0.20663666  0.12821482  1
  Al  Al6  1  0.22662395  0.21060818  0.62452718  1
  Al  Al7  1  0.77590060  0.09414584  0.37872462  1
  Al  Al8  1  0.88712517  0.20729719  0.13317493  1
  Al  Al9  1  0.44737875  0.09579872  0.88049608  1
  Al  Al10  1  0.55590527  0.20510488  0.63156219  1
  Al  Al11  1  0.11600877  0.42675029  0.37758249  1
  Al  Al12  1  0.22282801  0.53661665  0.13091247  1
  Al  Al13  1  0.77194396  0.42945389  0.88353571  1
  Al  Al14  1  0.88901540  0.53888466  0.63654270  1
  Al  Al15  1  0.44503638  0.42684263  0.38076066  1
  Al  Al16  1  0.55747081  0.53661663  0.13091251  1
  Al  Al17  1  0.11551747  0.42945390  0.88353572  1
  Al  Al18  1  0.22208861  0.53776374  0.62901439  1
  Al  Al19  1  0.77415636  0.42675032  0.37758249  1
  Al  Al20  1  0.88883327  0.53924900  0.11539819  1
  Al  Al21  1  0.44435428  0.42820679  0.87805781  1
  Al  Al22  1  0.55706310  0.53776377  0.62901434  1
  Al  Al23  1  0.11073365  0.76099324  0.38318209  1
  Al  Al24  1  0.77632110  0.76427311  0.88161083  1
  Al  Al25  1  0.88738850  0.87277742  0.62898265  1
  Al  Al26  1  0.44518854  0.76099324  0.38318208  1
  Al  Al27  1  0.55855431  0.87157819  0.13039938  1
  Al  Al28  1  0.10827065  0.75439473  0.87632498  1
  Al  Al29  1  0.22593803  0.86503936  0.62957103  1
  Al  Al30  1  0.77513971  0.76663595  0.38000883  1
  Al  Al31  1  0.88678294  0.87157815  0.13039937  1
  Al  Al32  1  0.45425002  0.75439468  0.87632498  1
  Al  Al33  1  0.55674950  0.87277747  0.62898264  1
  Sc  Sc34  1  0.10753562  0.10184390  0.85836194  1
  Sc  Sc35  1  0.22341553  0.87008438  0.11602447  1
  N  N36  1  0.22171869  0.20584591  0.33403756  1
  N  N37  1  0.10084740  0.11522053  0.08080431  1
  N  N38  1  0.86282149  0.21915763  0.82162042  1
  N  N39  1  0.77576837  0.09351053  0.57626621  1
  N  N40  1  0.55516577  0.20658394  0.32702631  1
  N  N41  1  0.44413314  0.09400551  0.08116133  1
  N  N42  1  0.23493623  0.21915758  0.82162046  1
  N  N43  1  0.11075074  0.09541385  0.59158883  1
  N  N44  1  0.88935090  0.20584591  0.33403758  1
  N  N45  1  0.77877670  0.09400550  0.08116133  1
  N  N46  1  0.55558183  0.20575172  0.83074002  1
  N  N47  1  0.44763640  0.09351057  0.57626622  1
  N  N48  1  0.22228894  0.53964711  0.33018962  1
  N  N49  1  0.11176856  0.42731149  0.08479795  1
  N  N50  1  0.88945510  0.53800526  0.83727217  1
  N  N51  1  0.77881196  0.43262238  0.57359137  1
  N  N52  1  0.55497950  0.53964709  0.33018966  1
  N  N53  1  0.44387347  0.42916847  0.07868727  1
  N  N54  1  0.22314007  0.53664751  0.82690005  1
  N  N55  1  0.10548109  0.43262235  0.57359140  1
  N  N56  1  0.77783535  0.42731149  0.08479794  1
  N  N57  1  0.55712792  0.53664749  0.82690001  1
  N  N58  1  0.44493682  0.42704175  0.57937644  1
  N  N59  1  0.22231604  0.87228351  0.34101051  1
  N  N60  1  0.09955822  0.74940750  0.07449044  1
  N  N61  1  0.88601233  0.87393678  0.82765021  1
  N  N62  1  0.77991858  0.75707821  0.57690528  1
  N  N63  1  0.55678703  0.87067493  0.32992629  1
  N  N64  1  0.46794968  0.74940747  0.07449046  1
  N  N65  1  0.23279302  0.85132949  0.83450644  1
  N  N66  1  0.10967200  0.76004296  0.58168598  1
  N  N67  1  0.88945361  0.87067491  0.32992627  1
  N  N68  1  0.77774935  0.76141667  0.08195616  1
  N  N69  1  0.55696639  0.87393677  0.82765020  1
  N  N70  1  0.44720042  0.76004298  0.58168597  1
  O  O71  1  0.88848798  0.53993960  0.32234583  1
