# generated using pymatgen
data_Sc2Al34N35O
_symmetry_space_group_name_H-M   'P 1'
_cell_length_a   9.65727591
_cell_length_b   9.65318097
_cell_length_c   9.39952111
_cell_angle_alpha   90.03065767
_cell_angle_beta   90.00004048
_cell_angle_gamma   59.98593867
_symmetry_Int_Tables_number   1
_chemical_formula_structural   Sc2Al34N35O
_chemical_formula_sum   'Sc2 Al34 N35 O1'
_cell_volume   758.75193357
_cell_formula_units_Z   1
loop_
 _symmetry_equiv_pos_site_id
 _symmetry_equiv_pos_as_xyz
  1  'x, y, z'
loop_
 _atom_site_type_symbol
 _atom_site_label
 _atom_site_symmetry_multiplicity
 _atom_site_fract_x
 _atom_site_fract_y
 _atom_site_fract_z
 _atom_site_occupancy
  Al  Al0  1  0.10866331  0.09958839  0.33204746  1
  Al  Al1  1  0.22422027  0.21298216  0.08381382  1
  Al  Al2  1  0.77287580  0.09638831  0.82988095  1
  Al  Al3  1  0.88783105  0.20445577  0.57792747  1
  Al  Al4  1  0.44675548  0.09369587  0.33046018  1
  Al  Al5  1  0.55600484  0.20490533  0.08027856  1
  Al  Al6  1  0.22462805  0.20445585  0.57792750  1
  Al  Al7  1  0.77646368  0.09369581  0.33046012  1
  Al  Al8  1  0.87971259  0.21298210  0.08381383  1
  Al  Al9  1  0.44765073  0.09638841  0.82988089  1
  Al  Al10  1  0.55501484  0.20688534  0.57980888  1
  Al  Al11  1  0.11708226  0.42620570  0.33342633  1
  Al  Al12  1  0.21939051  0.53641595  0.07911166  1
  Al  Al13  1  0.77264137  0.43004396  0.82548079  1
  Al  Al14  1  0.88865283  0.53960915  0.59320363  1
  Al  Al15  1  0.44471167  0.42749159  0.32800730  1
  Al  Al16  1  0.56110834  0.53641597  0.07911169  1
  Al  Al17  1  0.11422947  0.43004399  0.82548078  1
  Al  Al18  1  0.22525196  0.53793492  0.58107897  1
  Al  Al19  1  0.77362693  0.42620566  0.33342631  1
  Al  Al20  1  0.88921621  0.53848242  0.07397122  1
  Al  Al21  1  0.44471688  0.42748118  0.83305058  1
  Al  Al22  1  0.55372798  0.53793490  0.58107893  1
  Al  Al23  1  0.10720911  0.75733821  0.33462271  1
  Al  Al24  1  0.77691575  0.76308351  0.82804681  1
  Al  Al25  1  0.88783954  0.87376061  0.58176302  1
  Al  Al26  1  0.45236771  0.75733822  0.33462267  1
  Al  Al27  1  0.56005325  0.87065299  0.07903777  1
  Al  Al28  1  0.11146389  0.75748804  0.82707458  1
  Al  Al29  1  0.22281054  0.87129406  0.57802298  1
  Al  Al30  1  0.77460274  0.76770952  0.33032842  1
  Al  Al31  1  0.88620870  0.87065286  0.07903777  1
  Al  Al32  1  0.44796309  0.75748809  0.82707463  1
  Al  Al33  1  0.55531493  0.87376062  0.58176302  1
  Sc  Sc34  1  0.10976627  0.09738240  0.84420705  1
  Sc  Sc35  1  0.22600459  0.86490573  0.09964307  1
  N  N36  1  0.22341700  0.20646656  0.37544449  1
  N  N37  1  0.10102163  0.11487188  0.12196544  1
  N  N38  1  0.86518150  0.21846865  0.88152667  1
  N  N39  1  0.77685175  0.09515851  0.62671507  1
  N  N40  1  0.55508575  0.20674350  0.37717948  1
  N  N41  1  0.44670264  0.09258476  0.12889482  1
  N  N42  1  0.23326469  0.21846869  0.88152665  1
  N  N43  1  0.11102505  0.09486493  0.61509449  1
  N  N44  1  0.88703141  0.20646650  0.37544445  1
  N  N45  1  0.77762772  0.09258467  0.12889478  1
  N  N46  1  0.55560091  0.20571305  0.87837856  1
  N  N47  1  0.44490477  0.09515856  0.62671503  1
  N  N48  1  0.22437636  0.53670900  0.38002008  1
  N  N49  1  0.10591615  0.43174814  0.13367017  1
  N  N50  1  0.88948799  0.53793880  0.86995545  1
  N  N51  1  0.77804025  0.42808069  0.62141219  1
  N  N52  1  0.55582949  0.53670905  0.38002003  1
  N  N53  1  0.44390451  0.42910589  0.12512832  1
  N  N54  1  0.22128676  0.53905047  0.87602210  1
  N  N55  1  0.11079393  0.42808075  0.62141219  1
  N  N56  1  0.77925067  0.43174811  0.13367018  1
  N  N57  1  0.55657759  0.53905051  0.87602216  1
  N  N58  1  0.44483749  0.42723999  0.63001463  1
  N  N59  1  0.22291045  0.87109413  0.36680712  1
  N  N60  1  0.09840853  0.74896502  0.13404006  1
  N  N61  1  0.88830974  0.87259400  0.87518483  1
  N  N62  1  0.77810755  0.76070004  0.62510863  1
  N  N63  1  0.55783199  0.87243751  0.38045555  1
  N  N64  1  0.46954146  0.74896507  0.13404003  1
  N  N65  1  0.23233744  0.85224010  0.87297423  1
  N  N66  1  0.11066597  0.76075376  0.62272334  1
  N  N67  1  0.88664550  0.87243749  0.38045555  1
  N  N68  1  0.77971185  0.75749127  0.12947015  1
  N  N69  1  0.55601119  0.87259410  0.87518484  1
  N  N70  1  0.44549546  0.76075373  0.62272339  1
  O  O71  1  0.88831837  0.54027813  0.38436825  1
