# generated using pymatgen
data_Sc2Al34N35O
_symmetry_space_group_name_H-M   'P 1'
_cell_length_a   9.89047624
_cell_length_b   9.88741051
_cell_length_c   8.66790707
_cell_angle_alpha   90.03045223
_cell_angle_beta   90.00000512
_cell_angle_gamma   59.98974289
_symmetry_Int_Tables_number   1
_chemical_formula_structural   Sc2Al34N35O
_chemical_formula_sum   'Sc2 Al34 N35 O1'
_cell_volume   734.00609969
_cell_formula_units_Z   1
loop_
 _symmetry_equiv_pos_site_id
 _symmetry_equiv_pos_as_xyz
  1  'x, y, z'
loop_
 _atom_site_type_symbol
 _atom_site_label
 _atom_site_symmetry_multiplicity
 _atom_site_fract_x
 _atom_site_fract_y
 _atom_site_fract_z
 _atom_site_occupancy
  Al  Al0  1  0.10977826  0.09735874  0.35194149  1
  Al  Al1  1  0.22289436  0.21206868  0.09977264  1
  Al  Al2  1  0.77306990  0.09597270  0.84365225  1
  Al  Al3  1  0.88564002  0.20550855  0.59015383  1
  Al  Al4  1  0.44670748  0.09372671  0.34347082  1
  Al  Al5  1  0.55588450  0.20514603  0.09408855  1
  Al  Al6  1  0.22576634  0.20550866  0.59015390  1
  Al  Al7  1  0.77648086  0.09372647  0.34347084  1
  Al  Al8  1  0.88195219  0.21206840  0.09977274  1
  Al  Al9  1  0.44787229  0.09597284  0.84365226  1
  Al  Al10  1  0.55502894  0.20685698  0.59246128  1
  Al  Al11  1  0.11486350  0.42731295  0.34924011  1
  Al  Al12  1  0.21974189  0.53603597  0.09391630  1
  Al  Al13  1  0.77232234  0.42972343  0.83546150  1
  Al  Al14  1  0.88860703  0.53970045  0.60754810  1
  Al  Al15  1  0.44465145  0.42761185  0.34084319  1
  Al  Al16  1  0.56113682  0.53603582  0.09391634  1
  Al  Al17  1  0.11486874  0.42972364  0.83546142  1
  Al  Al18  1  0.22521042  0.53819850  0.59271218  1
  Al  Al19  1  0.77473842  0.42731263  0.34924003  1
  Al  Al20  1  0.88917772  0.53855914  0.07928428  1
  Al  Al21  1  0.44488912  0.42713646  0.84613950  1
  Al  Al22  1  0.55350586  0.53819853  0.59271214  1
  Al  Al23  1  0.10847175  0.75848909  0.34942995  1
  Al  Al24  1  0.77629737  0.76432043  0.83829080  1
  Al  Al25  1  0.88790703  0.87379288  0.59359070  1
  Al  Al26  1  0.44995447  0.75848905  0.34942973  1
  Al  Al27  1  0.56036910  0.87060266  0.09387003  1
  Al  Al28  1  0.10992379  0.75676958  0.84096739  1
  Al  Al29  1  0.22405321  0.86880899  0.59780739  1
  Al  Al30  1  0.77582657  0.76526204  0.34702297  1
  Al  Al31  1  0.88594344  0.87060251  0.09387000  1
  Al  Al32  1  0.45022196  0.75676953  0.84096763  1
  Al  Al33  1  0.55521506  0.87379290  0.59359067  1
  Sc  Sc34  1  0.10863358  0.09964784  0.85115000  1
  Sc  Sc35  1  0.22520643  0.86650213  0.10589505  1
  N  N36  1  0.22421646  0.20654461  0.36246916  1
  N  N37  1  0.10233367  0.11224791  0.11454705  1
  N  N38  1  0.86746615  0.21756959  0.86557370  1
  N  N39  1  0.77649356  0.09472667  0.61330568  1
  N  N40  1  0.55503629  0.20684242  0.36347404  1
  N  N41  1  0.44621285  0.09280419  0.11550372  1
  N  N42  1  0.23187914  0.21756975  0.86557363  1
  N  N43  1  0.11024775  0.09641952  0.59965268  1
  N  N44  1  0.88615410  0.20654434  0.36246907  1
  N  N45  1  0.77789801  0.09280403  0.11550373  1
  N  N46  1  0.55553417  0.20584665  0.86566605  1
  N  N47  1  0.44569466  0.09472668  0.61330571  1
  N  N48  1  0.22448564  0.53707165  0.36615817  1
  N  N49  1  0.10429110  0.43227764  0.12331160  1
  N  N50  1  0.88940109  0.53811243  0.85467616  1
  N  N51  1  0.77804328  0.42920249  0.60610458  1
  N  N52  1  0.55535756  0.53707162  0.36615806  1
  N  N53  1  0.44394446  0.42902569  0.11190308  1
  N  N54  1  0.22170843  0.53804453  0.86302551  1
  N  N55  1  0.10966879  0.42920265  0.60610457  1
  N  N56  1  0.78034600  0.43227746  0.12331156  1
  N  N57  1  0.55716180  0.53804446  0.86302560  1
  N  N58  1  0.44482081  0.42727321  0.61703517  1
  N  N59  1  0.22344246  0.87003047  0.36467615  1
  N  N60  1  0.10052473  0.75084992  0.11761273  1
  N  N61  1  0.88728279  0.87258624  0.86220689  1
  N  N62  1  0.77847631  0.75996236  0.60993230  1
  N  N63  1  0.55728062  0.87255740  0.36651454  1
  N  N64  1  0.46554055  0.75084984  0.11761257  1
  N  N65  1  0.23106312  0.85478906  0.85167254  1
  N  N66  1  0.10942351  0.75973085  0.61005192  1
  N  N67  1  0.88707718  0.87255727  0.36651462  1
  N  N68  1  0.78065519  0.75560464  0.11901804  1
  N  N69  1  0.55704610  0.87258636  0.86220698  1
  N  N70  1  0.44776092  0.75973072  0.61005203  1
  O  O71  1  0.88822711  0.54046046  0.37573849  1
