# generated using pymatgen
data_Sc2Al34N35O
_symmetry_space_group_name_H-M   'P 1'
_cell_length_a   9.75731341
_cell_length_b   9.75436681
_cell_length_c   9.08455952
_cell_angle_alpha   89.99857917
_cell_angle_beta   89.99997306
_cell_angle_gamma   59.99004026
_symmetry_Int_Tables_number   1
_chemical_formula_structural   Sc2Al34N35O
_chemical_formula_sum   'Sc2 Al34 N35 O1'
_cell_volume   748.72140514
_cell_formula_units_Z   1
loop_
 _symmetry_equiv_pos_site_id
 _symmetry_equiv_pos_as_xyz
  1  'x, y, z'
loop_
 _atom_site_type_symbol
 _atom_site_label
 _atom_site_symmetry_multiplicity
 _atom_site_fract_x
 _atom_site_fract_y
 _atom_site_fract_z
 _atom_site_occupancy
  Al  Al0  1  0.11111660  0.09468225  0.37500295  1
  Al  Al1  1  0.22360006  0.20709061  0.12886818  1
  Al  Al2  1  0.77424453  0.09554201  0.87423744  1
  Al  Al3  1  0.88063636  0.21077557  0.61571655  1
  Al  Al4  1  0.44749720  0.09419418  0.37310546  1
  Al  Al5  1  0.55502201  0.20687140  0.12135459  1
  Al  Al6  1  0.22550350  0.21077560  0.61571664  1
  Al  Al7  1  0.77522394  0.09419410  0.37310544  1
  Al  Al8  1  0.88622470  0.20709066  0.12886825  1
  Al  Al9  1  0.44712868  0.09554203  0.87423744  1
  Al  Al10  1  0.55593128  0.20505285  0.62636944  1
  Al  Al11  1  0.11407098  0.42799671  0.36876965  1
  Al  Al12  1  0.22341382  0.53690252  0.12611602  1
  Al  Al13  1  0.77149844  0.42870747  0.87965769  1
  Al  Al14  1  0.88904486  0.53882572  0.63484516  1
  Al  Al15  1  0.44522647  0.42646243  0.37567743  1
  Al  Al16  1  0.55659919  0.53690248  0.12611614  1
  Al  Al17  1  0.11670931  0.42870747  0.87965771  1
  Al  Al18  1  0.22159869  0.53732256  0.62198593  1
  Al  Al19  1  0.77484781  0.42799669  0.36876968  1
  Al  Al20  1  0.88868771  0.53954003  0.10516939  1
  Al  Al21  1  0.44426483  0.42838573  0.87138142  1
  Al  Al22  1  0.55799418  0.53732253  0.62198582  1
  Al  Al23  1  0.11014344  0.76032171  0.37776686  1
  Al  Al24  1  0.77554399  0.76582746  0.87729788  1
  Al  Al25  1  0.88682011  0.87252289  0.62214908  1
  Al  Al26  1  0.44645027  0.76032175  0.37776680  1
  Al  Al27  1  0.55797287  0.87188972  0.12536074  1
  Al  Al28  1  0.10847201  0.75492528  0.86839472  1
  Al  Al29  1  0.22510824  0.86669911  0.61795810  1
  Al  Al30  1  0.77608152  0.76475247  0.37171544  1
  Al  Al31  1  0.88705289  0.87188976  0.12536070  1
  Al  Al32  1  0.45351818  0.75492524  0.86839477  1
  Al  Al33  1  0.55757244  0.87252285  0.62214906  1
  Sc  Sc34  1  0.10773136  0.10145240  0.85346884  1
  Sc  Sc35  1  0.22429021  0.86833507  0.10972999  1
  N  N36  1  0.22296324  0.20606902  0.34160317  1
  N  N37  1  0.10166463  0.11358601  0.09260556  1
  N  N38  1  0.86474090  0.21853951  0.82775790  1
  N  N39  1  0.77546216  0.09365266  0.58255014  1
  N  N40  1  0.55504771  0.20681999  0.33213070  1
  N  N41  1  0.44420617  0.09378230  0.08728780  1
  N  N42  1  0.23363489  0.21853947  0.82775798  1
  N  N43  1  0.11044233  0.09603071  0.59302440  1
  N  N44  1  0.88788323  0.20606895  0.34160324  1
  N  N45  1  0.77892687  0.09378232  0.08728783  1
  N  N46  1  0.55559591  0.20572353  0.83784057  1
  N  N47  1  0.44780045  0.09365269  0.58255018  1
  N  N48  1  0.22302784  0.53938922  0.33723106  1
  N  N49  1  0.11182633  0.42741245  0.09353482  1
  N  N50  1  0.88940392  0.53810750  0.84788772  1
  N  N51  1  0.77969681  0.43352708  0.57755043  1
  N  N52  1  0.55449849  0.53938917  0.33723114  1
  N  N53  1  0.44370720  0.42950100  0.08415339  1
  N  N54  1  0.22298923  0.53631762  0.83237818  1
  N  N55  1  0.10369152  0.43352707  0.57755045  1
  N  N56  1  0.77767660  0.42741245  0.09353483  1
  N  N57  1  0.55760854  0.53631763  0.83237809  1
  N  N58  1  0.44508324  0.42674883  0.58613977  1
  N  N59  1  0.22298184  0.87095184  0.34972335  1
  N  N60  1  0.09997016  0.74973035  0.08119479  1
  N  N61  1  0.88563660  0.87385551  0.83319571  1
  N  N62  1  0.78072639  0.75546262  0.58141339  1
  N  N63  1  0.55656673  0.87113103  0.33676769  1
  N  N64  1  0.46721496  0.74973028  0.08119485  1
  N  N65  1  0.23192635  0.85306289  0.83973988  1
  N  N66  1  0.10920535  0.75984760  0.58857729  1
  N  N67  1  0.88921782  0.87113099  0.33676767  1
  N  N68  1  0.77758762  0.76174020  0.08985174  1
  N  N69  1  0.55742341  0.87385548  0.83319570  1
  N  N70  1  0.44786248  0.75984755  0.58857722  1
  O  O71  1  0.88828269  0.54035024  0.32455034  1
