# generated using pymatgen
data_Sc2Al34N35O
_symmetry_space_group_name_H-M   'P 1'
_cell_length_a   9.70881300
_cell_length_b   9.70564971
_cell_length_c   9.23588194
_cell_angle_alpha   89.99654781
_cell_angle_beta   89.99996599
_cell_angle_gamma   59.98925734
_symmetry_Int_Tables_number   1
_chemical_formula_structural   Sc2Al34N35O
_chemical_formula_sum   'Sc2 Al34 N35 O1'
_cell_volume   753.62054622
_cell_formula_units_Z   1
loop_
 _symmetry_equiv_pos_site_id
 _symmetry_equiv_pos_as_xyz
  1  'x, y, z'
loop_
 _atom_site_type_symbol
 _atom_site_label
 _atom_site_symmetry_multiplicity
 _atom_site_fract_x
 _atom_site_fract_y
 _atom_site_fract_z
 _atom_site_occupancy
  Al  Al0  1  0.11132997  0.09425549  0.37915569  1
  Al  Al1  1  0.22321145  0.20705517  0.13066837  1
  Al  Al2  1  0.77411442  0.09564436  0.87666757  1
  Al  Al3  1  0.88013923  0.21084182  0.61882366  1
  Al  Al4  1  0.44736740  0.09416536  0.37518451  1
  Al  Al5  1  0.55504497  0.20682552  0.12381432  1
  Al  Al6  1  0.22593435  0.21084186  0.61882374  1
  Al  Al7  1  0.77538257  0.09416530  0.37518450  1
  Al  Al8  1  0.88664873  0.20705524  0.13066844  1
  Al  Al9  1  0.44715641  0.09564437  0.87666756  1
  Al  Al10  1  0.55593647  0.20504249  0.62845636  1
  Al  Al11  1  0.11458130  0.42768440  0.37177839  1
  Al  Al12  1  0.22324773  0.53684787  0.12803441  1
  Al  Al13  1  0.77156909  0.42883700  0.88134791  1
  Al  Al14  1  0.88903663  0.53884223  0.63570088  1
  Al  Al15  1  0.44518508  0.42654526  0.37764695  1
  Al  Al16  1  0.55681993  0.53684784  0.12803451  1
  Al  Al17  1  0.11650913  0.42883701  0.88134794  1
  Al  Al18  1  0.22173536  0.53742226  0.62455088  1
  Al  Al19  1  0.77464979  0.42768441  0.37177843  1
  Al  Al20  1  0.88873002  0.53945547  0.10826561  1
  Al  Al21  1  0.44427907  0.42835725  0.87387013  1
  Al  Al22  1  0.55775785  0.53742227  0.62455078  1
  Al  Al23  1  0.11038017  0.76059195  0.37982871  1
  Al  Al24  1  0.77571780  0.76547978  0.87906255  1
  Al  Al25  1  0.88694468  0.87262124  0.62466574  1
  Al  Al26  1  0.44594331  0.76059198  0.37982865  1
  Al  Al27  1  0.55813759  0.87177996  0.12735327  1
  Al  Al28  1  0.10832863  0.75466691  0.87134977  1
  Al  Al29  1  0.22542445  0.86606662  0.62232610  1
  Al  Al30  1  0.77582095  0.76527356  0.37467970  1
  Al  Al31  1  0.88699792  0.87177997  0.12735326  1
  Al  Al32  1  0.45391987  0.75466686  0.87134982  1
  Al  Al33  1  0.55734952  0.87262123  0.62466572  1
  Sc  Sc34  1  0.10759018  0.10173474  0.85478647  1
  Sc  Sc35  1  0.22398096  0.86895355  0.11133389  1
  N  N36  1  0.22254284  0.20592851  0.33896545  1
  N  N37  1  0.10134607  0.11422312  0.08804701  1
  N  N38  1  0.86395991  0.21882047  0.82528447  1
  N  N39  1  0.77549338  0.09359736  0.58016397  1
  N  N40  1  0.55507384  0.20676777  0.33011128  1
  N  N41  1  0.44413225  0.09385566  0.08504810  1
  N  N42  1  0.23413491  0.21882042  0.82528456  1
  N  N43  1  0.11056300  0.09578933  0.59273552  1
  N  N44  1  0.88844415  0.20592847  0.33896552  1
  N  N45  1  0.77892741  0.09385567  0.08504813  1
  N  N46  1  0.55560260  0.20571013  0.83532243  1
  N  N47  1  0.44782453  0.09359741  0.58016402  1
  N  N48  1  0.22281602  0.53951553  0.33468554  1
  N  N49  1  0.11196557  0.42727830  0.09051824  1
  N  N50  1  0.88942805  0.53805928  0.84456638  1
  N  N51  1  0.77942916  0.43332992  0.57592147  1
  N  N52  1  0.55458403  0.53951549  0.33468560  1
  N  N53  1  0.44373735  0.42944073  0.08207023  1
  N  N54  1  0.22304909  0.53637891  0.83026889  1
  N  N55  1  0.10415639  0.43332990  0.57592150  1
  N  N56  1  0.77767151  0.42727833  0.09051823  1
  N  N57  1  0.55748741  0.53637893  0.83026882  1
  N  N58  1  0.44505832  0.42679871  0.58367260  1
  N  N59  1  0.22276199  0.87139156  0.34631314  1
  N  N60  1  0.09974753  0.74953724  0.07862184  1
  N  N61  1  0.88570581  0.87393309  0.83106997  1
  N  N62  1  0.78049872  0.75591797  0.57968973  1
  N  N63  1  0.55662192  0.87096304  0.33427349  1
  N  N64  1  0.46763062  0.74953722  0.07862191  1
  N  N65  1  0.23222917  0.85245722  0.83820156  1
  N  N66  1  0.10935170  0.75992022  0.58608201  1
  N  N67  1  0.88933063  0.87096301  0.33427346  1
  N  N68  1  0.77756617  0.76178307  0.08700901  1
  N  N69  1  0.55727660  0.87393306  0.83106997  1
  N  N70  1  0.44764347  0.75992021  0.58608194  1
  O  O71  1  0.88832816  0.54025926  0.32339325  1
