# generated using pymatgen
data_Sc2Al34N35O
_symmetry_space_group_name_H-M   'P 1'
_cell_length_a   9.70789362
_cell_length_b   9.70394348
_cell_length_c   9.24445422
_cell_angle_alpha   90.03252306
_cell_angle_beta   90.00003449
_cell_angle_gamma   59.98650805
_symmetry_Int_Tables_number   1
_chemical_formula_structural   Sc2Al34N35O
_chemical_formula_sum   'Sc2 Al34 N35 O1'
_cell_volume   754.09493081
_cell_formula_units_Z   1
loop_
 _symmetry_equiv_pos_site_id
 _symmetry_equiv_pos_as_xyz
  1  'x, y, z'
loop_
 _atom_site_type_symbol
 _atom_site_label
 _atom_site_symmetry_multiplicity
 _atom_site_fract_x
 _atom_site_fract_y
 _atom_site_fract_z
 _atom_site_occupancy
  Al  Al0  1  0.10895556  0.09900397  0.33611849  1
  Al  Al1  1  0.22391364  0.21302404  0.08650639  1
  Al  Al2  1  0.77287711  0.09637824  0.83191119  1
  Al  Al3  1  0.88744664  0.20448270  0.57962468  1
  Al  Al4  1  0.44687047  0.09362150  0.33232335  1
  Al  Al5  1  0.55604750  0.20482002  0.08233546  1
  Al  Al6  1  0.22498551  0.20448277  0.57962471  1
  Al  Al7  1  0.77642310  0.09362140  0.33232329  1
  Al  Al8  1  0.87997738  0.21302398  0.08650640  1
  Al  Al9  1  0.44765949  0.09637834  0.83191113  1
  Al  Al10  1  0.55496234  0.20699031  0.58164407  1
  Al  Al11  1  0.11646317  0.42657401  0.33662014  1
  Al  Al12  1  0.21921046  0.53638421  0.08132365  1
  Al  Al13  1  0.77245826  0.42981638  0.82648701  1
  Al  Al14  1  0.88860650  0.53970175  0.59661765  1
  Al  Al15  1  0.44470376  0.42750742  0.32954529  1
  Al  Al16  1  0.56132009  0.53638420  0.08132369  1
  Al  Al17  1  0.11464007  0.42981645  0.82648699  1
  Al  Al18  1  0.22551753  0.53790324  0.58276560  1
  Al  Al19  1  0.77387772  0.42657395  0.33662010  1
  Al  Al20  1  0.88923987  0.53843507  0.07451714  1
  Al  Al21  1  0.44476399  0.42738696  0.83539822  1
  Al  Al22  1  0.55349403  0.53790324  0.58276556  1
  Al  Al23  1  0.10740578  0.75750123  0.33711468  1
  Al  Al24  1  0.77668791  0.76353923  0.82937309  1
  Al  Al25  1  0.88775975  0.87386836  0.58353804  1
  Al  Al26  1  0.45200808  0.75750124  0.33711459  1
  Al  Al27  1  0.56017744  0.87055530  0.08116868  1
  Al  Al28  1  0.11115865  0.75733912  0.82893979  1
  Al  Al29  1  0.22301413  0.87088692  0.58188751  1
  Al  Al30  1  0.77491519  0.76708467  0.33318457  1
  Al  Al31  1  0.88618222  0.87055517  0.08116866  1
  Al  Al32  1  0.44841729  0.75733918  0.82893988  1
  Al  Al33  1  0.55528697  0.87386836  0.58353802  1
  Sc  Sc34  1  0.10948908  0.09793680  0.84638663  1
  Sc  Sc35  1  0.22590117  0.86511255  0.10128916  1
  N  N36  1  0.22372981  0.20636424  0.37317842  1
  N  N37  1  0.10129847  0.11431821  0.12011981  1
  N  N38  1  0.86540194  0.21846649  0.87923583  1
  N  N39  1  0.77674736  0.09512993  0.62471193  1
  N  N40  1  0.55503698  0.20684108  0.37504763  1
  N  N41  1  0.44671064  0.09253398  0.12681084  1
  N  N42  1  0.23304641  0.21846656  0.87923581  1
  N  N43  1  0.11083763  0.09523974  0.61218130  1
  N  N44  1  0.88682095  0.20636415  0.37317837  1
  N  N45  1  0.77767050  0.09253388  0.12681078  1
  N  N46  1  0.55563025  0.20565439  0.87647887  1
  N  N47  1  0.44503771  0.09512996  0.62471188  1
  N  N48  1  0.22465629  0.53668920  0.37789149  1
  N  N49  1  0.10533594  0.43205288  0.13246457  1
  N  N50  1  0.88950934  0.53789604  0.86638666  1
  N  N51  1  0.77795143  0.42816190  0.61841553  1
  N  N52  1  0.55556938  0.53668926  0.37789143  1
  N  N53  1  0.44391144  0.42909196  0.12271802  1
  N  N54  1  0.22121192  0.53892357  0.87402197  1
  N  N55  1  0.11080148  0.42816195  0.61841554  1
  N  N56  1  0.77952610  0.43205285  0.13246457  1
  N  N57  1  0.55677930  0.53892361  0.87402204  1
  N  N58  1  0.44485604  0.42720285  0.62839276  1
  N  N59  1  0.22304675  0.87082159  0.36625194  1
  N  N60  1  0.09876745  0.74932152  0.13172947  1
  N  N61  1  0.88814624  0.87257031  0.87313366  1
  N  N62  1  0.77807353  0.76076806  0.62258699  1
  N  N63  1  0.55772169  0.87254518  0.37840262  1
  N  N64  1  0.46882604  0.74932155  0.13172940  1
  N  N65  1  0.23207047  0.85277406  0.86893710  1
  N  N66  1  0.11039221  0.76049965  0.62052566  1
  N  N67  1  0.88664817  0.87254515  0.37840264  1
  N  N68  1  0.77997013  0.75697473  0.12793028  1
  N  N69  1  0.55619843  0.87257043  0.87313369  1
  N  N70  1  0.44602335  0.76049961  0.62052573  1
  O  O71  1  0.88822907  0.54045677  0.38362297  1
