# generated using pymatgen
data_Sc2Al34N35O
_symmetry_space_group_name_H-M   'P 1'
_cell_length_a   9.44222569
_cell_length_b   9.43912136
_cell_length_c   10.00957490
_cell_angle_alpha   89.98351130
_cell_angle_beta   89.99999573
_cell_angle_gamma   59.98912992
_symmetry_Int_Tables_number   1
_chemical_formula_structural   Sc2Al34N35O
_chemical_formula_sum   'Sc2 Al34 N35 O1'
_cell_volume   772.51088575
_cell_formula_units_Z   1
loop_
 _symmetry_equiv_pos_site_id
 _symmetry_equiv_pos_as_xyz
  1  'x, y, z'
loop_
 _atom_site_type_symbol
 _atom_site_label
 _atom_site_symmetry_multiplicity
 _atom_site_fract_x
 _atom_site_fract_y
 _atom_site_fract_z
 _atom_site_occupancy
  Al  Al0  1  0.10869346  0.09938529  0.30026386  1
  Al  Al1  1  0.22375479  0.21110332  0.05171530  1
  Al  Al2  1  0.77342827  0.09606153  0.79961044  1
  Al  Al3  1  0.88671996  0.20566514  0.54555216  1
  Al  Al4  1  0.44614442  0.09411675  0.29898445  1
  Al  Al5  1  0.55563022  0.20551180  0.04896061  1
  Al  Al6  1  0.22438717  0.20566516  0.54555214  1
  Al  Al7  1  0.77651105  0.09411676  0.29898445  1
  Al  Al8  1  0.88191414  0.21110331  0.05171526  1
  Al  Al9  1  0.44728253  0.09606156  0.79961046  1
  Al  Al10  1  0.55538786  0.20599655  0.54947056  1
  Al  Al11  1  0.11882134  0.42529254  0.29715518  1
  Al  Al12  1  0.22075863  0.53663452  0.04802570  1
  Al  Al13  1  0.77352812  0.43047546  0.79890790  1
  Al  Al14  1  0.88895705  0.53885817  0.55781134  1
  Al  Al15  1  0.44460712  0.42755799  0.29891241  1
  Al  Al16  1  0.55937912  0.53663449  0.04802568  1
  Al  Al17  1  0.11276866  0.43047551  0.79890792  1
  Al  Al18  1  0.22370466  0.53795122  0.55021949  1
  Al  Al19  1  0.77265837  0.42529255  0.29715517  1
  Al  Al20  1  0.88893008  0.53891208  0.04730547  1
  Al  Al21  1  0.44450158  0.42776907  0.80035630  1
  Al  Al22  1  0.55511638  0.53795122  0.55021948  1
  Al  Al23  1  0.10792851  0.75789946  0.30133750  1
  Al  Al24  1  0.77755461  0.76166300  0.79894461  1
  Al  Al25  1  0.88821236  0.87312870  0.55037580  1
  Al  Al26  1  0.45094429  0.75789945  0.30133749  1
  Al  Al27  1  0.55923561  0.87119907  0.04827719  1
  Al  Al28  1  0.11148129  0.75752116  0.79581193  1
  Al  Al29  1  0.22333884  0.87009457  0.54291520  1
  Al  Al30  1  0.77364869  0.76947489  0.29678652  1
  Al  Al31  1  0.88633763  0.87119907  0.04827720  1
  Al  Al32  1  0.44776984  0.75752110  0.79581192  1
  Al  Al33  1  0.55543120  0.87312870  0.55037579  1
  Sc  Sc34  1  0.10983259  0.09710724  0.80028427  1
  Sc  Sc35  1  0.22449631  0.86777980  0.06120164  1
  N  N36  1  0.22282466  0.20792995  0.35576476  1
  N  N37  1  0.10047159  0.11582902  0.10893934  1
  N  N38  1  0.86804328  0.21642045  0.86326463  1
  N  N39  1  0.77755072  0.09484983  0.60774840  1
  N  N40  1  0.55536595  0.20604034  0.35820093  1
  N  N41  1  0.44628772  0.09302687  0.10897940  1
  N  N42  1  0.23230863  0.21642053  0.86326470  1
  N  N43  1  0.11125519  0.09426187  0.58946658  1
  N  N44  1  0.88601762  0.20792996  0.35576477  1
  N  N45  1  0.77745761  0.09302688  0.10897940  1
  N  N46  1  0.55531839  0.20613557  0.85846397  1
  N  N47  1  0.44437168  0.09484984  0.60774841  1
  N  N48  1  0.22250367  0.53726161  0.36013322  1
  N  N49  1  0.10817087  0.43057387  0.11047240  1
  N  N50  1  0.88916315  0.53844595  0.85588580  1
  N  N51  1  0.77860170  0.42756473  0.60584918  1
  N  N52  1  0.55700698  0.53726162  0.36013321  1
  N  N53  1  0.44398939  0.42879344  0.10742015  1
  N  N54  1  0.22197586  0.53929558  0.85702497  1
  N  N55  1  0.11060580  0.42756473  0.60584919  1
  N  N56  1  0.77802749  0.43057385  0.11047239  1
  N  N57  1  0.55550086  0.53929553  0.85702496  1
  N  N58  1  0.44467824  0.42741575  0.60877389  1
  N  N59  1  0.22306631  0.87063967  0.34747164  1
  N  N60  1  0.09891600  0.74934286  0.11439052  1
  N  N61  1  0.88880327  0.87234673  0.85637915  1
  N  N62  1  0.77832117  0.76012991  0.60677126  1
  N  N63  1  0.55776159  0.87186119  0.36010238  1
  N  N64  1  0.46851354  0.74934279  0.11439053  1
  N  N65  1  0.23147402  0.85382426  0.85228145  1
  N  N66  1  0.11094366  0.76073148  0.60389856  1
  N  N67  1  0.88714948  0.87186120  0.36010239  1
  N  N68  1  0.77872881  0.75931465  0.10880804  1
  N  N69  1  0.55562224  0.87234674  0.85637915  1
  N  N70  1  0.44509710  0.76073148  0.60389856  1
  O  O71  1  0.88873851  0.53929529  0.35941650  1
