# generated using pymatgen
data_Sc2Al34N35O
_symmetry_space_group_name_H-M   'P 1'
_cell_length_a   9.44316487
_cell_length_b   9.43987732
_cell_length_c   10.00757921
_cell_angle_alpha   89.96850889
_cell_angle_beta   90.00000217
_cell_angle_gamma   59.98846774
_symmetry_Int_Tables_number   1
_chemical_formula_structural   Sc2Al34N35O
_chemical_formula_sum   'Sc2 Al34 N35 O1'
_cell_volume   772.49027925
_cell_formula_units_Z   1
loop_
 _symmetry_equiv_pos_site_id
 _symmetry_equiv_pos_as_xyz
  1  'x, y, z'
loop_
 _atom_site_type_symbol
 _atom_site_label
 _atom_site_symmetry_multiplicity
 _atom_site_fract_x
 _atom_site_fract_y
 _atom_site_fract_z
 _atom_site_occupancy
  Al  Al0  1  0.11069384  0.09567012  0.41697104  1
  Al  Al1  1  0.22253473  0.20824852  0.16183563  1
  Al  Al2  1  0.77346480  0.09588553  0.90928145  1
  Al  Al3  1  0.88178626  0.20905956  0.65665869  1
  Al  Al4  1  0.44602273  0.09429812  0.40866015  1
  Al  Al5  1  0.55542720  0.20620341  0.15863470  1
  Al  Al6  1  0.22621191  0.20905949  0.65665870  1
  Al  Al7  1  0.77673692  0.09429817  0.40866017  1
  Al  Al8  1  0.88627460  0.20824852  0.16183565  1
  Al  Al9  1  0.44770753  0.09588553  0.90928143  1
  Al  Al10  1  0.55580735  0.20544300  0.65969349  1
  Al  Al11  1  0.11818194  0.42569943  0.41036193  1
  Al  Al12  1  0.22209390  0.53658445  0.15837147  1
  Al  Al13  1  0.77314973  0.43026740  0.91004740  1
  Al  Al14  1  0.88898096  0.53909586  0.66190648  1
  Al  Al15  1  0.44466263  0.42773254  0.40917274  1
  Al  Al16  1  0.55837944  0.53658447  0.15837148  1
  Al  Al17  1  0.11364080  0.43026733  0.91004737  1
  Al  Al18  1  0.22278073  0.53814044  0.65988600  1
  Al  Al19  1  0.77317656  0.42569944  0.41036194  1
  Al  Al20  1  0.88910067  0.53885657  0.14935081  1
  Al  Al21  1  0.44464432  0.42776916  0.90796428  1
  Al  Al22  1  0.55613654  0.53814045  0.65988603  1
  Al  Al23  1  0.11013761  0.76061278  0.41411126  1
  Al  Al24  1  0.77734664  0.76236440  0.90942738  1
  Al  Al25  1  0.88794883  0.87298836  0.65962431  1
  Al  Al26  1  0.44630748  0.76061272  0.41411125  1
  Al  Al27  1  0.55874560  0.87147090  0.15818856  1
  Al  Al28  1  0.10971803  0.75528811  0.90598365  1
  Al  Al29  1  0.22546368  0.86613034  0.65809071  1
  Al  Al30  1  0.77411302  0.76883184  0.41107344  1
  Al  Al31  1  0.88684130  0.87147084  0.15818856  1
  Al  Al32  1  0.45205151  0.75528813  0.90598369  1
  Al  Al33  1  0.55612053  0.87298835  0.65962431  1
  Sc  Sc34  1  0.10909968  0.09885836  0.89580663  1
  Sc  Sc35  1  0.22371363  0.86963040  0.15709565  1
  N  N36  1  0.22115734  0.20683226  0.35408419  1
  N  N37  1  0.10193347  0.11319093  0.10537015  1
  N  N38  1  0.86472263  0.21793381  0.84388070  1
  N  N39  1  0.77669211  0.09354205  0.59811994  1
  N  N40  1  0.55536544  0.20632689  0.34946475  1
  N  N41  1  0.44433852  0.09442364  0.10181832  1
  N  N42  1  0.23440135  0.21793371  0.84388070  1
  N  N43  1  0.11045518  0.09614736  0.61143000  1
  N  N44  1  0.88906820  0.20683226  0.35408421  1
  N  N45  1  0.77829573  0.09442360  0.10181835  1
  N  N46  1  0.55553513  0.20598754  0.85060715  1
  N  N47  1  0.44682360  0.09354202  0.59811993  1
  N  N48  1  0.22118588  0.54014515  0.35015628  1
  N  N49  1  0.11094452  0.42761994  0.10313645  1
  N  N50  1  0.88937752  0.53830283  0.85331904  1
  N  N51  1  0.77801251  0.43113597  0.59730044  1
  N  N52  1  0.55572684  0.54014509  0.35015631  1
  N  N53  1  0.44426407  0.42852969  0.10050470  1
  N  N54  1  0.22342440  0.53694144  0.84918655  1
  N  N55  1  0.10790936  0.43113591  0.59730043  1
  N  N56  1  0.77849342  0.42761998  0.10313650  1
  N  N57  1  0.55669192  0.53694146  0.84918659  1
  N  N58  1  0.44464269  0.42777240  0.59985823  1
  N  N59  1  0.22218759  0.87268263  0.36824149  1
  N  N60  1  0.10084478  0.75079305  0.09482918  1
  N  N61  1  0.88678332  0.87366255  0.84982908  1
  N  N62  1  0.77895089  0.75915600  0.59909423  1
  N  N63  1  0.55681514  0.87059214  0.35016305  1
  N  N64  1  0.46541989  0.75079312  0.09482923  1
  N  N65  1  0.23309937  0.85085889  0.84971206  1
  N  N66  1  0.10939812  0.75962485  0.60304780  1
  N  N67  1  0.88965052  0.87059218  0.35016304  1
  N  N68  1  0.77834032  0.76037716  0.10187437  1
  N  N69  1  0.55661179  0.87366255  0.84982909  1
  N  N70  1  0.44803479  0.75962486  0.60304782  1
  O  O71  1  0.88879022  0.53947753  0.34831588  1
