# generated using pymatgen
data_Sc2Al34N35O
_symmetry_space_group_name_H-M   'P 1'
_cell_length_a   9.44323132
_cell_length_b   9.43992648
_cell_length_c   10.00742354
_cell_angle_alpha   89.96867991
_cell_angle_beta   89.99999232
_cell_angle_gamma   59.98841993
_symmetry_Int_Tables_number   1
_chemical_formula_structural   Sc2Al34N35O
_chemical_formula_sum   'Sc2 Al34 N35 O1'
_cell_volume   772.48735136
_cell_formula_units_Z   1
loop_
 _symmetry_equiv_pos_site_id
 _symmetry_equiv_pos_as_xyz
  1  'x, y, z'
loop_
 _atom_site_type_symbol
 _atom_site_label
 _atom_site_symmetry_multiplicity
 _atom_site_fract_x
 _atom_site_fract_y
 _atom_site_fract_z
 _atom_site_occupancy
  Al  Al0  1  0.11065651  0.09566050  0.40180976  1
  Al  Al1  1  0.22249688  0.20823927  0.14667747  1
  Al  Al2  1  0.77342746  0.09587711  0.89412019  1
  Al  Al3  1  0.88174774  0.20905118  0.64149576  1
  Al  Al4  1  0.44598578  0.09428920  0.39349578  1
  Al  Al5  1  0.55538921  0.20619514  0.14346999  1
  Al  Al6  1  0.22617458  0.20905114  0.64149576  1
  Al  Al7  1  0.77669853  0.09428927  0.39349578  1
  Al  Al8  1  0.88623742  0.20823931  0.14667747  1
  Al  Al9  1  0.44766912  0.09587706  0.89412018  1
  Al  Al10  1  0.55576987  0.20543372  0.64453124  1
  Al  Al11  1  0.11814421  0.42569137  0.39520037  1
  Al  Al12  1  0.22205690  0.53657536  0.14320844  1
  Al  Al13  1  0.77311247  0.43025785  0.89489011  1
  Al  Al14  1  0.88894343  0.53908660  0.64674943  1
  Al  Al15  1  0.44462485  0.42772385  0.39400992  1
  Al  Al16  1  0.55834127  0.53657538  0.14320845  1
  Al  Al17  1  0.11360329  0.43025787  0.89489014  1
  Al  Al18  1  0.22274250  0.53813155  0.64472424  1
  Al  Al19  1  0.77313805  0.42569139  0.39520038  1
  Al  Al20  1  0.88906272  0.53884817  0.13419495  1
  Al  Al21  1  0.44460656  0.42776039  0.89279942  1
  Al  Al22  1  0.55609938  0.53813155  0.64472423  1
  Al  Al23  1  0.11009991  0.76060417  0.39894829  1
  Al  Al24  1  0.77730909  0.76235532  0.89426727  1
  Al  Al25  1  0.88791085  0.87298008  0.64446267  1
  Al  Al26  1  0.44626952  0.76060412  0.39894824  1
  Al  Al27  1  0.55870832  0.87146153  0.14302547  1
  Al  Al28  1  0.10967996  0.75527908  0.89082092  1
  Al  Al29  1  0.22542611  0.86612127  0.64292791  1
  Al  Al30  1  0.77407487  0.76882390  0.39591378  1
  Al  Al31  1  0.88680366  0.87146152  0.14302547  1
  Al  Al32  1  0.45201444  0.75527904  0.89082095  1
  Al  Al33  1  0.55608257  0.87298006  0.64446263  1
  Sc  Sc34  1  0.10906163  0.09885048  0.88064430  1
  Sc  Sc35  1  0.22367591  0.86962152  0.14192923  1
  N  N36  1  0.22111964  0.20682305  0.33892706  1
  N  N37  1  0.10189508  0.11318343  0.09021191  1
  N  N38  1  0.86468479  0.21792527  0.82872171  1
  N  N39  1  0.77665405  0.09353324  0.58295897  1
  N  N40  1  0.55532750  0.20631855  0.33430306  1
  N  N41  1  0.44430009  0.09441488  0.08665959  1
  N  N42  1  0.23436363  0.21792529  0.82872170  1
  N  N43  1  0.11041754  0.09613839  0.59627179  1
  N  N44  1  0.88903089  0.20682308  0.33892707  1
  N  N45  1  0.77825864  0.09441489  0.08665963  1
  N  N46  1  0.55549796  0.20597770  0.83544778  1
  N  N47  1  0.44678622  0.09353321  0.58295895  1
  N  N48  1  0.22114881  0.54013595  0.33499627  1
  N  N49  1  0.11090634  0.42761079  0.08798130  1
  N  N50  1  0.88934034  0.53829295  0.83816361  1
  N  N51  1  0.77797502  0.43112801  0.58214131  1
  N  N52  1  0.55568887  0.54013591  0.33499629  1
  N  N53  1  0.44422629  0.42852098  0.08534268  1
  N  N54  1  0.22338605  0.53693187  0.83402770  1
  N  N55  1  0.10787045  0.43112798  0.58214129  1
  N  N56  1  0.77845645  0.42761083  0.08798129  1
  N  N57  1  0.55665565  0.53693184  0.83402771  1
  N  N58  1  0.44460488  0.42776370  0.58469882  1
  N  N59  1  0.22214998  0.87267363  0.35307941  1
  N  N60  1  0.10080671  0.75078350  0.07966956  1
  N  N61  1  0.88674537  0.87365369  0.83467034  1
  N  N62  1  0.77891355  0.75914644  0.58393686  1
  N  N63  1  0.55677806  0.87058278  0.33500304  1
  N  N64  1  0.46538316  0.75078358  0.07966962  1
  N  N65  1  0.23306178  0.85084995  0.83455410  1
  N  N66  1  0.10936029  0.75961623  0.58788818  1
  N  N67  1  0.88961275  0.87058283  0.33500305  1
  N  N68  1  0.77830301  0.76036751  0.08671613  1
  N  N69  1  0.55657446  0.87365365  0.83467032  1
  N  N70  1  0.44799700  0.75961620  0.58788814  1
  O  O71  1  0.88875223  0.53946920  0.33315661  1
