# generated using pymatgen
data_Sc2Al34N35O
_symmetry_space_group_name_H-M   'P 1'
_cell_length_a   9.97123481
_cell_length_b   9.96852366
_cell_length_c   8.42578450
_cell_angle_alpha   90.01071313
_cell_angle_beta   90.00000405
_cell_angle_gamma   59.99100208
_symmetry_Int_Tables_number   1
_chemical_formula_structural   Sc2Al34N35O
_chemical_formula_sum   'Sc2 Al34 N35 O1'
_cell_volume   725.23937022
_cell_formula_units_Z   1
loop_
 _symmetry_equiv_pos_site_id
 _symmetry_equiv_pos_as_xyz
  1  'x, y, z'
loop_
 _atom_site_type_symbol
 _atom_site_label
 _atom_site_symmetry_multiplicity
 _atom_site_fract_x
 _atom_site_fract_y
 _atom_site_fract_z
 _atom_site_occupancy
  Al  Al0  1  0.10967205  0.09757177  0.35738477  1
  Al  Al1  1  0.22420008  0.20910858  0.11043489  1
  Al  Al2  1  0.77353888  0.09541286  0.85525541  1
  Al  Al3  1  0.88371619  0.20859785  0.60124595  1
  Al  Al4  1  0.44655249  0.09420795  0.35653880  1
  Al  Al5  1  0.55536591  0.20618358  0.10623857  1
  Al  Al6  1  0.22460144  0.20859815  0.60124602  1
  Al  Al7  1  0.77615497  0.09420777  0.35653878  1
  Al  Al8  1  0.88360731  0.20910823  0.11043502  1
  Al  Al9  1  0.44796373  0.09541297  0.85525541  1
  Al  Al10  1  0.55549046  0.20593436  0.60562320  1
  Al  Al11  1  0.11458217  0.42731658  0.35574011  1
  Al  Al12  1  0.22262023  0.53633596  0.10820644  1
  Al  Al13  1  0.77251194  0.42993142  0.85947543  1
  Al  Al14  1  0.88894634  0.53902212  0.62325130  1
  Al  Al15  1  0.44483333  0.42724828  0.35735338  1
  Al  Al16  1  0.55795911  0.53633579  0.10820645  1
  Al  Al17  1  0.11447151  0.42993173  0.85947537  1
  Al  Al18  1  0.22241129  0.53807896  0.60509390  1
  Al  Al19  1  0.77501644  0.42731612  0.35574013  1
  Al  Al20  1  0.88876955  0.53937576  0.09547569  1
  Al  Al21  1  0.44471898  0.42747702  0.85496693  1
  Al  Al22  1  0.55642496  0.53807872  0.60509390  1
  Al  Al23  1  0.10894089  0.75903048  0.35999876  1
  Al  Al24  1  0.77630372  0.76430804  0.85835530  1
  Al  Al25  1  0.88775389  0.87236692  0.60512169  1
  Al  Al26  1  0.44894434  0.75903034  0.35999869  1
  Al  Al27  1  0.55856232  0.87201981  0.10750546  1
  Al  Al28  1  0.10938079  0.75629588  0.85205238  1
  Al  Al29  1  0.22454733  0.86782117  0.60289005  1
  Al  Al30  1  0.77600550  0.76490443  0.35625907  1
  Al  Al31  1  0.88633354  0.87201973  0.10750542  1
  Al  Al32  1  0.45123911  0.75629576  0.85205248  1
  Al  Al33  1  0.55679461  0.87236688  0.60512170  1
  Sc  Sc34  1  0.10863564  0.09964446  0.85083636  1
  Sc  Sc35  1  0.22500073  0.86691427  0.10663966  1
  N  N36  1  0.22402863  0.20728814  0.35424083  1
  N  N37  1  0.10272685  0.11146220  0.11167788  1
  N  N38  1  0.86861138  0.21654924  0.84977616  1
  N  N39  1  0.77652578  0.09397213  0.60056964  1
  N  N40  1  0.55520656  0.20650227  0.35135104  1
  N  N41  1  0.44550381  0.09349140  0.10387249  1
  N  N42  1  0.23175478  0.21654956  0.84977619  1
  N  N43  1  0.10993449  0.09704674  0.59440865  1
  N  N44  1  0.88559900  0.20728769  0.35424082  1
  N  N45  1  0.77792035  0.09349133  0.10387249  1
  N  N46  1  0.55535433  0.20620691  0.85319029  1
  N  N47  1  0.44641746  0.09397214  0.60056967  1
  N  N48  1  0.22328639  0.53788218  0.35369915  1
  N  N49  1  0.10848211  0.42975729  0.10787433  1
  N  N50  1  0.88917961  0.53855567  0.85599262  1
  N  N51  1  0.77975214  0.43207774  0.59490745  1
  N  N52  1  0.55574664  0.53788196  0.35369913  1
  N  N53  1  0.44403816  0.42883878  0.10201510  1
  N  N54  1  0.22290649  0.53709714  0.85020578  1
  N  N55  1  0.10508500  0.43207807  0.59490749  1
  N  N56  1  0.77867592  0.42975691  0.10787435  1
  N  N57  1  0.55691160  0.53709693  0.85020581  1
  N  N58  1  0.44467092  0.42757319  0.60235967  1
  N  N59  1  0.22360017  0.86971540  0.36298991  1
  N  N60  1  0.10126986  0.75129247  0.10257769  1
  N  N61  1  0.88650116  0.87303057  0.85044347  1
  N  N62  1  0.78048573  0.75594396  0.59746231  1
  N  N63  1  0.55710463  0.87206268  0.35372542  1
  N  N64  1  0.46435343  0.75129230  0.10257767  1
  N  N65  1  0.23088390  0.85514790  0.84499880  1
  N  N66  1  0.10893912  0.75950555  0.60200832  1
  N  N67  1  0.88774823  0.87206256  0.35372542  1
  N  N68  1  0.77892792  0.75905973  0.10583525  1
  N  N69  1  0.55738379  0.87303068  0.85044348  1
  N  N70  1  0.44847104  0.75950527  0.60200833  1
  O  O71  1  0.88846365  0.53998758  0.34365189  1
