# generated using pymatgen
data_Sc2Al34N35O
_symmetry_space_group_name_H-M   'P 1'
_cell_length_a   9.49602343
_cell_length_b   9.49242877
_cell_length_c   9.86451378
_cell_angle_alpha   89.98378044
_cell_angle_beta   89.99996158
_cell_angle_gamma   59.98750354
_symmetry_Int_Tables_number   1
_chemical_formula_structural   Sc2Al34N35O
_chemical_formula_sum   'Sc2 Al34 N35 O1'
_cell_volume   769.96452419
_cell_formula_units_Z   1
loop_
 _symmetry_equiv_pos_site_id
 _symmetry_equiv_pos_as_xyz
  1  'x, y, z'
loop_
 _atom_site_type_symbol
 _atom_site_label
 _atom_site_symmetry_multiplicity
 _atom_site_fract_x
 _atom_site_fract_y
 _atom_site_fract_z
 _atom_site_occupancy
  Al  Al0  1  0.11118034  0.09455467  0.39022739  1
  Al  Al1  1  0.22220823  0.20792171  0.13503047  1
  Al  Al2  1  0.77341095  0.09585683  0.88303161  1
  Al  Al3  1  0.88047420  0.20976351  0.62921687  1
  Al  Al4  1  0.44624800  0.09416757  0.38170681  1
  Al  Al5  1  0.55528156  0.20635230  0.13176047  1
  Al  Al6  1  0.22667769  0.20976348  0.62921687  1
  Al  Al7  1  0.77649977  0.09416761  0.38170682  1
  Al  Al8  1  0.88678548  0.20792172  0.13503047  1
  Al  Al9  1  0.44764758  0.09585679  0.88303161  1
  Al  Al10  1  0.55583613  0.20524308  0.63357069  1
  Al  Al11  1  0.11757860  0.42579967  0.38266616  1
  Al  Al12  1  0.22235411  0.53646828  0.13259590  1
  Al  Al13  1  0.77255357  0.43018077  0.88446737  1
  Al  Al14  1  0.88898964  0.53893611  0.63648662  1
  Al  Al15  1  0.44481003  0.42729529  0.38297760  1
  Al  Al16  1  0.55809301  0.53646829  0.13259591  1
  Al  Al17  1  0.11418111  0.43018072  0.88446735  1
  Al  Al18  1  0.22249699  0.53810173  0.63273301  1
  Al  Al19  1  0.77353714  0.42579968  0.38266614  1
  Al  Al20  1  0.88895336  0.53900879  0.12174995  1
  Al  Al21  1  0.44447129  0.42797278  0.88121540  1
  Al  Al22  1  0.55631666  0.53810174  0.63273300  1
  Al  Al23  1  0.11059224  0.76090086  0.38643583  1
  Al  Al24  1  0.77702241  0.76287050  0.88325928  1
  Al  Al25  1  0.88786466  0.87288247  0.63253421  1
  Al  Al26  1  0.44542229  0.76090083  0.38643581  1
  Al  Al27  1  0.55882884  0.87143386  0.13227395  1
  Al  Al28  1  0.10888870  0.75477736  0.87969597  1
  Al  Al29  1  0.22587814  0.86515912  0.63295949  1
  Al  Al30  1  0.77439873  0.76811792  0.38419313  1
  Al  Al31  1  0.88665271  0.87143384  0.13227394  1
  Al  Al32  1  0.45324930  0.75477733  0.87969597  1
  Al  Al33  1  0.55616826  0.87288248  0.63253420  1
  Sc  Sc34  1  0.10813934  0.10063661  0.86464965  1
  Sc  Sc35  1  0.22319518  0.87052513  0.12460625  1
  N  N36  1  0.22116347  0.20621665  0.32988232  1
  N  N37  1  0.10102954  0.11485632  0.07785469  1
  N  N38  1  0.86309277  0.21880673  0.81905912  1
  N  N39  1  0.77629472  0.09345822  0.57339277  1
  N  N40  1  0.55528701  0.20634145  0.32473782  1
  N  N41  1  0.44424905  0.09420634  0.07775309  1
  N  N42  1  0.23501598  0.21880663  0.81905914  1
  N  N43  1  0.11066839  0.09557856  0.58858397  1
  N  N44  1  0.88953537  0.20621664  0.32988231  1
  N  N45  1  0.77845999  0.09420634  0.07775308  1
  N  N46  1  0.55552084  0.20587377  0.82673743  1
  N  N47  1  0.44716241  0.09345821  0.57339276  1
  N  N48  1  0.22162710  0.53978798  0.32629279  1
  N  N49  1  0.11115373  0.42761290  0.07971944  1
  N  N50  1  0.88941654  0.53808247  0.83042650  1
  N  N51  1  0.77818446  0.43162301  0.57209610  1
  N  N52  1  0.55550044  0.53978794  0.32629280  1
  N  N53  1  0.44408941  0.42873657  0.07598357  1
  N  N54  1  0.22322544  0.53697371  0.82442468  1
  N  N55  1  0.10710791  0.43162299  0.57209613  1
  N  N56  1  0.77814878  0.42761293  0.07971944  1
  N  N57  1  0.55671638  0.53697369  0.82442467  1
  N  N58  1  0.44474195  0.42743145  0.57580304  1
  N  N59  1  0.22206788  0.87277979  0.34005527  1
  N  N60  1  0.10007072  0.74999081  0.07097535  1
  N  N61  1  0.88648177  0.87376378  0.82511009  1
  N  N62  1  0.77924303  0.75842931  0.57460705  1
  N  N63  1  0.55689604  0.87048690  0.32619148  1
  N  N64  1  0.46685381  0.74999083  0.07097534  1
  N  N65  1  0.23310922  0.85069706  0.82852578  1
  N  N66  1  0.10969183  0.75989780  0.57834086  1
  N  N67  1  0.88953257  0.87048691  0.32619148  1
  N  N68  1  0.77811606  0.76068327  0.07784026  1
  N  N69  1  0.55666994  0.87376375  0.82511008  1
  N  N70  1  0.44732574  0.75989780  0.57834085  1
  O  O71  1  0.88868668  0.53954216  0.32247279  1
