# generated using pymatgen
data_Sc2Al34N35O
_symmetry_space_group_name_H-M   'P 1'
_cell_length_a   9.44317789
_cell_length_b   9.43989128
_cell_length_c   10.00752645
_cell_angle_alpha   89.96860979
_cell_angle_beta   89.99999788
_cell_angle_gamma   59.98848283
_symmetry_Int_Tables_number   1
_chemical_formula_structural   Sc2Al34N35O
_chemical_formula_sum   'Sc2 Al34 N35 O1'
_cell_volume   772.48853268
_cell_formula_units_Z   1
loop_
 _symmetry_equiv_pos_site_id
 _symmetry_equiv_pos_as_xyz
  1  'x, y, z'
loop_
 _atom_site_type_symbol
 _atom_site_label
 _atom_site_symmetry_multiplicity
 _atom_site_fract_x
 _atom_site_fract_y
 _atom_site_fract_z
 _atom_site_occupancy
  Al  Al0  1  0.11066695  0.09566166  0.40576477  1
  Al  Al1  1  0.22250544  0.20824286  0.15062636  1
  Al  Al2  1  0.77343720  0.09587957  0.89808035  1
  Al  Al3  1  0.88175622  0.20905340  0.64544818  1
  Al  Al4  1  0.44599539  0.09429054  0.39745581  1
  Al  Al5  1  0.55539899  0.20619761  0.14743379  1
  Al  Al6  1  0.22618588  0.20905337  0.64544814  1
  Al  Al7  1  0.77670960  0.09429058  0.39745582  1
  Al  Al8  1  0.88624732  0.20824285  0.15062635  1
  Al  Al9  1  0.44767889  0.09587954  0.89808033  1
  Al  Al10  1  0.55578021  0.20543505  0.64849432  1
  Al  Al11  1  0.11815488  0.42569178  0.39915760  1
  Al  Al12  1  0.22206651  0.53657864  0.14716868  1
  Al  Al13  1  0.77312204  0.43026110  0.89884424  1
  Al  Al14  1  0.88895334  0.53908881  0.65070068  1
  Al  Al15  1  0.44463536  0.42772482  0.39797315  1
  Al  Al16  1  0.55835041  0.53657862  0.14716869  1
  Al  Al17  1  0.11361247  0.43026111  0.89884422  1
  Al  Al18  1  0.22275270  0.53813430  0.64868348  1
  Al  Al19  1  0.77314900  0.42569177  0.39915761  1
  Al  Al20  1  0.88907269  0.53885023  0.13814917  1
  Al  Al21  1  0.44461644  0.42776264  0.89676240  1
  Al  Al22  1  0.55610846  0.53813428  0.64868350  1
  Al  Al23  1  0.11011102  0.76060619  0.40289852  1
  Al  Al24  1  0.77731919  0.76235707  0.89822640  1
  Al  Al25  1  0.88792193  0.87298108  0.64842151  1
  Al  Al26  1  0.44627841  0.76060612  0.40289852  1
  Al  Al27  1  0.55871784  0.87146397  0.14698544  1
  Al  Al28  1  0.10968909  0.75528157  0.89477476  1
  Al  Al29  1  0.22543717  0.86612113  0.64688445  1
  Al  Al30  1  0.77408543  0.76882475  0.39987160  1
  Al  Al31  1  0.88681375  0.87146394  0.14698543  1
  Al  Al32  1  0.45202480  0.75528152  0.89477476  1
  Al  Al33  1  0.55609247  0.87298107  0.64842150  1
  Sc  Sc34  1  0.10907010  0.09885553  0.88458851  1
  Sc  Sc35  1  0.22368327  0.86962900  0.14587683  1
  N  N36  1  0.22112959  0.20682452  0.34287745  1
  N  N37  1  0.10190274  0.11319014  0.09415359  1
  N  N38  1  0.86469095  0.21792918  0.83267234  1
  N  N39  1  0.77666368  0.09353414  0.58691576  1
  N  N40  1  0.55533776  0.20632004  0.33826327  1
  N  N41  1  0.44431090  0.09441709  0.09061606  1
  N  N42  1  0.23437553  0.21792920  0.83267230  1
  N  N43  1  0.11042800  0.09613948  0.60022526  1
  N  N44  1  0.88904149  0.20682451  0.34287745  1
  N  N45  1  0.77826762  0.09441708  0.09061609  1
  N  N46  1  0.55550761  0.20598038  0.83940718  1
  N  N47  1  0.44679768  0.09353413  0.58691575  1
  N  N48  1  0.22115983  0.54013644  0.33895296  1
  N  N49  1  0.11091612  0.42761517  0.09193297  1
  N  N50  1  0.88934967  0.53829625  0.84211409  1
  N  N51  1  0.77798418  0.43112980  0.58609539  1
  N  N52  1  0.55569936  0.54013638  0.33895298  1
  N  N53  1  0.44423633  0.42852289  0.08930231  1
  N  N54  1  0.22339666  0.53693476  0.83798354  1
  N  N55  1  0.10788152  0.43112978  0.58609539  1
  N  N56  1  0.77846431  0.42761518  0.09193299  1
  N  N57  1  0.55666414  0.53693472  0.83798356  1
  N  N58  1  0.44461555  0.42776436  0.58865827  1
  N  N59  1  0.22215944  0.87267672  0.35702594  1
  N  N60  1  0.10081616  0.75078598  0.08362271  1
  N  N61  1  0.88675453  0.87365654  0.83862619  1
  N  N62  1  0.77892324  0.75914903  0.58789183  1
  N  N63  1  0.55678864  0.87058475  0.33895913  1
  N  N64  1  0.46539340  0.75078598  0.08362272  1
  N  N65  1  0.23307183  0.85085181  0.83850724  1
  N  N66  1  0.10937086  0.75961791  0.59183903  1
  N  N67  1  0.88962216  0.87058479  0.33895912  1
  N  N68  1  0.77831259  0.76037037  0.09067225  1
  N  N69  1  0.55658439  0.87365651  0.83862620  1
  N  N70  1  0.44800672  0.75961789  0.59183904  1
  O  O71  1  0.88876261  0.53947046  0.33711163  1
