# generated using pymatgen
data_Sc2Al34N35O
_symmetry_space_group_name_H-M   'P 1'
_cell_length_a   9.60451213
_cell_length_b   9.60035246
_cell_length_c   9.55726565
_cell_angle_alpha   90.02718976
_cell_angle_beta   90.00004450
_cell_angle_gamma   59.98563637
_symmetry_Int_Tables_number   1
_chemical_formula_structural   Sc2Al34N35O
_chemical_formula_sum   'Sc2 Al34 N35 O1'
_cell_volume   763.06904242
_cell_formula_units_Z   1
loop_
 _symmetry_equiv_pos_site_id
 _symmetry_equiv_pos_as_xyz
  1  'x, y, z'
loop_
 _atom_site_type_symbol
 _atom_site_label
 _atom_site_symmetry_multiplicity
 _atom_site_fract_x
 _atom_site_fract_y
 _atom_site_fract_z
 _atom_site_occupancy
  Al  Al0  1  0.10842873  0.10005750  0.32873375  1
  Al  Al1  1  0.22445030  0.21279062  0.08146633  1
  Al  Al2  1  0.77289775  0.09636998  0.82814811  1
  Al  Al3  1  0.88805925  0.20454969  0.57638744  1
  Al  Al4  1  0.44659128  0.09379478  0.32880424  1
  Al  Al5  1  0.55594205  0.20503087  0.07847966  1
  Al  Al6  1  0.22430594  0.20454978  0.57638746  1
  Al  Al7  1  0.77652892  0.09379475  0.32880419  1
  Al  Al8  1  0.87967407  0.21279055  0.08146633  1
  Al  Al9  1  0.44764715  0.09637006  0.82814806  1
  Al  Al10  1  0.55508329  0.20674845  0.57820590  1
  Al  Al11  1  0.11771591  0.42582289  0.33039529  1
  Al  Al12  1  0.21965363  0.53643068  0.07720546  1
  Al  Al13  1  0.77286299  0.43029769  0.82478582  1
  Al  Al14  1  0.88870959  0.53949570  0.58991553  1
  Al  Al15  1  0.44470590  0.42750311  0.32676365  1
  Al  Al16  1  0.56083053  0.53643072  0.07720549  1
  Al  Al17  1  0.11375419  0.43029771  0.82478582  1
  Al  Al18  1  0.22490799  0.53799119  0.57957804  1
  Al  Al19  1  0.77337609  0.42582287  0.33039527  1
  Al  Al20  1  0.88918393  0.53854697  0.07361561  1
  Al  Al21  1  0.44467425  0.42756646  0.83088812  1
  Al  Al22  1  0.55401572  0.53799115  0.57957802  1
  Al  Al23  1  0.10710855  0.75725843  0.33236624  1
  Al  Al24  1  0.77715502  0.76260492  0.82692345  1
  Al  Al25  1  0.88794510  0.87362149  0.58015654  1
  Al  Al26  1  0.45254800  0.75725844  0.33236625  1
  Al  Al27  1  0.55990750  0.87078485  0.07722707  1
  Al  Al28  1  0.11170222  0.75759687  0.82548602  1
  Al  Al29  1  0.22269286  0.87152937  0.57470951  1
  Al  Al30  1  0.77428881  0.76833731  0.32777624  1
  Al  Al31  1  0.88622256  0.87078472  0.07722708  1
  Al  Al32  1  0.44761590  0.75759689  0.82548604  1
  Al  Al33  1  0.55534846  0.87362152  0.58015655  1
  Sc  Sc34  1  0.11001830  0.09687838  0.84140039  1
  Sc  Sc35  1  0.22600567  0.86490354  0.09768507  1
  N  N36  1  0.22309951  0.20664374  0.37747002  1
  N  N37  1  0.10077256  0.11536998  0.12410305  1
  N  N38  1  0.86519928  0.21834071  0.88354863  1
  N  N39  1  0.77696818  0.09516213  0.62853800  1
  N  N40  1  0.55514585  0.20662326  0.37909502  1
  N  N41  1  0.44665545  0.09266972  0.13073499  1
  N  N42  1  0.23337485  0.21834074  0.88354862  1
  N  N43  1  0.11119624  0.09452261  0.61724489  1
  N  N44  1  0.88717167  0.20664372  0.37747000  1
  N  N45  1  0.77758993  0.09266963  0.13073495  1
  N  N46  1  0.55555721  0.20580048  0.88008076  1
  N  N47  1  0.44478473  0.09516219  0.62853796  1
  N  N48  1  0.22400994  0.53676970  0.38189359  1
  N  N49  1  0.10655890  0.43139118  0.13460518  1
  N  N50  1  0.88944751  0.53801983  0.87342358  1
  N  N51  1  0.77816512  0.42804609  0.62424329  1
  N  N52  1  0.55613523  0.53676973  0.38189355  1
  N  N53  1  0.44390140  0.42911217  0.12737995  1
  N  N54  1  0.22141197  0.53914116  0.87784580  1
  N  N55  1  0.11070374  0.42804614  0.62424328  1
  N  N56  1  0.77896489  0.43139115  0.13460520  1
  N  N57  1  0.55636174  0.53914118  0.87784584  1
  N  N58  1  0.44481122  0.42729256  0.63138144  1
  N  N59  1  0.22280638  0.87130222  0.36759349  1
  N  N60  1  0.09814880  0.74868950  0.13602168  1
  N  N61  1  0.88845526  0.87260837  0.87706773  1
  N  N62  1  0.77817746  0.76056022  0.62736326  1
  N  N63  1  0.55791607  0.87231197  0.38223510  1
  N  N64  1  0.47007670  0.74868956  0.13602168  1
  N  N65  1  0.23252925  0.85185646  0.87627756  1
  N  N66  1  0.11089616  0.76096984  0.62475559  1
  N  N67  1  0.88668692  0.87231196  0.38223509  1
  N  N68  1  0.77944218  0.75803057  0.13085563  1
  N  N69  1  0.55585126  0.87260846  0.87706773  1
  N  N70  1  0.44504916  0.76096982  0.62475560  1
  O  O71  1  0.88842751  0.54005986  0.38478882  1
