# generated using pymatgen
data_Sc2Al34N35O
_symmetry_space_group_name_H-M   'P 1'
_cell_length_a   9.80306028
_cell_length_b   9.79950910
_cell_length_c   8.94529920
_cell_angle_alpha   90.03285901
_cell_angle_beta   90.00002090
_cell_angle_gamma   59.98799770
_symmetry_Int_Tables_number   1
_chemical_formula_structural   Sc2Al34N35O
_chemical_formula_sum   'Sc2 Al34 N35 O1'
_cell_volume   744.11295236
_cell_formula_units_Z   1
loop_
 _symmetry_equiv_pos_site_id
 _symmetry_equiv_pos_as_xyz
  1  'x, y, z'
loop_
 _atom_site_type_symbol
 _atom_site_label
 _atom_site_symmetry_multiplicity
 _atom_site_fract_x
 _atom_site_fract_y
 _atom_site_fract_z
 _atom_site_occupancy
  Al  Al0  1  0.10951179  0.09789160  0.34499342  1
  Al  Al1  1  0.22328082  0.21274870  0.09277187  1
  Al  Al2  1  0.77292666  0.09625745  0.83694067  1
  Al  Al3  1  0.88651332  0.20482312  0.58395578  1
  Al  Al4  1  0.44691123  0.09357653  0.33695744  1
  Al  Al5  1  0.55604778  0.20481947  0.08736784  1
  Al  Al6  1  0.22557840  0.20482318  0.58395582  1
  Al  Al7  1  0.77642732  0.09357635  0.33695742  1
  Al  Al8  1  0.88088561  0.21274858  0.09277190  1
  Al  Al9  1  0.44773074  0.09625756  0.83694064  1
  Al  Al10  1  0.55492512  0.20706469  0.58617968  1
  Al  Al11  1  0.11544376  0.42712472  0.34317849  1
  Al  Al12  1  0.21918183  0.53624788  0.08675896  1
  Al  Al13  1  0.77225817  0.42958708  0.82974070  1
  Al  Al14  1  0.88856194  0.53979074  0.60287784  1
  Al  Al15  1  0.44466739  0.42758011  0.33386402  1
  Al  Al16  1  0.56148497  0.53624783  0.08675901  1
  Al  Al17  1  0.11506934  0.42958721  0.82974066  1
  Al  Al18  1  0.22569583  0.53795892  0.58693169  1
  Al  Al19  1  0.77434645  0.42712455  0.34317844  1
  Al  Al20  1  0.88924435  0.53842602  0.07632948  1
  Al  Al21  1  0.44485424  0.42720636  0.84052760  1
  Al  Al22  1  0.55326001  0.53795896  0.58693163  1
  Al  Al23  1  0.10794491  0.75797767  0.34282031  1
  Al  Al24  1  0.77636657  0.76418201  0.83288582  1
  Al  Al25  1  0.88773496  0.87394766  0.58781242  1
  Al  Al26  1  0.45099262  0.75797767  0.34282013  1
  Al  Al27  1  0.56035839  0.87048189  0.08654123  1
  Al  Al28  1  0.11048598  0.75701420  0.83385188  1
  Al  Al29  1  0.22353873  0.86983781  0.59047110  1
  Al  Al30  1  0.77545942  0.76599634  0.33973483  1
  Al  Al31  1  0.88607476  0.87048175  0.08654120  1
  Al  Al32  1  0.44941505  0.75701421  0.83385206  1
  Al  Al33  1  0.55523241  0.87394766  0.58781238  1
  Sc  Sc34  1  0.10895579  0.09900343  0.84945944  1
  Sc  Sc35  1  0.22555019  0.86581454  0.10398642  1
  N  N36  1  0.22415822  0.20633008  0.36805768  1
  N  N37  1  0.10185860  0.11319795  0.11692467  1
  N  N38  1  0.86628153  0.21817952  0.87347164  1
  N  N39  1  0.77657791  0.09499458  0.61987963  1
  N  N40  1  0.55498773  0.20693959  0.36998440  1
  N  N41  1  0.44657883  0.09256253  0.12183877  1
  N  N42  1  0.23245378  0.21817966  0.87347162  1
  N  N43  1  0.11049686  0.09592124  0.60544187  1
  N  N44  1  0.88642678  0.20632991  0.36805761  1
  N  N45  1  0.77777376  0.09256239  0.12183874  1
  N  N46  1  0.55563178  0.20565138  0.87189246  1
  N  N47  1  0.44534244  0.09499461  0.61987961  1
  N  N48  1  0.22487205  0.53677380  0.37276853  1
  N  N49  1  0.10449111  0.43240840  0.12895204  1
  N  N50  1  0.88949589  0.53792286  0.85969997  1
  N  N51  1  0.77791279  0.42852621  0.61215895  1
  N  N52  1  0.55526903  0.53677382  0.37276845  1
  N  N53  1  0.44392725  0.42906020  0.11751011  1
  N  N54  1  0.22126757  0.53856008  0.86926873  1
  N  N55  1  0.11047569  0.42852630  0.61215896  1
  N  N56  1  0.78001532  0.43240833  0.12895202  1
  N  N57  1  0.55708712  0.53856007  0.86926881  1
  N  N58  1  0.44486491  0.42718507  0.62398639  1
  N  N59  1  0.22329943  0.87031636  0.36542497  1
  N  N60  1  0.09963352  0.75011918  0.12582141  1
  N  N61  1  0.88775515  0.87253468  0.86833765  1
  N  N62  1  0.77816521  0.76058465  0.61673560  1
  N  N63  1  0.55747599  0.87265990  0.37333050  1
  N  N64  1  0.46716233  0.75011919  0.12582127  1
  N  N65  1  0.23149925  0.85391664  0.85979147  1
  N  N66  1  0.10983818  0.76001859  0.61561278  1
  N  N67  1  0.88677924  0.87265983  0.37333055  1
  N  N68  1  0.78040641  0.75610217  0.12419166  1
  N  N69  1  0.55662524  0.87253481  0.86833770  1
  N  N70  1  0.44705845  0.76001852  0.61561289  1
  O  O71  1  0.88814644  0.54062201  0.38085450  1
