# generated using pymatgen
data_Sc2Al34N35O
_symmetry_space_group_name_H-M   'P 1'
_cell_length_a   9.84778996
_cell_length_b   9.84449951
_cell_length_c   8.80311126
_cell_angle_alpha   90.03185720
_cell_angle_beta   90.00001303
_cell_angle_gamma   59.98893664
_symmetry_Int_Tables_number   1
_chemical_formula_structural   Sc2Al34N35O
_chemical_formula_sum   'Sc2 Al34 N35 O1'
_cell_volume   739.01069783
_cell_formula_units_Z   1
loop_
 _symmetry_equiv_pos_site_id
 _symmetry_equiv_pos_as_xyz
  1  'x, y, z'
loop_
 _atom_site_type_symbol
 _atom_site_label
 _atom_site_symmetry_multiplicity
 _atom_site_fract_x
 _atom_site_fract_y
 _atom_site_fract_z
 _atom_site_occupancy
  Al  Al0  1  0.10969433  0.09752657  0.34886908  1
  Al  Al1  1  0.22303802  0.21245733  0.09623691  1
  Al  Al2  1  0.77298305  0.09613738  0.84005158  1
  Al  Al3  1  0.88606757  0.20511725  0.58679920  1
  Al  Al4  1  0.44683496  0.09362373  0.33992986  1
  Al  Al5  1  0.55599046  0.20493411  0.09047751  1
  Al  Al6  1  0.22573004  0.20511733  0.58679927  1
  Al  Al7  1  0.77645639  0.09362351  0.33992985  1
  Al  Al8  1  0.88141981  0.21245715  0.09623698  1
  Al  Al9  1  0.44779443  0.09613750  0.84005158  1
  Al  Al10  1  0.55495529  0.20700432  0.58904692  1
  Al  Al11  1  0.11509074  0.42726876  0.34633707  1
  Al  Al12  1  0.21937800  0.53614556  0.09009453  1
  Al  Al13  1  0.77225833  0.42961383  0.83222011  1
  Al  Al14  1  0.88857280  0.53976897  0.60541971  1
  Al  Al15  1  0.44465257  0.42760971  0.33693079  1
  Al  Al16  1  0.56139112  0.53614547  0.09009458  1
  Al  Al17  1  0.11504239  0.42961399  0.83222005  1
  Al  Al18  1  0.22554961  0.53805624  0.58957821  1
  Al  Al19  1  0.77455542  0.42726853  0.34633700  1
  Al  Al20  1  0.88922049  0.53847368  0.07764456  1
  Al  Al21  1  0.44488260  0.42714959  0.84327279  1
  Al  Al22  1  0.55330892  0.53805628  0.58957816  1
  Al  Al23  1  0.10822328  0.75824264  0.34603218  1
  Al  Al24  1  0.77630062  0.76431393  0.83528171  1
  Al  Al25  1  0.88780102  0.87390292  0.59047141  1
  Al  Al26  1  0.45044933  0.75824263  0.34603195  1
  Al  Al27  1  0.56039617  0.87051497  0.08992792  1
  Al  Al28  1  0.11018211  0.75688008  0.83710541  1
  Al  Al29  1  0.22380496  0.86930544  0.59447970  1
  Al  Al30  1  0.77566914  0.76557691  0.34334257  1
  Al  Al31  1  0.88600396  0.87051483  0.08992788  1
  Al  Al32  1  0.44985310  0.75688007  0.83710564  1
  Al  Al33  1  0.55521107  0.87390292  0.59047137  1
  Sc  Sc34  1  0.10875506  0.09940483  0.85046977  1
  Sc  Sc35  1  0.22536725  0.86618043  0.10505157  1
  N  N36  1  0.22422904  0.20639972  0.36528794  1
  N  N37  1  0.10211299  0.11268918  0.11560755  1
  N  N38  1  0.86685614  0.21791298  0.86981283  1
  N  N39  1  0.77652178  0.09488055  0.61685660  1
  N  N40  1  0.55499679  0.20692145  0.36693850  1
  N  N41  1  0.44642442  0.09265496  0.11886694  1
  N  N42  1  0.23214570  0.21791313  0.86981277  1
  N  N43  1  0.11036274  0.09618949  0.60231283  1
  N  N44  1  0.88628635  0.20639949  0.36528786  1
  N  N45  1  0.77783570  0.09265480  0.11886693  1
  N  N46  1  0.55559616  0.20572265  0.86903907  1
  N  N47  1  0.44551258  0.09488057  0.61685661  1
  N  N48  1  0.22476165  0.53689221  0.36967533  1
  N  N49  1  0.10429014  0.43241392  0.12645334  1
  N  N50  1  0.88945926  0.53799613  0.85691691  1
  N  N51  1  0.77795998  0.42882176  0.60905743  1
  N  N52  1  0.55526102  0.53689220  0.36967525  1
  N  N53  1  0.44393530  0.42904405  0.11475052  1
  N  N54  1  0.22143142  0.53832149  0.86636858  1
  N  N55  1  0.11013291  0.42882189  0.60905744  1
  N  N56  1  0.78021073  0.43241379  0.12645331  1
  N  N57  1  0.55716186  0.53832145  0.86636866  1
  N  N58  1  0.44485127  0.42721232  0.62091177  1
  N  N59  1  0.22338275  0.87014981  0.36504748  1
  N  N60  1  0.10008939  0.75050519  0.12203734  1
  N  N61  1  0.88752735  0.87254375  0.86546598  1
  N  N62  1  0.77829593  0.76032317  0.61342491  1
  N  N63  1  0.55736630  0.87264092  0.37017630  1
  N  N64  1  0.46632048  0.75050517  0.12203718  1
  N  N65  1  0.23125548  0.85440426  0.85542124  1
  N  N66  1  0.10961022  0.75984536  0.61289634  1
  N  N67  1  0.88690797  0.87264081  0.37017638  1
  N  N68  1  0.78056309  0.75578885  0.12183482  1
  N  N69  1  0.55684403  0.87254387  0.86546605  1
  N  N70  1  0.44745967  0.75984527  0.61289648  1
  O  O71  1  0.88816564  0.54058355  0.37865726  1
