# generated using pymatgen
data_Sc2Al34N35O
_symmetry_space_group_name_H-M   'P 1'
_cell_length_a   9.84890562
_cell_length_b   9.84640628
_cell_length_c   8.79562697
_cell_angle_alpha   90.00212541
_cell_angle_beta   89.99998849
_cell_angle_gamma   59.99163218
_symmetry_Int_Tables_number   1
_chemical_formula_structural   Sc2Al34N35O
_chemical_formula_sum   'Sc2 Al34 N35 O1'
_cell_volume   738.62930653
_cell_formula_units_Z   1
loop_
 _symmetry_equiv_pos_site_id
 _symmetry_equiv_pos_as_xyz
  1  'x, y, z'
loop_
 _atom_site_type_symbol
 _atom_site_label
 _atom_site_symmetry_multiplicity
 _atom_site_fract_x
 _atom_site_fract_y
 _atom_site_fract_z
 _atom_site_occupancy
  Al  Al0  1  0.11058736  0.09574080  0.36631034  1
  Al  Al1  1  0.22421012  0.20746096  0.12352925  1
  Al  Al2  1  0.77427425  0.09535057  0.86803102  1
  Al  Al3  1  0.88189281  0.21032190  0.60936569  1
  Al  Al4  1  0.44740729  0.09426881  0.36794203  1
  Al  Al5  1  0.55505147  0.20681240  0.11593654  1
  Al  Al6  1  0.22470077  0.21032194  0.60936580  1
  Al  Al7  1  0.77523921  0.09426872  0.36794198  1
  Al  Al8  1  0.88524448  0.20746092  0.12352934  1
  Al  Al9  1  0.44729044  0.09535060  0.86803101  1
  Al  Al10  1  0.55584876  0.20521778  0.62049331  1
  Al  Al11  1  0.11358639  0.42818250  0.36292777  1
  Al  Al12  1  0.22354884  0.53681958  0.12093935  1
  Al  Al13  1  0.77163103  0.42889183  0.87459691  1
  Al  Al14  1  0.88904777  0.53881975  0.63219914  1
  Al  Al15  1  0.44520397  0.42650728  0.37043414  1
  Al  Al16  1  0.55654708  0.53681948  0.12093950  1
  Al  Al17  1  0.11639227  0.42889186  0.87459691  1
  Al  Al18  1  0.22149271  0.53735125  0.61600718  1
  Al  Al19  1  0.77514656  0.42818242  0.36292779  1
  Al  Al20  1  0.88864520  0.53962493  0.10061938  1
  Al  Al21  1  0.44431945  0.42827639  0.86552313  1
  Al  Al22  1  0.55807143  0.53735112  0.61600708  1
  Al  Al23  1  0.10969601  0.75980929  0.37221821  1
  Al  Al24  1  0.77553031  0.76585491  0.87228450  1
  Al  Al25  1  0.88686719  0.87230371  0.61615807  1
  Al  Al26  1  0.44741014  0.75980932  0.37221818  1
  Al  Al27  1  0.55783704  0.87210778  0.12006388  1
  Al  Al28  1  0.10884187  0.75552692  0.86177447  1
  Al  Al29  1  0.22459183  0.86773207  0.60976862  1
  Al  Al30  1  0.77638367  0.76414818  0.36540355  1
  Al  Al31  1  0.88697073  0.87210785  0.12006383  1
  Al  Al32  1  0.45254681  0.75552687  0.86177452  1
  Al  Al33  1  0.55774460  0.87230359  0.61615807  1
  Sc  Sc34  1  0.10809416  0.10072689  0.85155444  1
  Sc  Sc35  1  0.22481587  0.86728396  0.10753730  1
  N  N36  1  0.22363067  0.20647186  0.34694163  1
  N  N37  1  0.10225568  0.11240409  0.10204370  1
  N  N38  1  0.86645427  0.21783757  0.83455588  1
  N  N39  1  0.77567284  0.09378327  0.58846511  1
  N  N40  1  0.55505126  0.20681282  0.33773647  1
  N  N41  1  0.44454123  0.09364975  0.09270187  1
  N  N42  1  0.23262347  0.21783757  0.83455594  1
  N  N43  1  0.11023056  0.09645431  0.59347189  1
  N  N44  1  0.88681300  0.20647174  0.34694172  1
  N  N45  1  0.77872433  0.09364982  0.09270194  1
  N  N46  1  0.55553704  0.20584126  0.84334357  1
  N  N47  1  0.44745916  0.09378321  0.58846515  1
  N  N48  1  0.22329001  0.53896644  0.34307978  1
  N  N49  1  0.11108185  0.42797856  0.09954565  1
  N  N50  1  0.88933553  0.53824419  0.85313418  1
  N  N51  1  0.78010445  0.43350969  0.58221963  1
  N  N52  1  0.55465899  0.53896637  0.34307984  1
  N  N53  1  0.44374443  0.42942647  0.08957409  1
  N  N54  1  0.22287133  0.53641164  0.83780617  1
  N  N55  1  0.10330112  0.43350972  0.58221967  1
  N  N56  1  0.77785497  0.42797848  0.09954569  1
  N  N57  1  0.55763235  0.53641164  0.83780608  1
  N  N58  1  0.44502647  0.42686222  0.59181977  1
  N  N59  1  0.22331924  0.87027708  0.35635130  1
  N  N60  1  0.10054188  0.75027751  0.08797604  1
  N  N61  1  0.88573820  0.87356107  0.83860641  1
  N  N62  1  0.78101015  0.75489512  0.58596978  1
  N  N63  1  0.55659691  0.87148735  0.34263795  1
  N  N64  1  0.46609629  0.75027732  0.08797605  1
  N  N65  1  0.23136973  0.85417627  0.84240619  1
  N  N66  1  0.10904639  0.75975033  0.59396357  1
  N  N67  1  0.88883132  0.87148730  0.34263796  1
  N  N68  1  0.77785558  0.76120436  0.09602559  1
  N  N69  1  0.55761628  0.87356106  0.83860639  1
  N  N70  1  0.44811882  0.75975017  0.59396348  1
  O  O71  1  0.88827758  0.54036038  0.32850480  1
