# generated using pymatgen
data_Sc2Al34N35O
_symmetry_space_group_name_H-M   'P 1'
_cell_length_a   9.44248367
_cell_length_b   9.43937094
_cell_length_c   10.00891644
_cell_angle_alpha   89.98431852
_cell_angle_beta   90.00000275
_cell_angle_gamma   59.98909197
_symmetry_Int_Tables_number   1
_chemical_formula_structural   Sc2Al34N35O
_chemical_formula_sum   'Sc2 Al34 N35 O1'
_cell_volume   772.50130574
_cell_formula_units_Z   1
loop_
 _symmetry_equiv_pos_site_id
 _symmetry_equiv_pos_as_xyz
  1  'x, y, z'
loop_
 _atom_site_type_symbol
 _atom_site_label
 _atom_site_symmetry_multiplicity
 _atom_site_fract_x
 _atom_site_fract_y
 _atom_site_fract_z
 _atom_site_occupancy
  Al  Al0  1  0.10873710  0.09940418  0.31935830  1
  Al  Al1  1  0.22380594  0.21111668  0.07081760  1
  Al  Al2  1  0.77347358  0.09607403  0.81870722  1
  Al  Al3  1  0.88677285  0.20567481  0.56466759  1
  Al  Al4  1  0.44619048  0.09412851  0.31808697  1
  Al  Al5  1  0.55567811  0.20552215  0.06805917  1
  Al  Al6  1  0.22443077  0.20567485  0.56466759  1
  Al  Al7  1  0.77655938  0.09412855  0.31808696  1
  Al  Al8  1  0.88195575  0.21111668  0.07081760  1
  Al  Al9  1  0.44733085  0.09607405  0.81870725  1
  Al  Al10  1  0.55543346  0.20601150  0.56856596  1
  Al  Al11  1  0.11886943  0.42530197  0.31626355  1
  Al  Al12  1  0.22080377  0.53664294  0.06712526  1
  Al  Al13  1  0.77357699  0.43048641  0.81800356  1
  Al  Al14  1  0.88900318  0.53887209  0.57691504  1
  Al  Al15  1  0.44465383  0.42757074  0.31800931  1
  Al  Al16  1  0.55943174  0.53664294  0.06712527  1
  Al  Al17  1  0.11281505  0.43048640  0.81800357  1
  Al  Al18  1  0.22375283  0.53796504  0.56932492  1
  Al  Al19  1  0.77270705  0.42530196  0.31626354  1
  Al  Al20  1  0.88897837  0.53892164  0.06640663  1
  Al  Al21  1  0.44454954  0.42777934  0.81945790  1
  Al  Al22  1  0.55516055  0.53796499  0.56932491  1
  Al  Al23  1  0.10797054  0.75790681  0.32044841  1
  Al  Al24  1  0.77760234  0.76167374  0.81804420  1
  Al  Al25  1  0.88825963  0.87314170  0.56948252  1
  Al  Al26  1  0.45100108  0.75790680  0.32044840  1
  Al  Al27  1  0.55928497  0.87120876  0.06737668  1
  Al  Al28  1  0.11153234  0.75753081  0.81492624  1
  Al  Al29  1  0.22338324  0.87011191  0.56201985  1
  Al  Al30  1  0.77369551  0.76948744  0.31588992  1
  Al  Al31  1  0.88638474  0.87120876  0.06737668  1
  Al  Al32  1  0.44781532  0.75753077  0.81492626  1
  Al  Al33  1  0.55547710  0.87314169  0.56948253  1
  Sc  Sc34  1  0.10988748  0.09710343  0.81942609  1
  Sc  Sc35  1  0.22455142  0.86777586  0.08034357  1
  N  N36  1  0.22286990  0.20793886  0.37486430  1
  N  N37  1  0.10051785  0.11584267  0.12801751  1
  N  N38  1  0.86808277  0.21643582  0.88235396  1
  N  N39  1  0.77759416  0.09486453  0.62683805  1
  N  N40  1  0.55541203  0.20605433  0.37728833  1
  N  N41  1  0.44633576  0.09303781  0.12807186  1
  N  N42  1  0.23235983  0.21643584  0.88235398  1
  N  N43  1  0.11130333  0.09427180  0.60858886  1
  N  N44  1  0.88606965  0.20793885  0.37486429  1
  N  N45  1  0.77750483  0.09303782  0.12807187  1
  N  N46  1  0.55536623  0.20614601  0.87755383  1
  N  N47  1  0.44441973  0.09486452  0.62683808  1
  N  N48  1  0.22255299  0.53727171  0.37922881  1
  N  N49  1  0.10821749  0.43058339  0.12956910  1
  N  N50  1  0.88921060  0.53845728  0.87497643  1
  N  N51  1  0.77864723  0.42758079  0.62493852  1
  N  N52  1  0.55705374  0.53727168  0.37922878  1
  N  N53  1  0.44403606  0.42880629  0.12650880  1
  N  N54  1  0.22202259  0.53930338  0.87611589  1
  N  N55  1  0.11065040  0.42758079  0.62493856  1
  N  N56  1  0.77807760  0.43058336  0.12956910  1
  N  N57  1  0.55555249  0.53930334  0.87611586  1
  N  N58  1  0.44472504  0.42742836  0.62786627  1
  N  N59  1  0.22311169  0.87065506  0.36655636  1
  N  N60  1  0.09895585  0.74934715  0.13348895  1
  N  N61  1  0.88884890  0.87236008  0.87546988  1
  N  N62  1  0.77836750  0.76014342  0.62586351  1
  N  N63  1  0.55780959  0.87187510  0.37919927  1
  N  N64  1  0.46857551  0.74934713  0.13348896  1
  N  N65  1  0.23152977  0.85381896  0.87140861  1
  N  N66  1  0.11099154  0.76074775  0.62299729  1
  N  N67  1  0.88719373  0.87187510  0.37919925  1
  N  N68  1  0.77877627  0.75932599  0.12790043  1
  N  N69  1  0.55566946  0.87236007  0.87546987  1
  N  N70  1  0.44513914  0.76074773  0.62299728  1
  O  O71  1  0.88878486  0.53930874  0.37851577  1
