# generated using pymatgen
data_Zn2SbN3
_symmetry_space_group_name_H-M   'P 1'
_cell_length_a   5.48943054
_cell_length_b   5.84671044
_cell_length_c   10.15389500
_cell_angle_alpha   90.00006017
_cell_angle_beta   89.99986023
_cell_angle_gamma   89.76076180
_symmetry_Int_Tables_number   1
_chemical_formula_structural   Zn2SbN3
_chemical_formula_sum   'Zn8 Sb4 N12'
_cell_volume   325.88754503
_cell_formula_units_Z   4
loop_
 _symmetry_equiv_pos_site_id
 _symmetry_equiv_pos_as_xyz
  1  'x, y, z'
loop_
 _atom_site_type_symbol
 _atom_site_label
 _atom_site_symmetry_multiplicity
 _atom_site_fract_x
 _atom_site_fract_y
 _atom_site_fract_z
 _atom_site_occupancy
  Zn  Zn0  1  0.05993166  0.64132704  0.82710117  1
  Zn  Zn1  1  0.05993124  0.64132843  0.18003973  1
  Zn  Zn2  1  0.04257181  0.14136783  0.33192764  1
  Zn  Zn3  1  0.04257093  0.14136708  0.67521753  1
  Zn  Zn4  1  0.54150134  0.31248988  0.83096783  1
  Zn  Zn5  1  0.54150090  0.31249062  0.17617784  1
  Zn  Zn6  1  0.54352031  0.81851991  0.67378118  1
  Zn  Zn7  1  0.54352069  0.81852012  0.33336100  1
  Sb  Sb8  1  0.05846525  0.16130913  0.00357210  1
  Sb  Sb9  1  0.62752369  0.79709807  0.00357116  1
  Sb  Sb10  1  0.05451200  0.65608816  0.50357054  1
  Sb  Sb11  1  0.55505041  0.30161243  0.50357177  1
  N  N12  1  0.10893388  0.81699030  0.00357062  1
  N  N13  1  0.67537479  0.14906931  0.00357209  1
  N  N14  1  0.16913859  0.31001517  0.17044536  1
  N  N15  1  0.16913916  0.31001476  0.83669843  1
  N  N16  1  0.66826071  0.63973776  0.17532618  1
  N  N17  1  0.66826087  0.63973717  0.83181524  1
  N  N18  1  0.17033449  0.81346369  0.66585400  1
  N  N19  1  0.17033467  0.81346371  0.34128739  1
  N  N20  1  0.66863471  0.14602862  0.66758327  1
  N  N21  1  0.66863539  0.14602836  0.33956025  1
  N  N22  1  0.17750880  0.32119132  0.50357147  1
  N  N23  1  0.67758861  0.63645492  0.50357056  1
