# generated using pymatgen
data_Zn2SbN3
_symmetry_space_group_name_H-M   'P 1'
_cell_length_a   5.51630051
_cell_length_b   5.87987661
_cell_length_c   10.19805818
_cell_angle_alpha   90.18001123
_cell_angle_beta   89.64748524
_cell_angle_gamma   89.81868850
_symmetry_Int_Tables_number   1
_chemical_formula_structural   Zn2SbN3
_chemical_formula_sum   'Zn8 Sb4 N12'
_cell_volume   330.76614434
_cell_formula_units_Z   4
loop_
 _symmetry_equiv_pos_site_id
 _symmetry_equiv_pos_as_xyz
  1  'x, y, z'
loop_
 _atom_site_type_symbol
 _atom_site_label
 _atom_site_symmetry_multiplicity
 _atom_site_fract_x
 _atom_site_fract_y
 _atom_site_fract_z
 _atom_site_occupancy
  Zn  Zn0  1  0.12426109  0.64407226  0.83000625  1
  Zn  Zn1  1  0.04856441  0.63369672  0.18593250  1
  Zn  Zn2  1  0.04250304  0.13789357  0.33315748  1
  Zn  Zn3  1  0.04084801  0.14111480  0.67384151  1
  Zn  Zn4  1  0.56072050  0.31367891  0.82433401  1
  Zn  Zn5  1  0.55265806  0.32129161  0.18432576  1
  Zn  Zn6  1  0.54600097  0.82263770  0.67080110  1
  Zn  Zn7  1  0.54207284  0.81891398  0.33139985  1
  Sb  Sb8  1  0.17416199  0.15167422  0.00407805  1
  Sb  Sb9  1  0.67375892  0.80021524  0.00131679  1
  Sb  Sb10  1  0.05354042  0.65568506  0.50380347  1
  Sb  Sb11  1  0.55387617  0.30373027  0.50291456  1
  N  N12  1  0.05192534  0.82403031  0.00123057  1
  N  N13  1  0.55250497  0.12794693  0.00396575  1
  N  N14  1  0.16739091  0.31322745  0.17643229  1
  N  N15  1  0.15770827  0.31036420  0.83260751  1
  N  N16  1  0.66818036  0.64209113  0.17471248  1
  N  N17  1  0.60849332  0.64541018  0.83459200  1
  N  N18  1  0.16901780  0.81728079  0.66338781  1
  N  N19  1  0.17011162  0.81221044  0.34154601  1
  N  N20  1  0.67039325  0.14552717  0.66364097  1
  N  N21  1  0.67032057  0.14403512  0.34126338  1
  N  N22  1  0.17781850  0.32269497  0.50378288  1
  N  N23  1  0.67762456  0.63629070  0.50264137  1
