# generated using pymatgen
data_Zn2SbN3
_symmetry_space_group_name_H-M   'P 1'
_cell_length_a   5.53935276
_cell_length_b   5.87889129
_cell_length_c   10.15411731
_cell_angle_alpha   89.78628032
_cell_angle_beta   90.06807379
_cell_angle_gamma   89.80771574
_symmetry_Int_Tables_number   1
_chemical_formula_structural   Zn2SbN3
_chemical_formula_sum   'Zn8 Sb4 N12'
_cell_volume   330.66699504
_cell_formula_units_Z   4
loop_
 _symmetry_equiv_pos_site_id
 _symmetry_equiv_pos_as_xyz
  1  'x, y, z'
loop_
 _atom_site_type_symbol
 _atom_site_label
 _atom_site_symmetry_multiplicity
 _atom_site_fract_x
 _atom_site_fract_y
 _atom_site_fract_z
 _atom_site_occupancy
  Zn  Zn0  1  0.17797826  0.63333512  0.83566407  1
  Zn  Zn1  1  0.14840658  0.64348308  0.17310786  1
  Zn  Zn2  1  0.03883552  0.13940950  0.33203121  1
  Zn  Zn3  1  0.04704748  0.13437220  0.66896321  1
  Zn  Zn4  1  0.67601185  0.32015402  0.83583561  1
  Zn  Zn5  1  0.55622988  0.31478938  0.18115083  1
  Zn  Zn6  1  0.54735971  0.82261182  0.67039593  1
  Zn  Zn7  1  0.54530726  0.82588132  0.33645874  1
  Sb  Sb8  1  0.17278936  0.15016000  0.99975382  1
  Sb  Sb9  1  0.67147234  0.79949912  0.00224537  1
  Sb  Sb10  1  0.05162334  0.65506677  0.50346716  1
  Sb  Sb11  1  0.55189169  0.30503106  0.50394280  1
  N  N12  1  0.04700579  0.81978990  0.00173340  1
  N  N13  1  0.54842061  0.12988509  0.99719965  1
  N  N14  1  0.15765149  0.30577283  0.17266920  1
  N  N15  1  0.05286353  0.31380813  0.84144466  1
  N  N16  1  0.57902973  0.65150265  0.16854935  1
  N  N17  1  0.55471341  0.64108287  0.84172145  1
  N  N18  1  0.16916229  0.81294437  0.66396020  1
  N  N19  1  0.16695026  0.81617415  0.34294194  1
  N  N20  1  0.66975598  0.14320451  0.66335407  1
  N  N21  1  0.66967376  0.14837458  0.34169382  1
  N  N22  1  0.17724206  0.32285724  0.50334239  1
  N  N23  1  0.67701650  0.63652405  0.50408764  1
