# generated using pymatgen
data_Zn2SbN3
_symmetry_space_group_name_H-M   'P 1'
_cell_length_a   5.52782003
_cell_length_b   5.87343924
_cell_length_c   10.17143476
_cell_angle_alpha   90.04432208
_cell_angle_beta   89.60803379
_cell_angle_gamma   89.83563926
_symmetry_Int_Tables_number   1
_chemical_formula_structural   Zn2SbN3
_chemical_formula_sum   'Zn8 Sb4 N12'
_cell_volume   330.22998706
_cell_formula_units_Z   4
loop_
 _symmetry_equiv_pos_site_id
 _symmetry_equiv_pos_as_xyz
  1  'x, y, z'
loop_
 _atom_site_type_symbol
 _atom_site_label
 _atom_site_symmetry_multiplicity
 _atom_site_fract_x
 _atom_site_fract_y
 _atom_site_fract_z
 _atom_site_occupancy
  Zn  Zn0  1  0.17504565  0.64144524  0.83565892  1
  Zn  Zn1  1  0.04807400  0.63225277  0.18496654  1
  Zn  Zn2  1  0.04245103  0.13706583  0.33195445  1
  Zn  Zn3  1  0.04632232  0.13730923  0.67132581  1
  Zn  Zn4  1  0.64351595  0.31625434  0.83184904  1
  Zn  Zn5  1  0.54934112  0.32252837  0.18376457  1
  Zn  Zn6  1  0.54746102  0.82230792  0.66805286  1
  Zn  Zn7  1  0.54159942  0.81939976  0.33068756  1
  Sb  Sb8  1  0.17218928  0.15403836  0.00070326  1
  Sb  Sb9  1  0.67549682  0.80187857  0.00004074  1
  Sb  Sb10  1  0.05413769  0.65507832  0.50369992  1
  Sb  Sb11  1  0.55340423  0.30329701  0.50262360  1
  N  N12  1  0.04993793  0.82485224  0.99946899  1
  N  N13  1  0.54937961  0.12978684  0.99995985  1
  N  N14  1  0.16883817  0.31192883  0.17487938  1
  N  N15  1  0.07474804  0.31610934  0.83939789  1
  N  N16  1  0.66841146  0.64309741  0.17365190  1
  N  N17  1  0.55675809  0.64448780  0.84063097  1
  N  N18  1  0.16975466  0.81583681  0.66287223  1
  N  N19  1  0.17032324  0.81115058  0.34044666  1
  N  N20  1  0.66977779  0.14357922  0.66261108  1
  N  N21  1  0.67072027  0.14452053  0.34038056  1
  N  N22  1  0.17817592  0.32201309  0.50335761  1
  N  N23  1  0.67859214  0.63549530  0.50273000  1
