# generated using pymatgen
data_Zn2SbN3
_symmetry_space_group_name_H-M   'P 1'
_cell_length_a   5.49326939
_cell_length_b   5.85245776
_cell_length_c   10.16194004
_cell_angle_alpha   90.00004658
_cell_angle_beta   89.99994584
_cell_angle_gamma   89.76743187
_symmetry_Int_Tables_number   1
_chemical_formula_structural   Zn2SbN3
_chemical_formula_sum   'Zn8 Sb4 N12'
_cell_volume   326.69481020
_cell_formula_units_Z   4
loop_
 _symmetry_equiv_pos_site_id
 _symmetry_equiv_pos_as_xyz
  1  'x, y, z'
loop_
 _atom_site_type_symbol
 _atom_site_label
 _atom_site_symmetry_multiplicity
 _atom_site_fract_x
 _atom_site_fract_y
 _atom_site_fract_z
 _atom_site_occupancy
  Zn  Zn0  1  0.06188317  0.63984777  0.82527099  1
  Zn  Zn1  1  0.06188338  0.63984919  0.18187049  1
  Zn  Zn2  1  0.04218221  0.14114958  0.33215420  1
  Zn  Zn3  1  0.04218122  0.14114858  0.67499055  1
  Zn  Zn4  1  0.54154463  0.31254943  0.83111405  1
  Zn  Zn5  1  0.54154437  0.31255006  0.17603119  1
  Zn  Zn6  1  0.54362241  0.81868976  0.67389724  1
  Zn  Zn7  1  0.54362307  0.81869004  0.33324521  1
  Sb  Sb8  1  0.05712259  0.16487423  0.00357185  1
  Sb  Sb9  1  0.66093869  0.79648001  0.00357095  1
  Sb  Sb10  1  0.05426060  0.65592939  0.50357074  1
  Sb  Sb11  1  0.55521761  0.30164773  0.50357175  1
  N  N12  1  0.07987616  0.81707651  0.00357069  1
  N  N13  1  0.67332044  0.15208367  0.00357186  1
  N  N14  1  0.16932836  0.30933542  0.17073368  1
  N  N15  1  0.16932877  0.30933504  0.83640983  1
  N  N16  1  0.66586953  0.63868076  0.17638185  1
  N  N17  1  0.66586966  0.63868016  0.83075972  1
  N  N18  1  0.17048707  0.81372113  0.66552803  1
  N  N19  1  0.17048741  0.81372144  0.34161374  1
  N  N20  1  0.66847458  0.14600934  0.66751078  1
  N  N21  1  0.66847532  0.14600920  0.33963271  1
  N  N22  1  0.17759823  0.32131578  0.50357152  1
  N  N23  1  0.67762547  0.63633954  0.50357075  1
