# generated using pymatgen
data_Zn2SbN3
_symmetry_space_group_name_H-M   'P 1'
_cell_length_a   5.50668253
_cell_length_b   5.85800257
_cell_length_c   10.21434529
_cell_angle_alpha   89.99992339
_cell_angle_beta   89.99986002
_cell_angle_gamma   90.12359876
_symmetry_Int_Tables_number   1
_chemical_formula_structural   Zn2SbN3
_chemical_formula_sum   'Zn8 Sb4 N12'
_cell_volume   329.49522238
_cell_formula_units_Z   4
loop_
 _symmetry_equiv_pos_site_id
 _symmetry_equiv_pos_as_xyz
  1  'x, y, z'
loop_
 _atom_site_type_symbol
 _atom_site_label
 _atom_site_symmetry_multiplicity
 _atom_site_fract_x
 _atom_site_fract_y
 _atom_site_fract_z
 _atom_site_occupancy
  Zn  Zn0  1  0.05319168  0.63756258  0.82160011  1
  Zn  Zn1  1  0.05319036  0.63756166  0.18554523  1
  Zn  Zn2  1  0.04122308  0.13873697  0.33371196  1
  Zn  Zn3  1  0.04122272  0.13873706  0.67343179  1
  Zn  Zn4  1  0.55436127  0.31673070  0.82591580  1
  Zn  Zn5  1  0.55436163  0.31673097  0.18122561  1
  Zn  Zn6  1  0.54346587  0.81744841  0.67502240  1
  Zn  Zn7  1  0.54346566  0.81745110  0.33211931  1
  Sb  Sb8  1  0.15649348  0.15745700  0.00357166  1
  Sb  Sb9  1  0.67440157  0.80470287  0.00357134  1
  Sb  Sb10  1  0.05455962  0.65501113  0.50357199  1
  Sb  Sb11  1  0.55454187  0.30143412  0.50357090  1
  N  N12  1  0.05888422  0.82233542  0.00357195  1
  N  N13  1  0.57684124  0.13937686  0.00357086  1
  N  N14  1  0.16676267  0.31390138  0.17617459  1
  N  N15  1  0.16676249  0.31390161  0.83096829  1
  N  N16  1  0.66645814  0.64168366  0.17546986  1
  N  N17  1  0.66645855  0.64168333  0.83167302  1
  N  N18  1  0.17098286  0.81348441  0.66483782  1
  N  N19  1  0.17098310  0.81348475  0.34230590  1
  N  N20  1  0.66914718  0.14465513  0.66571422  1
  N  N21  1  0.66914759  0.14465648  0.34142737  1
  N  N22  1  0.17780169  0.32105807  0.50357139  1
  N  N23  1  0.67803641  0.63592808  0.50357101  1
