# generated using pymatgen
data_Zn2SbN3
_symmetry_space_group_name_H-M   'P 1'
_cell_length_a   5.52973397
_cell_length_b   5.86813303
_cell_length_c   10.16402876
_cell_angle_alpha   90.02905409
_cell_angle_beta   89.60488401
_cell_angle_gamma   89.86260703
_symmetry_Int_Tables_number   1
_chemical_formula_structural   Zn2SbN3
_chemical_formula_sum   'Zn8 Sb4 N12'
_cell_volume   329.80591411
_cell_formula_units_Z   4
loop_
 _symmetry_equiv_pos_site_id
 _symmetry_equiv_pos_as_xyz
  1  'x, y, z'
loop_
 _atom_site_type_symbol
 _atom_site_label
 _atom_site_symmetry_multiplicity
 _atom_site_fract_x
 _atom_site_fract_y
 _atom_site_fract_z
 _atom_site_occupancy
  Zn  Zn0  1  0.17593507  0.63907932  0.83579989  1
  Zn  Zn1  1  0.04703448  0.63236723  0.18476390  1
  Zn  Zn2  1  0.04229912  0.13702511  0.33157041  1
  Zn  Zn3  1  0.04753702  0.13683321  0.67039178  1
  Zn  Zn4  1  0.66527771  0.31837748  0.83401689  1
  Zn  Zn5  1  0.54824727  0.32300533  0.18368976  1
  Zn  Zn6  1  0.54767268  0.82189993  0.66847337  1
  Zn  Zn7  1  0.54166213  0.81939165  0.33064204  1
  Sb  Sb8  1  0.17225531  0.15440581  0.00007811  1
  Sb  Sb9  1  0.67422851  0.80245953  0.99964915  1
  Sb  Sb10  1  0.05422828  0.65504968  0.50365941  1
  Sb  Sb11  1  0.55403872  0.30278747  0.50281963  1
  N  N12  1  0.04863840  0.82563505  0.99897704  1
  N  N13  1  0.54781784  0.13070903  0.99873489  1
  N  N14  1  0.16863128  0.31213905  0.17434664  1
  N  N15  1  0.05711901  0.31743583  0.84138971  1
  N  N16  1  0.66837434  0.64346724  0.17340714  1
  N  N17  1  0.55435912  0.64225416  0.84109585  1
  N  N18  1  0.17012693  0.81519963  0.66319006  1
  N  N19  1  0.17051750  0.81106597  0.34025013  1
  N  N20  1  0.67007804  0.14303664  0.66264045  1
  N  N21  1  0.67075643  0.14478234  0.33994665  1
  N  N22  1  0.17872198  0.32190631  0.50340738  1
  N  N23  1  0.67890028  0.63540074  0.50277408  1
