# generated using pymatgen
data_Zn2SbN3
_symmetry_space_group_name_H-M   'P 1'
_cell_length_a   5.52014518
_cell_length_b   5.88211355
_cell_length_c   10.19315927
_cell_angle_alpha   90.18886645
_cell_angle_beta   89.64150647
_cell_angle_gamma   89.80844041
_symmetry_Int_Tables_number   1
_chemical_formula_structural   Zn2SbN3
_chemical_formula_sum   'Zn8 Sb4 N12'
_cell_volume   330.96296304
_cell_formula_units_Z   4
loop_
 _symmetry_equiv_pos_site_id
 _symmetry_equiv_pos_as_xyz
  1  'x, y, z'
loop_
 _atom_site_type_symbol
 _atom_site_label
 _atom_site_symmetry_multiplicity
 _atom_site_fract_x
 _atom_site_fract_y
 _atom_site_fract_z
 _atom_site_occupancy
  Zn  Zn0  1  0.16218597  0.64664692  0.83362458  1
  Zn  Zn1  1  0.04799455  0.63282473  0.18584482  1
  Zn  Zn2  1  0.04263824  0.13745183  0.33305819  1
  Zn  Zn3  1  0.04142201  0.14066863  0.67360824  1
  Zn  Zn4  1  0.56593633  0.31146521  0.82507679  1
  Zn  Zn5  1  0.55232830  0.32143227  0.18405495  1
  Zn  Zn6  1  0.54766482  0.82372770  0.66862454  1
  Zn  Zn7  1  0.54179153  0.81903988  0.33092687  1
  Sb  Sb8  1  0.17318893  0.15135628  0.00364873  1
  Sb  Sb9  1  0.67508498  0.80025258  0.00072945  1
  Sb  Sb10  1  0.05395459  0.65563288  0.50378809  1
  Sb  Sb11  1  0.55352134  0.30396828  0.50264098  1
  N  N12  1  0.05104258  0.82293184  0.00014194  1
  N  N13  1  0.55218488  0.12735760  0.00394634  1
  N  N14  1  0.16772948  0.31262734  0.17628760  1
  N  N15  1  0.15054715  0.30955370  0.83307496  1
  N  N16  1  0.66829041  0.64217159  0.17413657  1
  N  N17  1  0.57103700  0.64820715  0.83821179  1
  N  N18  1  0.16870814  0.81792263  0.66255583  1
  N  N19  1  0.17006194  0.81170806  0.34105248  1
  N  N20  1  0.67077837  0.14599586  0.66342383  1
  N  N21  1  0.67047799  0.14403671  0.34112464  1
  N  N22  1  0.17789573  0.32264823  0.50360015  1
  N  N23  1  0.67799063  0.63608581  0.50253202  1
