# generated using pymatgen
data_Zn2SbN3
_symmetry_space_group_name_H-M   'P 1'
_cell_length_a   5.54894186
_cell_length_b   5.86717985
_cell_length_c   10.14476918
_cell_angle_alpha   89.97039696
_cell_angle_beta   90.14442190
_cell_angle_gamma   89.86026439
_symmetry_Int_Tables_number   1
_chemical_formula_structural   Zn2SbN3
_chemical_formula_sum   'Zn8 Sb4 N12'
_cell_volume   330.27751956
_cell_formula_units_Z   4
loop_
 _symmetry_equiv_pos_site_id
 _symmetry_equiv_pos_as_xyz
  1  'x, y, z'
loop_
 _atom_site_type_symbol
 _atom_site_label
 _atom_site_symmetry_multiplicity
 _atom_site_fract_x
 _atom_site_fract_y
 _atom_site_fract_z
 _atom_site_occupancy
  Zn  Zn0  1  0.17708566  0.63290188  0.83621984  1
  Zn  Zn1  1  0.17288483  0.63853291  0.17043752  1
  Zn  Zn2  1  0.04382968  0.13523510  0.33479108  1
  Zn  Zn3  1  0.04715727  0.13356185  0.66993454  1
  Zn  Zn4  1  0.67699722  0.32180528  0.83630615  1
  Zn  Zn5  1  0.63969992  0.31938899  0.17381195  1
  Zn  Zn6  1  0.54647162  0.82299345  0.67059173  1
  Zn  Zn7  1  0.54498759  0.82425212  0.33774245  1
  Sb  Sb8  1  0.17016738  0.15334174  0.00305621  1
  Sb  Sb9  1  0.67241085  0.80190835  0.00298416  1
  Sb  Sb10  1  0.05143109  0.65392333  0.50348596  1
  Sb  Sb11  1  0.55073280  0.30434122  0.50405087  1
  N  N12  1  0.04623038  0.82067318  0.00259117  1
  N  N13  1  0.54624515  0.13376480  0.00156832  1
  N  N14  1  0.07614176  0.31160944  0.16690475  1
  N  N15  1  0.05392735  0.31218565  0.84183570  1
  N  N16  1  0.55559772  0.64924781  0.16528557  1
  N  N17  1  0.55434734  0.64339025  0.84232582  1
  N  N18  1  0.16911932  0.81186097  0.66443212  1
  N  N19  1  0.16762470  0.81365655  0.34314856  1
  N  N20  1  0.66952434  0.14383617  0.66389902  1
  N  N21  1  0.66785422  0.14582855  0.34278946  1
  N  N22  1  0.17682108  0.32154956  0.50369572  1
  N  N23  1  0.67714943  0.63592463  0.50382567  1
