
#======================================================================
# CRYSTAL DATA
#----------------------------------------------------------------------
data_VESTA_phase_1

_chemical_name_common                  'Zn   O                                '
_cell_length_a                         3.302156
_cell_length_b                         3.301901
_cell_length_c                         5.244449
_cell_angle_alpha                      89.999954
_cell_angle_beta                       90.000069
_cell_angle_gamma                      119.996490
_cell_volume                           49.523068
_space_group_name_H-M_alt              'P 1'
_space_group_IT_number                 1

loop_
_space_group_symop_operation_xyz
   'x, y, z'

loop_
   _atom_site_label
   _atom_site_occupancy
   _atom_site_fract_x
   _atom_site_fract_y
   _atom_site_fract_z
   _atom_site_adp_type
   _atom_site_U_iso_or_equiv
   _atom_site_type_symbol
   Zn1        1.0     0.666685     0.333347     0.446553    Uiso  ? Zn
   Zn2        1.0     0.333315     0.666653     0.946552    Uiso  ? Zn
   O1         1.0     0.666703     0.333354     0.062879    Uiso  ? O
   O2         1.0     0.333297     0.666646     0.562879    Uiso  ? O
