
#======================================================================
# CRYSTAL DATA
#----------------------------------------------------------------------
data_VESTA_phase_1

_chemical_name_common                  'Zn   O                                '
_cell_length_a                         3.370775
_cell_length_b                         3.370759
_cell_length_c                         4.982104
_cell_angle_alpha                      90.000015
_cell_angle_beta                       90.000031
_cell_angle_gamma                      119.999428
_cell_volume                           49.023398
_space_group_name_H-M_alt              'P 1'
_space_group_IT_number                 1

loop_
_space_group_symop_operation_xyz
   'x, y, z'

loop_
   _atom_site_label
   _atom_site_occupancy
   _atom_site_fract_x
   _atom_site_fract_y
   _atom_site_fract_z
   _atom_site_adp_type
   _atom_site_U_iso_or_equiv
   _atom_site_type_symbol
   Zn1        1.0     0.666668     0.333330     0.546194    Uiso  ? Zn
   Zn2        1.0     0.333333     0.666670     0.046194    Uiso  ? Zn
   O1         1.0     0.666669     0.333336     0.954790    Uiso  ? O
   O2         1.0     0.333330     0.666664     0.454790    Uiso  ? O
