
#======================================================================
# CRYSTAL DATA
#----------------------------------------------------------------------
data_VESTA_phase_1

_chemical_name_common                  'Zn   O                                '
_cell_length_a                         3.427621
_cell_length_b                         3.427657
_cell_length_c                         4.737136
_cell_angle_alpha                      90.000023
_cell_angle_beta                       90.000000
_cell_angle_gamma                      120.000267
_cell_volume                           48.198720
_space_group_name_H-M_alt              'P 1'
_space_group_IT_number                 1

loop_
_space_group_symop_operation_xyz
   'x, y, z'

loop_
   _atom_site_label
   _atom_site_occupancy
   _atom_site_fract_x
   _atom_site_fract_y
   _atom_site_fract_z
   _atom_site_adp_type
   _atom_site_U_iso_or_equiv
   _atom_site_type_symbol
   Zn1        1.0     0.666665     0.333333     0.472977    Uiso  ? Zn
   Zn2        1.0     0.333335     0.666667     0.972977    Uiso  ? Zn
   O1         1.0     0.666663     0.333331     0.028021    Uiso  ? O
   O2         1.0     0.333337     0.666669     0.528021    Uiso  ? O
