
#======================================================================
# CRYSTAL DATA
#----------------------------------------------------------------------
data_VESTA_phase_1

_chemical_name_common                  'Zn   O                                '
_cell_length_a                         3.287408
_cell_length_b                         3.287367
_cell_length_c                         5.297241
_cell_angle_alpha                      89.999992
_cell_angle_beta                       90.000015
_cell_angle_gamma                      119.999199
_cell_volume                           49.577625
_space_group_name_H-M_alt              'P 1'
_space_group_IT_number                 1

loop_
_space_group_symop_operation_xyz
   'x, y, z'

loop_
   _atom_site_label
   _atom_site_occupancy
   _atom_site_fract_x
   _atom_site_fract_y
   _atom_site_fract_z
   _atom_site_adp_type
   _atom_site_U_iso_or_equiv
   _atom_site_type_symbol
   Zn1        1.0     0.666668     0.333336     0.473813    Uiso  ? Zn
   Zn2        1.0     0.333332     0.666664     0.973813    Uiso  ? Zn
   O1         1.0     0.666673     0.333333     0.094289    Uiso  ? O
   O2         1.0     0.333328     0.666667     0.594289    Uiso  ? O
