
#======================================================================
# CRYSTAL DATA
#----------------------------------------------------------------------
data_VESTA_phase_1

_chemical_name_common                  'Zn   O                                '
_cell_length_a                         3.426910
_cell_length_b                         3.426906
_cell_length_c                         4.741092
_cell_angle_alpha                      90.000015
_cell_angle_beta                       90.000008
_cell_angle_gamma                      119.999557
_cell_volume                           48.218731
_space_group_name_H-M_alt              'P 1'
_space_group_IT_number                 1

loop_
_space_group_symop_operation_xyz
   'x, y, z'

loop_
   _atom_site_label
   _atom_site_occupancy
   _atom_site_fract_x
   _atom_site_fract_y
   _atom_site_fract_z
   _atom_site_adp_type
   _atom_site_U_iso_or_equiv
   _atom_site_type_symbol
   Zn1        1.0     0.666666     0.333330     0.528464    Uiso  ? Zn
   Zn2        1.0     0.333334     0.666670     0.028464    Uiso  ? Zn
   O1         1.0     0.666669     0.333335     0.972535    Uiso  ? O
   O2         1.0     0.333331     0.666665     0.472535    Uiso  ? O
