
#======================================================================
# CRYSTAL DATA
#----------------------------------------------------------------------
data_VESTA_phase_1

_chemical_name_common                  'Zn   O '
_cell_length_a                         3.287885
_cell_length_b                         3.287891
_cell_length_c                         5.306550
_cell_angle_alpha                      90.000000
_cell_angle_beta                       90.000000
_cell_angle_gamma                      119.999947
_cell_volume                           49.679499
_space_group_name_H-M_alt              'P 1'
_space_group_IT_number                 1

loop_
_space_group_symop_operation_xyz
   'x, y, z'

loop_
   _atom_site_label
   _atom_site_occupancy
   _atom_site_fract_x
   _atom_site_fract_y
   _atom_site_fract_z
   _atom_site_adp_type
   _atom_site_U_iso_or_equiv
   _atom_site_type_symbol
   Zn1        1.0     0.666668     0.333335     0.503014    Uiso  ? Zn
   Zn2        1.0     0.333332     0.666665     0.003017    Uiso  ? Zn
   O1         1.0     0.666665     0.333329     0.123982    Uiso  ? O
   O2         1.0     0.333335     0.666670     0.623987    Uiso  ? O
