
#======================================================================
# CRYSTAL DATA
#----------------------------------------------------------------------
data_VESTA_phase_1

_chemical_name_common                  'Zn   O                                '
_cell_length_a                         3.301160
_cell_length_b                         3.300995
_cell_length_c                         5.247915
_cell_angle_alpha                      89.999908
_cell_angle_beta                       90.000053
_cell_angle_gamma                      120.001686
_cell_volume                           49.524653
_space_group_name_H-M_alt              'P 1'
_space_group_IT_number                 1

loop_
_space_group_symop_operation_xyz
   'x, y, z'

loop_
   _atom_site_label
   _atom_site_occupancy
   _atom_site_fract_x
   _atom_site_fract_y
   _atom_site_fract_z
   _atom_site_adp_type
   _atom_site_U_iso_or_equiv
   _atom_site_type_symbol
   Zn1        1.0     0.666666     0.333334     0.554210    Uiso  ? Zn
   Zn2        1.0     0.333334     0.666665     0.054211    Uiso  ? Zn
   O1         1.0     0.666678     0.333355     0.937672    Uiso  ? O
   O2         1.0     0.333322     0.666645     0.437671    Uiso  ? O
