# generated using pymatgen
data_Al11BN12
_symmetry_space_group_name_H-M   'P 1'
_cell_length_a   9.30198298
_cell_length_b   9.27657692
_cell_length_c   10.04342203
_cell_angle_alpha   89.98906259
_cell_angle_beta   90.04535732
_cell_angle_gamma   60.03647903
_symmetry_Int_Tables_number   1
_chemical_formula_structural   Al11BN12
_chemical_formula_sum   'Al33 B3 N36'
_cell_volume   750.81842695
_cell_formula_units_Z   3
loop_
 _symmetry_equiv_pos_site_id
 _symmetry_equiv_pos_as_xyz
  1  'x, y, z'
loop_
 _atom_site_type_symbol
 _atom_site_label
 _atom_site_symmetry_multiplicity
 _atom_site_fract_x
 _atom_site_fract_y
 _atom_site_fract_z
 _atom_site_occupancy
  Al  Al0  1  0.10590941  0.10159306  0.38888816  1
  Al  Al1  1  0.22450385  0.19682233  0.13587202  1
  Al  Al2  1  0.88697975  0.20266397  0.64316812  1
  Al  Al3  1  0.44689374  0.09150911  0.38752892  1
  Al  Al4  1  0.56088590  0.19969941  0.13297818  1
  Al  Al5  1  0.10800953  0.09076791  0.89336815  1
  Al  Al6  1  0.22183175  0.20533856  0.63998094  1
  Al  Al7  1  0.78055001  0.08990534  0.38476281  1
  Al  Al8  1  0.89271178  0.19794046  0.13244277  1
  Al  Al9  1  0.45694184  0.08917548  0.88840716  1
  Al  Al10  1  0.56468274  0.19648097  0.63726116  1
  Al  Al11  1  0.10884875  0.42928943  0.36578212  1
  Al  Al12  1  0.22775815  0.54242586  0.06796495  1
  Al  Al13  1  0.78328837  0.42334795  0.88748132  1
  Al  Al14  1  0.88574987  0.54485252  0.64182347  1
  Al  Al15  1  0.44300007  0.43278080  0.31999819  1
  Al  Al16  1  0.54676258  0.54516458  0.06828422  1
  Al  Al17  1  0.10620075  0.42924099  0.87846335  1
  Al  Al18  1  0.21965071  0.54407757  0.57194566  1
  Al  Al19  1  0.78245396  0.42612955  0.38720719  1
  Al  Al20  1  0.88593799  0.54190710  0.12991855  1
  Al  Al21  1  0.44916661  0.42697984  0.82031868  1
  Al  Al22  1  0.54872664  0.54455931  0.57188757  1
  Al  Al23  1  0.11579482  0.76591698  0.30804981  1
  Al  Al24  1  0.87909273  0.87695193  0.64809683  1
  Al  Al25  1  0.43420865  0.76419637  0.31337905  1
  Al  Al26  1  0.55461420  0.87476738  0.12712547  1
  Al  Al27  1  0.11022599  0.76143382  0.83259485  1
  Al  Al28  1  0.22192907  0.86830267  0.57350435  1
  Al  Al29  1  0.77778632  0.76412040  0.38300885  1
  Al  Al30  1  0.88774257  0.87591481  0.11393899  1
  Al  Al31  1  0.44811610  0.75775261  0.82819436  1
  Al  Al32  1  0.56398160  0.87203879  0.64179054  1
  B  B33  1  0.77065344  0.09203041  0.89307515  1
  B  B34  1  0.22695319  0.86527760  0.05985952  1
  B  B35  1  0.77055900  0.77033427  0.89385558  1
  N  N36  1  0.22478194  0.20252193  0.32643490  1
  N  N37  1  0.12122219  0.07262352  0.08352553  1
  N  N38  1  0.88054872  0.18801144  0.83442894  1
  N  N39  1  0.78164668  0.09033161  0.57324269  1
  N  N40  1  0.56006633  0.19882169  0.32658220  1
  N  N41  1  0.44427137  0.09641949  0.07449496  1
  N  N42  1  0.22563316  0.19866018  0.83097382  1
  N  N43  1  0.10581057  0.10136398  0.58196015  1
  N  N44  1  0.88694630  0.20523182  0.32316934  1
  N  N45  1  0.77479904  0.09786254  0.05345051  1
  N  N46  1  0.58465902  0.18823246  0.83303767  1
  N  N47  1  0.44570152  0.09266318  0.57918099  1
  N  N48  1  0.22106953  0.54724314  0.37728034  1
  N  N49  1  0.11093101  0.42525018  0.08665779  1
  N  N50  1  0.87557541  0.56515377  0.83409950  1
  N  N51  1  0.78212928  0.42563730  0.58298570  1
  N  N52  1  0.54950050  0.54584156  0.37941461  1
  N  N53  1  0.44376313  0.43208271  0.12979574  1
  N  N54  1  0.22915697  0.53594569  0.87927005  1
  N  N55  1  0.10771101  0.42816175  0.59163489  1
  N  N56  1  0.88415475  0.54327122  0.32114071  1
  N  N57  1  0.78339650  0.42291624  0.07849445  1
  N  N58  1  0.55407171  0.53832126  0.87919361  1
  N  N59  1  0.44240606  0.42955035  0.62930390  1
  N  N60  1  0.22194680  0.86931262  0.38383527  1
  N  N61  1  0.12764997  0.77316058  0.11470137  1
  N  N62  1  0.86442101  0.88362365  0.84507435  1
  N  N63  1  0.77887829  0.76324885  0.57246213  1
  N  N64  1  0.55850397  0.87276376  0.32011046  1
  N  N65  1  0.41658658  0.77395022  0.11921267  1
  N  N66  1  0.23148621  0.85928491  0.89800827  1
  N  N67  1  0.11155083  0.76248705  0.64109818  1
  N  N68  1  0.88315730  0.87468682  0.31015680  1
  N  N69  1  0.77546049  0.76145908  0.05409851  1
  N  N70  1  0.58420870  0.86095175  0.83682466  1
  N  N71  1  0.44001244  0.76334820  0.63731604  1
