# generated using pymatgen
data_Al11BN12
_symmetry_space_group_name_H-M   'P 1'
_cell_length_a   9.30750600
_cell_length_b   9.28338420
_cell_length_c   10.09174617
_cell_angle_alpha   89.80955533
_cell_angle_beta   90.03894254
_cell_angle_gamma   59.96733539
_symmetry_Int_Tables_number   1
_chemical_formula_structural   Al11BN12
_chemical_formula_sum   'Al33 B3 N36'
_cell_volume   754.90024687
_cell_formula_units_Z   3
loop_
 _symmetry_equiv_pos_site_id
 _symmetry_equiv_pos_as_xyz
  1  'x, y, z'
loop_
 _atom_site_type_symbol
 _atom_site_label
 _atom_site_symmetry_multiplicity
 _atom_site_fract_x
 _atom_site_fract_y
 _atom_site_fract_z
 _atom_site_occupancy
  Al  Al0  1  0.10400955  0.10396138  0.38955792  1
  Al  Al1  1  0.22754168  0.19206295  0.13677407  1
  Al  Al2  1  0.88968236  0.19546499  0.64542293  1
  Al  Al3  1  0.44610085  0.09149373  0.38820414  1
  Al  Al4  1  0.56000146  0.20060697  0.13412191  1
  Al  Al5  1  0.10878671  0.09041613  0.89527395  1
  Al  Al6  1  0.22464980  0.19988253  0.64072460  1
  Al  Al7  1  0.78029398  0.08957893  0.38547213  1
  Al  Al8  1  0.89443843  0.19178217  0.12901067  1
  Al  Al9  1  0.45719395  0.08892984  0.88966817  1
  Al  Al10  1  0.56374520  0.19779227  0.63822711  1
  Al  Al11  1  0.11077399  0.43402526  0.31621226  1
  Al  Al12  1  0.22728901  0.54142736  0.06762769  1
  Al  Al13  1  0.77377030  0.42852735  0.83394411  1
  Al  Al14  1  0.88360847  0.54871190  0.63744618  1
  Al  Al15  1  0.44207530  0.43215214  0.32231307  1
  Al  Al16  1  0.54735101  0.54446404  0.06826020  1
  Al  Al17  1  0.11211035  0.43330298  0.82890821  1
  Al  Al18  1  0.21892940  0.54303652  0.57131469  1
  Al  Al19  1  0.77197420  0.43244302  0.31291606  1
  Al  Al20  1  0.88699743  0.54446144  0.10365209  1
  Al  Al21  1  0.44911860  0.42755231  0.82100019  1
  Al  Al22  1  0.55692681  0.53999218  0.57147494  1
  Al  Al23  1  0.11586206  0.76529975  0.31021997  1
  Al  Al24  1  0.87897869  0.87742594  0.64950982  1
  Al  Al25  1  0.43382451  0.76414542  0.31527325  1
  Al  Al26  1  0.55413372  0.87507410  0.12995030  1
  Al  Al27  1  0.11016901  0.76210020  0.83382609  1
  Al  Al28  1  0.22306432  0.86697433  0.57365346  1
  Al  Al29  1  0.77852401  0.76194593  0.38428592  1
  Al  Al30  1  0.88733311  0.87682152  0.11821348  1
  Al  Al31  1  0.44784514  0.75811487  0.82887933  1
  Al  Al32  1  0.56299658  0.87282457  0.64321715  1
  B  B33  1  0.77253371  0.09110756  0.89363686  1
  B  B34  1  0.22817137  0.86337291  0.06121797  1
  B  B35  1  0.77092251  0.77324676  0.89487778  1
  N  N36  1  0.22563400  0.20027742  0.32807447  1
  N  N37  1  0.12168672  0.07307084  0.08322335  1
  N  N38  1  0.88245088  0.18051016  0.83819061  1
  N  N39  1  0.78064265  0.09057597  0.57336862  1
  N  N40  1  0.55975200  0.19822316  0.32703099  1
  N  N41  1  0.44486060  0.09623942  0.07498784  1
  N  N42  1  0.22790442  0.19413017  0.83261767  1
  N  N43  1  0.10498825  0.10221487  0.58117143  1
  N  N44  1  0.88899650  0.19868447  0.32100278  1
  N  N45  1  0.77356107  0.09720769  0.05366111  1
  N  N46  1  0.58436228  0.18868986  0.83315720  1
  N  N47  1  0.44574477  0.09324039  0.57907818  1
  N  N48  1  0.21930629  0.54422589  0.38065427  1
  N  N49  1  0.11593875  0.42907330  0.11959742  1
  N  N50  1  0.87668990  0.56803107  0.84791674  1
  N  N51  1  0.77380884  0.42879036  0.63854988  1
  N  N52  1  0.55505828  0.54156661  0.38124664  1
  N  N53  1  0.44266564  0.43335826  0.13209139  1
  N  N54  1  0.22919393  0.53493050  0.88254884  1
  N  N55  1  0.11237429  0.43210960  0.63316176  1
  N  N56  1  0.88523182  0.54451528  0.33091468  1
  N  N57  1  0.77269568  0.42923528  0.11604054  1
  N  N58  1  0.55464178  0.53784405  0.88396882  1
  N  N59  1  0.44237157  0.43125037  0.62959729  1
  N  N60  1  0.22191996  0.86874198  0.38543708  1
  N  N61  1  0.12767907  0.77299033  0.11661066  1
  N  N62  1  0.86421241  0.88350663  0.84509483  1
  N  N63  1  0.77766860  0.76552337  0.57407476  1
  N  N64  1  0.55823650  0.87232459  0.32162720  1
  N  N65  1  0.41623842  0.77379092  0.12120791  1
  N  N66  1  0.23233033  0.85789601  0.89989426  1
  N  N67  1  0.11170500  0.76259766  0.64229374  1
  N  N68  1  0.88317815  0.87404735  0.31227117  1
  N  N69  1  0.77220190  0.76895636  0.05427365  1
  N  N70  1  0.58407305  0.86134011  0.83674507  1
  N  N71  1  0.44113682  0.76186903  0.63767894  1
