# generated using pymatgen
data_Al11BN12
_symmetry_space_group_name_H-M   'P 1'
_cell_length_a   9.26905313
_cell_length_b   9.25169377
_cell_length_c   10.06676848
_cell_angle_alpha   90.12608964
_cell_angle_beta   89.71638402
_cell_angle_gamma   60.08843476
_symmetry_Int_Tables_number   1
_chemical_formula_structural   Al11BN12
_chemical_formula_sum   'Al33 B3 N36'
_cell_volume   748.25914608
_cell_formula_units_Z   3
loop_
 _symmetry_equiv_pos_site_id
 _symmetry_equiv_pos_as_xyz
  1  'x, y, z'
loop_
 _atom_site_type_symbol
 _atom_site_label
 _atom_site_symmetry_multiplicity
 _atom_site_fract_x
 _atom_site_fract_y
 _atom_site_fract_z
 _atom_site_occupancy
  Al  Al0  1  0.11366759  0.08881295  0.30800575  1
  Al  Al1  1  0.22225827  0.20237098  0.06039341  1
  Al  Al2  1  0.88921367  0.20129391  0.56297019  1
  Al  Al3  1  0.44390310  0.09446930  0.30963597  1
  Al  Al4  1  0.55994304  0.20464981  0.06120841  1
  Al  Al5  1  0.10892872  0.08842530  0.81669994  1
  Al  Al6  1  0.22124226  0.20398807  0.56216131  1
  Al  Al7  1  0.77588906  0.09812951  0.31640985  1
  Al  Al8  1  0.89167376  0.19746958  0.05937560  1
  Al  Al9  1  0.45470415  0.08897862  0.81058965  1
  Al  Al10  1  0.55616729  0.20446572  0.56159017  1
  Al  Al11  1  0.11119864  0.42771468  0.31165760  1
  Al  Al12  1  0.22661304  0.54101623  0.06098853  1
  Al  Al13  1  0.77626841  0.42762514  0.81088695  1
  Al  Al14  1  0.89146586  0.53227644  0.56495264  1
  Al  Al15  1  0.44517169  0.42699248  0.31189432  1
  Al  Al16  1  0.55195175  0.54236802  0.06098938  1
  Al  Al17  1  0.10795662  0.43258464  0.81065003  1
  Al  Al18  1  0.21925910  0.54297205  0.56486416  1
  Al  Al19  1  0.77993574  0.42688192  0.30885975  1
  Al  Al20  1  0.89243348  0.53715655  0.05571403  1
  Al  Al21  1  0.45216927  0.42255001  0.80974980  1
  Al  Al22  1  0.55540517  0.53889360  0.56127338  1
  Al  Al23  1  0.12196059  0.75847067  0.30708361  1
  Al  Al24  1  0.87600253  0.87477889  0.64577560  1
  Al  Al25  1  0.44045411  0.76323138  0.30780732  1
  Al  Al26  1  0.54467308  0.87794906  0.06015967  1
  Al  Al27  1  0.11226485  0.76265635  0.82940114  1
  Al  Al28  1  0.21780595  0.87122593  0.56608363  1
  Al  Al29  1  0.78318521  0.76364761  0.38246082  1
  Al  Al30  1  0.89236584  0.87426623  0.12047739  1
  Al  Al31  1  0.45037073  0.75962498  0.81654302  1
  Al  Al32  1  0.54718047  0.87481736  0.56298045  1
  B  B33  1  0.77133021  0.09293229  0.83339054  1
  B  B34  1  0.22490240  0.87148395  0.05807042  1
  B  B35  1  0.77010434  0.77909455  0.89781457  1
  N  N36  1  0.22157240  0.20391234  0.37038850  1
  N  N37  1  0.12319973  0.07029873  0.11376448  1
  N  N38  1  0.87539679  0.18648527  0.86797413  1
  N  N39  1  0.77360695  0.09823464  0.61811524  1
  N  N40  1  0.55316097  0.20571654  0.37247076  1
  N  N41  1  0.44337127  0.09782490  0.11983189  1
  N  N42  1  0.22194843  0.20529184  0.87126197  1
  N  N43  1  0.11065452  0.09295571  0.62710811  1
  N  N44  1  0.89213159  0.20467393  0.37132046  1
  N  N45  1  0.77283290  0.10460671  0.12629080  1
  N  N46  1  0.58164390  0.19176088  0.86861271  1
  N  N47  1  0.44259723  0.09543446  0.62314424  1
  N  N48  1  0.22213711  0.54039868  0.37301069  1
  N  N49  1  0.11137469  0.42989183  0.12154602  1
  N  N50  1  0.88089706  0.55691135  0.86589921  1
  N  N51  1  0.77705580  0.42562429  0.62298385  1
  N  N52  1  0.55609088  0.54009521  0.36961205  1
  N  N53  1  0.44587281  0.42701356  0.12216312  1
  N  N54  1  0.22765651  0.53375630  0.87380580  1
  N  N55  1  0.11210050  0.42664954  0.62227928  1
  N  N56  1  0.89244966  0.53161807  0.37143949  1
  N  N57  1  0.78008321  0.42798207  0.11751168  1
  N  N58  1  0.55683861  0.53755091  0.87317496  1
  N  N59  1  0.44323855  0.42813305  0.62154441  1
  N  N60  1  0.22231839  0.87141791  0.37747732  1
  N  N61  1  0.13141779  0.77196800  0.11037798  1
  N  N62  1  0.86193471  0.88805332  0.84320628  1
  N  N63  1  0.77804164  0.76382650  0.57365507  1
  N  N64  1  0.54995408  0.87377310  0.36771535  1
  N  N65  1  0.42126764  0.77377983  0.11500321  1
  N  N66  1  0.22791518  0.87138231  0.89445560  1
  N  N67  1  0.11112946  0.76111677  0.63670959  1
  N  N68  1  0.89205400  0.86447380  0.31362194  1
  N  N69  1  0.77955112  0.77009406  0.05712118  1
  N  N70  1  0.57417759  0.86462451  0.86960979  1
  N  N71  1  0.44097456  0.76125055  0.62691186  1
