# generated using pymatgen
data_Al11BN12
_symmetry_space_group_name_H-M   'P 1'
_cell_length_a   9.26890710
_cell_length_b   9.29646242
_cell_length_c   10.08690585
_cell_angle_alpha   89.98451121
_cell_angle_beta   89.69270618
_cell_angle_gamma   60.17690947
_symmetry_Int_Tables_number   1
_chemical_formula_structural   Al11BN12
_chemical_formula_sum   'Al33 B3 N36'
_cell_volume   754.04694301
_cell_formula_units_Z   3
loop_
 _symmetry_equiv_pos_site_id
 _symmetry_equiv_pos_as_xyz
  1  'x, y, z'
loop_
 _atom_site_type_symbol
 _atom_site_label
 _atom_site_symmetry_multiplicity
 _atom_site_fract_x
 _atom_site_fract_y
 _atom_site_fract_z
 _atom_site_occupancy
  Al  Al0  1  0.11429165  0.08879990  0.31850440  1
  Al  Al1  1  0.22330811  0.20147158  0.07124616  1
  Al  Al2  1  0.89343574  0.20516602  0.57425372  1
  Al  Al3  1  0.44398522  0.09470166  0.32142715  1
  Al  Al4  1  0.54914220  0.20978954  0.07207254  1
  Al  Al5  1  0.11058134  0.08837935  0.82916632  1
  Al  Al6  1  0.22212499  0.20414794  0.57228989  1
  Al  Al7  1  0.78283276  0.08524264  0.39008951  1
  Al  Al8  1  0.89634755  0.20237594  0.06944809  1
  Al  Al9  1  0.45570400  0.09267013  0.82072980  1
  Al  Al10  1  0.54881957  0.21069730  0.57262540  1
  Al  Al11  1  0.11038316  0.42767910  0.32311860  1
  Al  Al12  1  0.22514323  0.54054283  0.07248481  1
  Al  Al13  1  0.77961146  0.41719370  0.82134312  1
  Al  Al14  1  0.89142337  0.53348360  0.57958677  1
  Al  Al15  1  0.44411473  0.42858004  0.32348633  1
  Al  Al16  1  0.55262683  0.54122924  0.07202597  1
  Al  Al17  1  0.11402891  0.42183623  0.82169353  1
  Al  Al18  1  0.21608086  0.54629342  0.57701118  1
  Al  Al19  1  0.77911890  0.42755478  0.32058715  1
  Al  Al20  1  0.89351261  0.53303493  0.05863277  1
  Al  Al21  1  0.45053543  0.42478986  0.82227785  1
  Al  Al22  1  0.55441131  0.54090561  0.57270500  1
  Al  Al23  1  0.12100446  0.75969110  0.31705706  1
  Al  Al24  1  0.87034941  0.88208861  0.66053912  1
  Al  Al25  1  0.43962981  0.76317784  0.31995736  1
  Al  Al26  1  0.54367893  0.87697579  0.07450598  1
  Al  Al27  1  0.11179694  0.76118195  0.84231413  1
  Al  Al28  1  0.21722679  0.87187579  0.57903988  1
  Al  Al29  1  0.78375043  0.76231728  0.39299703  1
  Al  Al30  1  0.89204994  0.87620917  0.13188757  1
  Al  Al31  1  0.45302954  0.75939013  0.82919895  1
  Al  Al32  1  0.54816231  0.87506136  0.57368085  1
  B  B33  1  0.77383211  0.09379625  0.90956157  1
  B  B34  1  0.22530147  0.87012777  0.06905562  1
  B  B35  1  0.75529370  0.81599180  0.91637515  1
  N  N36  1  0.22166888  0.20388044  0.38152667  1
  N  N37  1  0.12462377  0.06884721  0.12569150  1
  N  N38  1  0.87963391  0.18729945  0.87812078  1
  N  N39  1  0.78025894  0.08738944  0.58173754  1
  N  N40  1  0.54955608  0.20892229  0.38039178  1
  N  N41  1  0.44365716  0.09544607  0.13344170  1
  N  N42  1  0.23151326  0.19678039  0.88285042  1
  N  N43  1  0.11252425  0.09286219  0.63882288  1
  N  N44  1  0.89395733  0.20616534  0.37820388  1
  N  N45  1  0.77878314  0.08977273  0.07157795  1
  N  N46  1  0.57355034  0.19947088  0.88085256  1
  N  N47  1  0.44418013  0.09499192  0.63330119  1
  N  N48  1  0.21923472  0.54343689  0.38460711  1
  N  N49  1  0.11118144  0.42864274  0.13333481  1
  N  N50  1  0.89863992  0.51566909  0.87677271  1
  N  N51  1  0.77543240  0.42525244  0.63244571  1
  N  N52  1  0.55462209  0.54155056  0.38173106  1
  N  N53  1  0.44515789  0.42775400  0.13484926  1
  N  N54  1  0.22568414  0.53335111  0.88551036  1
  N  N55  1  0.11456271  0.42488289  0.63255621  1
  N  N56  1  0.89197356  0.53238623  0.38420441  1
  N  N57  1  0.77854915  0.42834584  0.13124800  1
  N  N58  1  0.55778711  0.53780219  0.88437128  1
  N  N59  1  0.44164011  0.43090119  0.63326548  1
  N  N60  1  0.22064761  0.87206104  0.38971566  1
  N  N61  1  0.13162669  0.77078291  0.12203661  1
  N  N62  1  0.85549407  0.89342627  0.85543374  1
  N  N63  1  0.77944119  0.76480647  0.58473044  1
  N  N64  1  0.54996253  0.87373634  0.37871081  1
  N  N65  1  0.42158840  0.77224918  0.12671475  1
  N  N66  1  0.22852685  0.86996094  0.90638710  1
  N  N67  1  0.10777572  0.76405382  0.65068339  1
  N  N68  1  0.88611079  0.87193228  0.31937870  1
  N  N69  1  0.78159251  0.76910199  0.06446194  1
  N  N70  1  0.57462798  0.87071314  0.88260282  1
  N  N71  1  0.44160984  0.76256154  0.63946088  1
