# generated using pymatgen
data_Al11BN12
_symmetry_space_group_name_H-M   'P 1'
_cell_length_a   9.26362566
_cell_length_b   9.32633294
_cell_length_c   9.99486428
_cell_angle_alpha   90.19977296
_cell_angle_beta   89.74013562
_cell_angle_gamma   60.07019742
_symmetry_Int_Tables_number   1
_chemical_formula_structural   Al11BN12
_chemical_formula_sum   'Al33 B3 N36'
_cell_volume   748.32832914
_cell_formula_units_Z   3
loop_
 _symmetry_equiv_pos_site_id
 _symmetry_equiv_pos_as_xyz
  1  'x, y, z'
loop_
 _atom_site_type_symbol
 _atom_site_label
 _atom_site_symmetry_multiplicity
 _atom_site_fract_x
 _atom_site_fract_y
 _atom_site_fract_z
 _atom_site_occupancy
  Al  Al0  1  0.11287109  0.08868117  0.30754906  1
  Al  Al1  1  0.22428316  0.19866040  0.05883596  1
  Al  Al2  1  0.88937114  0.20666772  0.56515379  1
  Al  Al3  1  0.44550115  0.09472924  0.30700365  1
  Al  Al4  1  0.56211008  0.20453087  0.05541879  1
  Al  Al5  1  0.10957990  0.08913437  0.81396055  1
  Al  Al6  1  0.22143940  0.20629495  0.56150735  1
  Al  Al7  1  0.77783840  0.09750123  0.30929930  1
  Al  Al8  1  0.88981629  0.19665683  0.05506246  1
  Al  Al9  1  0.46151396  0.08553834  0.81021139  1
  Al  Al10  1  0.55380394  0.20771155  0.56401884  1
  Al  Al11  1  0.11236242  0.42605938  0.30964204  1
  Al  Al12  1  0.22761548  0.53735533  0.06191088  1
  Al  Al13  1  0.77163777  0.43717569  0.80974608  1
  Al  Al14  1  0.88925301  0.53983838  0.55808744  1
  Al  Al15  1  0.44648611  0.42596202  0.31250271  1
  Al  Al16  1  0.55073591  0.54207974  0.06117395  1
  Al  Al17  1  0.10848385  0.43094548  0.81192362  1
  Al  Al18  1  0.21541044  0.54745209  0.56300685  1
  Al  Al19  1  0.77930849  0.42494578  0.30888605  1
  Al  Al20  1  0.88788977  0.53834413  0.06642768  1
  Al  Al21  1  0.44596916  0.43043371  0.80699603  1
  Al  Al22  1  0.55323041  0.54453183  0.55931443  1
  Al  Al23  1  0.12200002  0.75953812  0.30657755  1
  Al  Al24  1  0.87554764  0.87080087  0.65298037  1
  Al  Al25  1  0.43920704  0.76481732  0.30428971  1
  Al  Al26  1  0.55614456  0.87004629  0.06358925  1
  Al  Al27  1  0.11316535  0.75394650  0.83041233  1
  Al  Al28  1  0.21821574  0.87294058  0.56422366  1
  Al  Al29  1  0.78052095  0.76206217  0.35194859  1
  Al  Al30  1  0.89099604  0.86773916  0.11781558  1
  Al  Al31  1  0.44755287  0.76233901  0.81657766  1
  Al  Al32  1  0.54962396  0.87574656  0.55635240  1
  B  B33  1  0.74904261  0.15336984  0.79753559  1
  B  B34  1  0.22419624  0.86950879  0.05577151  1
  B  B35  1  0.78307559  0.75149262  0.86272546  1
  N  N36  1  0.22216889  0.20415622  0.36828311  1
  N  N37  1  0.12123589  0.06977977  0.11111253  1
  N  N38  1  0.87049492  0.20189661  0.86099247  1
  N  N39  1  0.76941786  0.11065320  0.64864440  1
  N  N40  1  0.55777034  0.20400562  0.37436782  1
  N  N41  1  0.44742149  0.09559424  0.11393897  1
  N  N42  1  0.22518366  0.20214834  0.86852172  1
  N  N43  1  0.11104657  0.09435893  0.62435159  1
  N  N44  1  0.88936444  0.20417145  0.37406532  1
  N  N45  1  0.77541657  0.09823651  0.11878495  1
  N  N46  1  0.58071614  0.20178734  0.86130510  1
  N  N47  1  0.44469498  0.09503267  0.62205256  1
  N  N48  1  0.22179485  0.54034916  0.37045694  1
  N  N49  1  0.11368065  0.42450619  0.11862701  1
  N  N50  1  0.87633128  0.55648189  0.87153540  1
  N  N51  1  0.77596509  0.43153082  0.62091902  1
  N  N52  1  0.55453983  0.54254793  0.36737431  1
  N  N53  1  0.44804269  0.42357316  0.12171063  1
  N  N54  1  0.23028804  0.52817506  0.87388517  1
  N  N55  1  0.10979383  0.42939584  0.62201629  1
  N  N56  1  0.89320141  0.52910360  0.36793407  1
  N  N57  1  0.77943812  0.42126870  0.11697014  1
  N  N58  1  0.55273200  0.54153866  0.87150645  1
  N  N59  1  0.44178813  0.43218566  0.61801994  1
  N  N60  1  0.22276012  0.87235771  0.37516420  1
  N  N61  1  0.13184916  0.76800329  0.10787694  1
  N  N62  1  0.88143090  0.83237638  0.84304343  1
  N  N63  1  0.77837515  0.76873181  0.56563933  1
  N  N64  1  0.54499479  0.87713581  0.36467734  1
  N  N65  1  0.41959796  0.77418357  0.11065856  1
  N  N66  1  0.22244749  0.87279804  0.89182672  1
  N  N67  1  0.11079614  0.76505759  0.63497164  1
  N  N68  1  0.89588976  0.87145394  0.32001169  1
  N  N69  1  0.77391476  0.75482029  0.11990835  1
  N  N70  1  0.58620224  0.85528871  0.86882590  1
  N  N71  1  0.44138617  0.76499244  0.62569343  1
