# generated using pymatgen
data_Al11BN12
_symmetry_space_group_name_H-M   'P 1'
_cell_length_a   9.31650328
_cell_length_b   9.30960902
_cell_length_c   9.99758782
_cell_angle_alpha   89.94023919
_cell_angle_beta   89.89604571
_cell_angle_gamma   59.91370429
_symmetry_Int_Tables_number   1
_chemical_formula_structural   Al11BN12
_chemical_formula_sum   'Al33 B3 N36'
_cell_volume   750.29355312
_cell_formula_units_Z   3
loop_
 _symmetry_equiv_pos_site_id
 _symmetry_equiv_pos_as_xyz
  1  'x, y, z'
loop_
 _atom_site_type_symbol
 _atom_site_label
 _atom_site_symmetry_multiplicity
 _atom_site_fract_x
 _atom_site_fract_y
 _atom_site_fract_z
 _atom_site_occupancy
  Al  Al0  1  0.10419003  0.10274337  0.38812311  1
  Al  Al1  1  0.22311734  0.19898331  0.13788576  1
  Al  Al2  1  0.88618615  0.20258191  0.64196859  1
  Al  Al3  1  0.44575724  0.09276494  0.38729486  1
  Al  Al4  1  0.56126291  0.19751948  0.12988501  1
  Al  Al5  1  0.10716588  0.09191797  0.89186439  1
  Al  Al6  1  0.22118337  0.20665480  0.63857242  1
  Al  Al7  1  0.77967731  0.09070550  0.38450465  1
  Al  Al8  1  0.89346905  0.19704277  0.13200351  1
  Al  Al9  1  0.45505266  0.08904455  0.88784835  1
  Al  Al10  1  0.56182090  0.20085381  0.63968684  1
  Al  Al11  1  0.10490584  0.42797084  0.38553618  1
  Al  Al12  1  0.22352678  0.54548067  0.06826770  1
  Al  Al13  1  0.78190443  0.42498366  0.88899667  1
  Al  Al14  1  0.88623905  0.54503919  0.64056071  1
  Al  Al15  1  0.44216224  0.42851795  0.33485400  1
  Al  Al16  1  0.55715111  0.53979166  0.12475152  1
  Al  Al17  1  0.10407513  0.42840300  0.88718834  1
  Al  Al18  1  0.22216893  0.54541533  0.57249432  1
  Al  Al19  1  0.77413816  0.43041722  0.38743323  1
  Al  Al20  1  0.88838653  0.54031906  0.13296857  1
  Al  Al21  1  0.45330874  0.41835483  0.86091634  1
  Al  Al22  1  0.55742242  0.53667389  0.64226677  1
  Al  Al23  1  0.11530030  0.76585642  0.30857572  1
  Al  Al24  1  0.87822274  0.87795657  0.64684626  1
  Al  Al25  1  0.43078654  0.77160348  0.31256452  1
  Al  Al26  1  0.55511273  0.87516352  0.12447984  1
  Al  Al27  1  0.11029298  0.76109588  0.83032183  1
  Al  Al28  1  0.22339289  0.86854226  0.57342479  1
  Al  Al29  1  0.77762487  0.76382643  0.38270644  1
  Al  Al30  1  0.88881618  0.87512172  0.11473145  1
  Al  Al31  1  0.44751726  0.76265208  0.83623035  1
  Al  Al32  1  0.56335993  0.87333247  0.64181261  1
  B  B33  1  0.77305435  0.08922292  0.89360397  1
  B  B34  1  0.22732537  0.86609017  0.05821744  1
  B  B35  1  0.77256922  0.77039740  0.89416419  1
  N  N36  1  0.22271984  0.20518255  0.32828375  1
  N  N37  1  0.12150902  0.07388590  0.08324256  1
  N  N38  1  0.88047373  0.18769206  0.83434943  1
  N  N39  1  0.77982056  0.09130546  0.57363699  1
  N  N40  1  0.55911469  0.19918170  0.32274725  1
  N  N41  1  0.44263909  0.09630708  0.07441466  1
  N  N42  1  0.22389250  0.20125146  0.82927844  1
  N  N43  1  0.10508628  0.10250379  0.58171286  1
  N  N44  1  0.88528748  0.20651499  0.32357659  1
  N  N45  1  0.77735268  0.09537677  0.05381224  1
  N  N46  1  0.58531584  0.18585281  0.83536121  1
  N  N47  1  0.44587878  0.09391215  0.57982168  1
  N  N48  1  0.21820757  0.54747844  0.37341043  1
  N  N49  1  0.10962404  0.42365145  0.08064959  1
  N  N50  1  0.87810954  0.56316156  0.83266090  1
  N  N51  1  0.77765608  0.42857737  0.58072573  1
  N  N52  1  0.55745202  0.54110012  0.32289145  1
  N  N53  1  0.44771705  0.42358673  0.09920765  1
  N  N54  1  0.22397493  0.53786481  0.87652455  1
  N  N55  1  0.10618003  0.42794266  0.57952435  1
  N  N56  1  0.88510968  0.54181587  0.32377709  1
  N  N57  1  0.78343393  0.42360967  0.07671229  1
  N  N58  1  0.56372379  0.53323388  0.83895636  1
  N  N59  1  0.44393272  0.42601583  0.61299539  1
  N  N60  1  0.22097000  0.87007602  0.38318953  1
  N  N61  1  0.12856553  0.77358357  0.11528480  1
  N  N62  1  0.86501073  0.88319146  0.84479200  1
  N  N63  1  0.77891138  0.76360427  0.57277079  1
  N  N64  1  0.55808293  0.87457873  0.31949539  1
  N  N65  1  0.41630010  0.77714047  0.11298846  1
  N  N66  1  0.22902729  0.86032516  0.89719818  1
  N  N67  1  0.11083131  0.76377776  0.63879483  1
  N  N68  1  0.88252358  0.87524082  0.31098587  1
  N  N69  1  0.77819456  0.75972752  0.05495803  1
  N  N70  1  0.58569158  0.86129525  0.83868886  1
  N  N71  1  0.43806748  0.76915661  0.63809168  1
