# generated using pymatgen
data_Al11BN12
_symmetry_space_group_name_H-M   'P 1'
_cell_length_a   9.30867075
_cell_length_b   9.30088151
_cell_length_c   10.01546031
_cell_angle_alpha   89.90097870
_cell_angle_beta   89.87320475
_cell_angle_gamma   59.96400344
_symmetry_Int_Tables_number   1
_chemical_formula_structural   Al11BN12
_chemical_formula_sum   'Al33 B3 N36'
_cell_volume   750.67941634
_cell_formula_units_Z   3
loop_
 _symmetry_equiv_pos_site_id
 _symmetry_equiv_pos_as_xyz
  1  'x, y, z'
loop_
 _atom_site_type_symbol
 _atom_site_label
 _atom_site_symmetry_multiplicity
 _atom_site_fract_x
 _atom_site_fract_y
 _atom_site_fract_z
 _atom_site_occupancy
  Al  Al0  1  0.10548393  0.10187780  0.38770383  1
  Al  Al1  1  0.22268127  0.19945750  0.13831879  1
  Al  Al2  1  0.88799277  0.20093377  0.64283338  1
  Al  Al3  1  0.44646516  0.09209296  0.38653482  1
  Al  Al4  1  0.56093129  0.19751654  0.13126050  1
  Al  Al5  1  0.10679869  0.09253829  0.89265630  1
  Al  Al6  1  0.22144658  0.20628304  0.63896054  1
  Al  Al7  1  0.77988017  0.09055301  0.38414763  1
  Al  Al8  1  0.89275368  0.19768391  0.13296836  1
  Al  Al9  1  0.45503394  0.08995087  0.88846994  1
  Al  Al10  1  0.56499081  0.19549979  0.63862003  1
  Al  Al11  1  0.10677061  0.42781480  0.38583302  1
  Al  Al12  1  0.22521280  0.54421961  0.06759950  1
  Al  Al13  1  0.78367728  0.42344625  0.88774681  1
  Al  Al14  1  0.88816707  0.54459101  0.64147105  1
  Al  Al15  1  0.44202287  0.43191017  0.31663484  1
  Al  Al16  1  0.55073870  0.54329486  0.08455886  1
  Al  Al17  1  0.10390688  0.42848674  0.88824966  1
  Al  Al18  1  0.22293784  0.54539038  0.57115675  1
  Al  Al19  1  0.77608868  0.42925877  0.38662715  1
  Al  Al20  1  0.88785144  0.54046308  0.13383257  1
  Al  Al21  1  0.44695628  0.42311038  0.82813568  1
  Al  Al22  1  0.55590100  0.54068673  0.61441123  1
  Al  Al23  1  0.11659762  0.76477139  0.30913155  1
  Al  Al24  1  0.87935493  0.87677971  0.64709837  1
  Al  Al25  1  0.43423146  0.76547593  0.31170834  1
  Al  Al26  1  0.55485288  0.87546274  0.12555737  1
  Al  Al27  1  0.10961134  0.76154114  0.83179508  1
  Al  Al28  1  0.22326186  0.86840399  0.57265255  1
  Al  Al29  1  0.77756658  0.76348291  0.38252473  1
  Al  Al30  1  0.88846899  0.87544614  0.11538393  1
  Al  Al31  1  0.44681886  0.76220102  0.83547280  1
  Al  Al32  1  0.56432174  0.87294545  0.64289569  1
  B  B33  1  0.77135317  0.09093498  0.89365552  1
  B  B34  1  0.22589190  0.86716267  0.05870667  1
  B  B35  1  0.77201510  0.77119733  0.89446493  1
  N  N36  1  0.22317237  0.20532195  0.32826501  1
  N  N37  1  0.12101403  0.07411593  0.08357589  1
  N  N38  1  0.88003697  0.18769228  0.83428134  1
  N  N39  1  0.78142229  0.09039761  0.57337863  1
  N  N40  1  0.55986681  0.19849551  0.32497989  1
  N  N41  1  0.44223713  0.09684965  0.07452230  1
  N  N42  1  0.22374146  0.20166603  0.82935542  1
  N  N43  1  0.10626773  0.10155122  0.58172794  1
  N  N44  1  0.88646971  0.20572704  0.32391307  1
  N  N45  1  0.77600983  0.09652699  0.05379458  1
  N  N46  1  0.58501757  0.18628152  0.83467872  1
  N  N47  1  0.44600247  0.09296441  0.57941279  1
  N  N48  1  0.22170690  0.54633889  0.37678470  1
  N  N49  1  0.10921035  0.42400589  0.08079169  1
  N  N50  1  0.87804588  0.56316175  0.83263221  1
  N  N51  1  0.78212921  0.42584761  0.58363601  1
  N  N52  1  0.55402047  0.54325545  0.35074137  1
  N  N53  1  0.44229815  0.42798234  0.12210447  1
  N  N54  1  0.22508155  0.53738047  0.87835047  1
  N  N55  1  0.10777771  0.42733447  0.58005923  1
  N  N56  1  0.88682139  0.54129677  0.32427241  1
  N  N57  1  0.78488217  0.42264605  0.07744088  1
  N  N58  1  0.55710576  0.53666981  0.86625651  1
  N  N59  1  0.44173964  0.42722170  0.63297735  1
  N  N60  1  0.22226350  0.86977258  0.38296002  1
  N  N61  1  0.12805194  0.77348590  0.11514924  1
  N  N62  1  0.86455342  0.88305501  0.84475471  1
  N  N63  1  0.77921054  0.76298152  0.57285831  1
  N  N64  1  0.55825420  0.87379909  0.31904524  1
  N  N65  1  0.41590006  0.77686662  0.11380428  1
  N  N66  1  0.22809000  0.86152113  0.89743409  1
  N  N67  1  0.11204202  0.76278487  0.63992081  1
  N  N68  1  0.88346596  0.87449224  0.31127436  1
  N  N69  1  0.77755808  0.76006716  0.05495709  1
  N  N70  1  0.58501532  0.86172442  0.83861343  1
  N  N71  1  0.43851708  0.76759629  0.64057811  1
