# generated using pymatgen
data_Al11BN12
_symmetry_space_group_name_H-M   'P 1'
_cell_length_a   9.31125528
_cell_length_b   9.29294881
_cell_length_c   9.99320105
_cell_angle_alpha   89.88919982
_cell_angle_beta   89.79613085
_cell_angle_gamma   59.93972208
_symmetry_Int_Tables_number   1
_chemical_formula_structural   Al11BN12
_chemical_formula_sum   'Al33 B3 N36'
_cell_volume   748.39377748
_cell_formula_units_Z   3
loop_
 _symmetry_equiv_pos_site_id
 _symmetry_equiv_pos_as_xyz
  1  'x, y, z'
loop_
 _atom_site_type_symbol
 _atom_site_label
 _atom_site_symmetry_multiplicity
 _atom_site_fract_x
 _atom_site_fract_y
 _atom_site_fract_z
 _atom_site_occupancy
  Al  Al0  1  0.10432942  0.10277804  0.38704228  1
  Al  Al1  1  0.22339812  0.19861027  0.13732622  1
  Al  Al2  1  0.88584722  0.20293882  0.64132834  1
  Al  Al3  1  0.44554342  0.09413547  0.38750878  1
  Al  Al4  1  0.55859184  0.20250465  0.13443125  1
  Al  Al5  1  0.10639653  0.09231398  0.89052277  1
  Al  Al6  1  0.22101823  0.20600066  0.63851133  1
  Al  Al7  1  0.78036719  0.09025593  0.38375060  1
  Al  Al8  1  0.89307461  0.19721066  0.13077846  1
  Al  Al9  1  0.45472972  0.09043308  0.88783504  1
  Al  Al10  1  0.56060260  0.20377160  0.63939340  1
  Al  Al11  1  0.10551258  0.42851108  0.38410513  1
  Al  Al12  1  0.22322142  0.54468723  0.06872402  1
  Al  Al13  1  0.78027614  0.42533900  0.88798137  1
  Al  Al14  1  0.88481489  0.54542699  0.64034355  1
  Al  Al15  1  0.44991828  0.42556079  0.38525633  1
  Al  Al16  1  0.55517732  0.53676110  0.13167238  1
  Al  Al17  1  0.10437211  0.42839737  0.88563076  1
  Al  Al18  1  0.21580272  0.54892290  0.57359737  1
  Al  Al19  1  0.77637357  0.42952790  0.38704961  1
  Al  Al20  1  0.88735261  0.54064250  0.13173095  1
  Al  Al21  1  0.45947177  0.41553700  0.88721169  1
  Al  Al22  1  0.55570279  0.53854833  0.64095613  1
  Al  Al23  1  0.11694598  0.76411559  0.30659991  1
  Al  Al24  1  0.87620581  0.87929947  0.64697891  1
  Al  Al25  1  0.43604162  0.76824641  0.32558194  1
  Al  Al26  1  0.55451855  0.87498438  0.12484107  1
  Al  Al27  1  0.11027127  0.75952250  0.82922706  1
  Al  Al28  1  0.22293364  0.86908894  0.57303726  1
  Al  Al29  1  0.77867082  0.76408504  0.38278928  1
  Al  Al30  1  0.88795825  0.87596689  0.11361760  1
  Al  Al31  1  0.45154619  0.75841770  0.85557503  1
  Al  Al32  1  0.56128449  0.87254741  0.64283211  1
  B  B33  1  0.77223202  0.09080804  0.89273420  1
  B  B34  1  0.22596132  0.86604810  0.05586568  1
  B  B35  1  0.77212957  0.77121484  0.89420884  1
  N  N36  1  0.22288288  0.20521205  0.32776008  1
  N  N37  1  0.12191976  0.07312502  0.08224566  1
  N  N38  1  0.87959684  0.18781500  0.83400549  1
  N  N39  1  0.77912739  0.09215801  0.57315442  1
  N  N40  1  0.55753096  0.20404062  0.32484529  1
  N  N41  1  0.44343631  0.09735202  0.07527715  1
  N  N42  1  0.22356761  0.20086346  0.82907769  1
  N  N43  1  0.10454805  0.10276538  0.58085463  1
  N  N44  1  0.88585823  0.20638101  0.32248030  1
  N  N45  1  0.77525063  0.09676835  0.05355064  1
  N  N46  1  0.58315116  0.18938818  0.83234377  1
  N  N47  1  0.44568625  0.09506004  0.58048748  1
  N  N48  1  0.21762281  0.54782191  0.37224077  1
  N  N49  1  0.10920596  0.42364517  0.07963885  1
  N  N50  1  0.87738356  0.56312305  0.83253508  1
  N  N51  1  0.77770107  0.42830966  0.57998487  1
  N  N52  1  0.55694268  0.53802956  0.32429610  1
  N  N53  1  0.45233765  0.42145076  0.07860035  1
  N  N54  1  0.22652023  0.53519423  0.87193469  1
  N  N55  1  0.10535893  0.42765636  0.57971658  1
  N  N56  1  0.88512989  0.54219950  0.32286302  1
  N  N57  1  0.78074533  0.42482146  0.07636003  1
  N  N58  1  0.56283668  0.53004168  0.83190643  1
  N  N59  1  0.44933261  0.42537666  0.58003783  1
  N  N60  1  0.22024550  0.87049590  0.38112482  1
  N  N61  1  0.12904339  0.77296712  0.11345353  1
  N  N62  1  0.86383548  0.88342895  0.84457510  1
  N  N63  1  0.77803305  0.76432899  0.57282517  1
  N  N64  1  0.55837884  0.87503031  0.31932037  1
  N  N65  1  0.42171066  0.77255766  0.10099657  1
  N  N66  1  0.22593284  0.86133517  0.89452471  1
  N  N67  1  0.10904878  0.76546182  0.63836871  1
  N  N68  1  0.88305428  0.87537852  0.30970746  1
  N  N69  1  0.77776197  0.76015851  0.05476829  1
  N  N70  1  0.58472051  0.86132899  0.83917844  1
  N  N71  1  0.44000251  0.76751204  0.62744626  1
