# generated using pymatgen
data_Al11BN12
_symmetry_space_group_name_H-M   'P 1'
_cell_length_a   9.29865305
_cell_length_b   9.33517920
_cell_length_c   10.04354443
_cell_angle_alpha   90.13363237
_cell_angle_beta   89.98489726
_cell_angle_gamma   60.03658550
_symmetry_Int_Tables_number   1
_chemical_formula_structural   Al11BN12
_chemical_formula_sum   'Al33 B3 N36'
_cell_volume   755.29838597
_cell_formula_units_Z   3
loop_
 _symmetry_equiv_pos_site_id
 _symmetry_equiv_pos_as_xyz
  1  'x, y, z'
loop_
 _atom_site_type_symbol
 _atom_site_label
 _atom_site_symmetry_multiplicity
 _atom_site_fract_x
 _atom_site_fract_y
 _atom_site_fract_z
 _atom_site_occupancy
  Al  Al0  1  0.11458146  0.08812526  0.31703138  1
  Al  Al1  1  0.21922586  0.20298621  0.06909633  1
  Al  Al2  1  0.89577113  0.20532340  0.57115399  1
  Al  Al3  1  0.44295449  0.09684456  0.31833528  1
  Al  Al4  1  0.55076397  0.21127966  0.08469443  1
  Al  Al5  1  0.10791281  0.08932257  0.82713629  1
  Al  Al6  1  0.22686834  0.20089207  0.57157212  1
  Al  Al7  1  0.78172129  0.08569431  0.38723814  1
  Al  Al8  1  0.89487661  0.20356437  0.06800146  1
  Al  Al9  1  0.45067406  0.09972043  0.83050529  1
  Al  Al10  1  0.55557198  0.20758611  0.58968312  1
  Al  Al11  1  0.10983924  0.42796538  0.32217230  1
  Al  Al12  1  0.22234946  0.54146983  0.07170095  1
  Al  Al13  1  0.77899005  0.41650754  0.81965399  1
  Al  Al14  1  0.89371418  0.53158896  0.57655575  1
  Al  Al15  1  0.44351756  0.42957741  0.32414446  1
  Al  Al16  1  0.55097621  0.54201331  0.07162237  1
  Al  Al17  1  0.11274928  0.42174902  0.81949337  1
  Al  Al18  1  0.21801495  0.54464016  0.57575500  1
  Al  Al19  1  0.77922420  0.42780530  0.32012870  1
  Al  Al20  1  0.88985915  0.53573857  0.05492865  1
  Al  Al21  1  0.44863985  0.42716327  0.82426462  1
  Al  Al22  1  0.55491940  0.54219547  0.57336190  1
  Al  Al23  1  0.11906704  0.76008421  0.31601564  1
  Al  Al24  1  0.87703018  0.88043907  0.65554231  1
  Al  Al25  1  0.43729961  0.75915876  0.31809077  1
  Al  Al26  1  0.55325657  0.87054673  0.12710253  1
  Al  Al27  1  0.10922427  0.76158602  0.84159355  1
  Al  Al28  1  0.22157016  0.87110702  0.57867459  1
  Al  Al29  1  0.77708199  0.76457492  0.39027583  1
  Al  Al30  1  0.88984145  0.87644447  0.12835829  1
  Al  Al31  1  0.44736726  0.75818347  0.83840945  1
  Al  Al32  1  0.56890814  0.86483802  0.64763028  1
  B  B33  1  0.77052845  0.09738727  0.90674208  1
  B  B34  1  0.22332935  0.87004557  0.06680728  1
  B  B35  1  0.74815669  0.82256670  0.90906983  1
  N  N36  1  0.22347118  0.20205181  0.38014437  1
  N  N37  1  0.12253644  0.06985466  0.12431760  1
  N  N38  1  0.87790208  0.18811129  0.87589103  1
  N  N39  1  0.78382131  0.08671334  0.57972827  1
  N  N40  1  0.55364174  0.20671721  0.36738475  1
  N  N41  1  0.43833910  0.10077285  0.12505352  1
  N  N42  1  0.22695074  0.19811786  0.88133565  1
  N  N43  1  0.11426824  0.09235059  0.63657208  1
  N  N44  1  0.89442195  0.20562954  0.37601376  1
  N  N45  1  0.77794637  0.09080845  0.06937097  1
  N  N46  1  0.57528387  0.20114452  0.87603263  1
  N  N47  1  0.44549593  0.09553821  0.63664734  1
  N  N48  1  0.21918927  0.54332810  0.38336796  1
  N  N49  1  0.10738572  0.43130832  0.13169249  1
  N  N50  1  0.89930429  0.51195075  0.87379121  1
  N  N51  1  0.77673220  0.42504493  0.63012208  1
  N  N52  1  0.55480830  0.54126907  0.38233243  1
  N  N53  1  0.44177284  0.43261839  0.13428181  1
  N  N54  1  0.22364582  0.53377516  0.88395802  1
  N  N55  1  0.11667626  0.42346607  0.62999869  1
  N  N56  1  0.89203085  0.53253954  0.38330317  1
  N  N57  1  0.77673717  0.43043205  0.13011766  1
  N  N58  1  0.55829804  0.53634206  0.88478210  1
  N  N59  1  0.44289357  0.43193981  0.63353752  1
  N  N60  1  0.22160587  0.87125366  0.38861402  1
  N  N61  1  0.12805540  0.77165682  0.11982584  1
  N  N62  1  0.85537213  0.89393095  0.85154656  1
  N  N63  1  0.78017465  0.76541802  0.58067444  1
  N  N64  1  0.56315024  0.86386770  0.32251055  1
  N  N65  1  0.41588593  0.77174472  0.12106442  1
  N  N66  1  0.22319721  0.87182586  0.90507748  1
  N  N67  1  0.11124878  0.76275825  0.64820036  1
  N  N68  1  0.88553531  0.87086236  0.31815481  1
  N  N69  1  0.77212402  0.77521817  0.05585362  1
  N  N70  1  0.58409234  0.86440936  0.84733574  1
  N  N71  1  0.44247462  0.76057427  0.64366075  1
