# generated using pymatgen
data_Al11BN12
_symmetry_space_group_name_H-M   'P 1'
_cell_length_a   9.30528494
_cell_length_b   9.28165004
_cell_length_c   10.09428002
_cell_angle_alpha   89.78049027
_cell_angle_beta   90.04159171
_cell_angle_gamma   59.96562600
_symmetry_Int_Tables_number   1
_chemical_formula_structural   Al11BN12
_chemical_formula_sum   'Al33 B3 N36'
_cell_volume   754.75343923
_cell_formula_units_Z   3
loop_
 _symmetry_equiv_pos_site_id
 _symmetry_equiv_pos_as_xyz
  1  'x, y, z'
loop_
 _atom_site_type_symbol
 _atom_site_label
 _atom_site_symmetry_multiplicity
 _atom_site_fract_x
 _atom_site_fract_y
 _atom_site_fract_z
 _atom_site_occupancy
  Al  Al0  1  0.10379384  0.10439375  0.38930418  1
  Al  Al1  1  0.22720309  0.19247274  0.13717913  1
  Al  Al2  1  0.88976009  0.19514504  0.64544458  1
  Al  Al3  1  0.44600157  0.09152677  0.38812166  1
  Al  Al4  1  0.56001469  0.20054618  0.13423663  1
  Al  Al5  1  0.10878227  0.09038512  0.89534695  1
  Al  Al6  1  0.22496993  0.19951012  0.64079826  1
  Al  Al7  1  0.78036036  0.08963416  0.38541403  1
  Al  Al8  1  0.89434936  0.19222181  0.12943340  1
  Al  Al9  1  0.45698329  0.08910883  0.88987041  1
  Al  Al10  1  0.56373224  0.19780794  0.63822805  1
  Al  Al11  1  0.10839489  0.43510413  0.31598672  1
  Al  Al12  1  0.22706894  0.54147374  0.06798775  1
  Al  Al13  1  0.77368137  0.42849673  0.83269339  1
  Al  Al14  1  0.88539284  0.54501231  0.62379184  1
  Al  Al15  1  0.44212551  0.43205772  0.32230949  1
  Al  Al16  1  0.54750686  0.54450472  0.06863199  1
  Al  Al17  1  0.11196029  0.43332056  0.82765084  1
  Al  Al18  1  0.21912609  0.54329925  0.57095018  1
  Al  Al19  1  0.77333201  0.43357397  0.31277669  1
  Al  Al20  1  0.88859948  0.54161766  0.08045534  1
  Al  Al21  1  0.44905142  0.42756628  0.82119648  1
  Al  Al22  1  0.55651367  0.54022523  0.57108153  1
  Al  Al23  1  0.11601633  0.76507459  0.31040744  1
  Al  Al24  1  0.87894550  0.87754947  0.64987612  1
  Al  Al25  1  0.43389226  0.76394028  0.31541626  1
  Al  Al26  1  0.55399479  0.87523784  0.13055836  1
  Al  Al27  1  0.11032076  0.76192395  0.83397567  1
  Al  Al28  1  0.22300456  0.86715068  0.57359405  1
  Al  Al29  1  0.77861772  0.76177072  0.38474118  1
  Al  Al30  1  0.88733355  0.87705306  0.11896207  1
  Al  Al31  1  0.44786280  0.75798964  0.82904012  1
  Al  Al32  1  0.56297981  0.87291816  0.64360367  1
  B  B33  1  0.77239715  0.09159164  0.89386503  1
  B  B34  1  0.22818090  0.86336526  0.06134650  1
  B  B35  1  0.76951729  0.77654142  0.89583894  1
  N  N36  1  0.22580406  0.20032279  0.32786614  1
  N  N37  1  0.12152351  0.07339743  0.08312309  1
  N  N38  1  0.88237484  0.18041965  0.83806317  1
  N  N39  1  0.78061486  0.09071938  0.57341011  1
  N  N40  1  0.55982605  0.19806593  0.32702751  1
  N  N41  1  0.44445825  0.09658586  0.07503125  1
  N  N42  1  0.22795974  0.19400826  0.83247444  1
  N  N43  1  0.10481744  0.10257124  0.58109047  1
  N  N44  1  0.88876121  0.19876641  0.32075959  1
  N  N45  1  0.77361366  0.09757579  0.05367605  1
  N  N46  1  0.58438704  0.18863896  0.83319000  1
  N  N47  1  0.44566919  0.09335361  0.57911836  1
  N  N48  1  0.21940193  0.54394442  0.38051245  1
  N  N49  1  0.11364910  0.43066433  0.12067801  1
  N  N50  1  0.87877780  0.56356433  0.85862822  1
  N  N51  1  0.77340372  0.42913618  0.63935028  1
  N  N52  1  0.55516297  0.54132914  0.38106959  1
  N  N53  1  0.44268504  0.43329189  0.13203349  1
  N  N54  1  0.22901365  0.53469014  0.88275019  1
  N  N55  1  0.11265665  0.43241712  0.63416039  1
  N  N56  1  0.88715668  0.54047107  0.34735754  1
  N  N57  1  0.77332019  0.43079184  0.11716949  1
  N  N58  1  0.55492115  0.53761672  0.88418859  1
  N  N59  1  0.44234841  0.43133025  0.62978142  1
  N  N60  1  0.22185453  0.86888236  0.38553942  1
  N  N61  1  0.12767445  0.77309294  0.11669526  1
  N  N62  1  0.86415788  0.88311026  0.84525585  1
  N  N63  1  0.77704110  0.76696490  0.57547500  1
  N  N64  1  0.55839222  0.87209510  0.32184051  1
  N  N65  1  0.41614590  0.77389598  0.12126499  1
  N  N66  1  0.23233098  0.85785793  0.89995960  1
  N  N67  1  0.11171822  0.76269382  0.64246283  1
  N  N68  1  0.88327124  0.87380228  0.31252952  1
  N  N69  1  0.77079819  0.77177262  0.05494564  1
  N  N70  1  0.58428645  0.86121902  0.83689064  1
  N  N71  1  0.44112282  0.76193012  0.63786648  1
