# generated using pymatgen
data_Al11BN12
_symmetry_space_group_name_H-M   'P 1'
_cell_length_a   9.29941161
_cell_length_b   9.27796097
_cell_length_c   10.10842360
_cell_angle_alpha   89.74467877
_cell_angle_beta   90.02081062
_cell_angle_gamma   59.98751898
_symmetry_Int_Tables_number   1
_chemical_formula_structural   Al11BN12
_chemical_formula_sum   'Al33 B3 N36'
_cell_volume   755.19861502
_cell_formula_units_Z   3
loop_
 _symmetry_equiv_pos_site_id
 _symmetry_equiv_pos_as_xyz
  1  'x, y, z'
loop_
 _atom_site_type_symbol
 _atom_site_label
 _atom_site_symmetry_multiplicity
 _atom_site_fract_x
 _atom_site_fract_y
 _atom_site_fract_z
 _atom_site_occupancy
  Al  Al0  1  0.11040137  0.09138881  0.34989596  1
  Al  Al1  1  0.22592658  0.20094385  0.13023251  1
  Al  Al2  1  0.89017434  0.19251463  0.64810209  1
  Al  Al3  1  0.44626688  0.08979683  0.38982906  1
  Al  Al4  1  0.55958688  0.20165425  0.13595793  1
  Al  Al5  1  0.10788547  0.09279438  0.88722997  1
  Al  Al6  1  0.22750258  0.19629894  0.64500538  1
  Al  Al7  1  0.78122806  0.08788034  0.38703869  1
  Al  Al8  1  0.88811414  0.20077030  0.12272548  1
  Al  Al9  1  0.45720911  0.09136774  0.89078071  1
  Al  Al10  1  0.56482384  0.19587186  0.63963690  1
  Al  Al11  1  0.10800562  0.43347088  0.31831865  1
  Al  Al12  1  0.22475511  0.54385435  0.06866431  1
  Al  Al13  1  0.77334161  0.43536473  0.82475119  1
  Al  Al14  1  0.89442854  0.52657140  0.57092143  1
  Al  Al15  1  0.44264990  0.43049631  0.32349021  1
  Al  Al16  1  0.54765654  0.54647938  0.06937005  1
  Al  Al17  1  0.10519638  0.43975136  0.82073702  1
  Al  Al18  1  0.22033566  0.54155970  0.57268403  1
  Al  Al19  1  0.77469820  0.43222152  0.31515328  1
  Al  Al20  1  0.88767142  0.54362202  0.05998605  1
  Al  Al21  1  0.44811982  0.42877689  0.82238576  1
  Al  Al22  1  0.55637700  0.53890350  0.57265340  1
  Al  Al23  1  0.11701256  0.76065500  0.31119012  1
  Al  Al24  1  0.88020673  0.87233372  0.65027542  1
  Al  Al25  1  0.43674133  0.75981715  0.31588783  1
  Al  Al26  1  0.55232231  0.87732900  0.13120005  1
  Al  Al27  1  0.10993188  0.76338474  0.83432275  1
  Al  Al28  1  0.22164291  0.86995895  0.57525900  1
  Al  Al29  1  0.77729279  0.76417207  0.38644661  1
  Al  Al30  1  0.88701451  0.87965456  0.11968441  1
  Al  Al31  1  0.44649917  0.75967598  0.82970771  1
  Al  Al32  1  0.56710644  0.86786975  0.64447417  1
  B  B33  1  0.76915351  0.09817649  0.89519718  1
  B  B34  1  0.22701047  0.86572763  0.06279122  1
  B  B35  1  0.76656480  0.78431056  0.89848575  1
  N  N36  1  0.22862894  0.19878115  0.32349999  1
  N  N37  1  0.12049154  0.07571655  0.08861900  1
  N  N38  1  0.87635298  0.18682464  0.84252914  1
  N  N39  1  0.78183398  0.08771643  0.57458663  1
  N  N40  1  0.56037687  0.19643926  0.32823602  1
  N  N41  1  0.44478702  0.09862878  0.07542356  1
  N  N42  1  0.22845004  0.20082066  0.83853188  1
  N  N43  1  0.10954225  0.09385973  0.60616809  1
  N  N44  1  0.88618855  0.19754434  0.31625909  1
  N  N45  1  0.77129444  0.10061962  0.05422373  1
  N  N46  1  0.58389523  0.19039135  0.83418706  1
  N  N47  1  0.44749042  0.09033149  0.58041875  1
  N  N48  1  0.22011194  0.54148379  0.38207278  1
  N  N49  1  0.10466780  0.44065018  0.12750689  1
  N  N50  1  0.88129559  0.55725949  0.87318088  1
  N  N51  1  0.77603221  0.42757641  0.63546778  1
  N  N52  1  0.55615068  0.53915395  0.38248070  1
  N  N53  1  0.44179633  0.43474693  0.13297277  1
  N  N54  1  0.22656561  0.53609305  0.88325900  1
  N  N55  1  0.11185881  0.43022351  0.63139489  1
  N  N56  1  0.89269665  0.52848859  0.38064452  1
  N  N57  1  0.77215924  0.44079475  0.12451607  1
  N  N58  1  0.55583682  0.53860760  0.88461181  1
  N  N59  1  0.44307202  0.42950765  0.63110821  1
  N  N60  1  0.22312304  0.86603751  0.38520398  1
  N  N61  1  0.12719830  0.77493604  0.11819206  1
  N  N62  1  0.86378651  0.88305284  0.84596570  1
  N  N63  1  0.77924360  0.76276272  0.57509896  1
  N  N64  1  0.55977063  0.86938228  0.32202666  1
  N  N65  1  0.41501128  0.77547327  0.12239827  1
  N  N66  1  0.23059239  0.86119964  0.90241734  1
  N  N67  1  0.11319331  0.76019790  0.64283353  1
  N  N68  1  0.88438745  0.87103562  0.31305905  1
  N  N69  1  0.76802637  0.77796141  0.05704880  1
  N  N70  1  0.58392793  0.86269031  0.83792625  1
  N  N71  1  0.44216697  0.75969590  0.63849312  1
