# generated using pymatgen
data_Al11BN12
_symmetry_space_group_name_H-M   'P 1'
_cell_length_a   9.31115799
_cell_length_b   9.29271926
_cell_length_c   9.99198438
_cell_angle_alpha   89.88885216
_cell_angle_beta   89.78839370
_cell_angle_gamma   59.94051492
_symmetry_Int_Tables_number   1
_chemical_formula_structural   Al11BN12
_chemical_formula_sum   'Al33 B3 N36'
_cell_volume   748.28199103
_cell_formula_units_Z   3
loop_
 _symmetry_equiv_pos_site_id
 _symmetry_equiv_pos_as_xyz
  1  'x, y, z'
loop_
 _atom_site_type_symbol
 _atom_site_label
 _atom_site_symmetry_multiplicity
 _atom_site_fract_x
 _atom_site_fract_y
 _atom_site_fract_z
 _atom_site_occupancy
  Al  Al0  1  0.10425488  0.10287942  0.38697648  1
  Al  Al1  1  0.22342038  0.19859045  0.13730244  1
  Al  Al2  1  0.88577596  0.20299613  0.64129532  1
  Al  Al3  1  0.44547708  0.09427737  0.38762273  1
  Al  Al4  1  0.55857948  0.20252234  0.13437687  1
  Al  Al5  1  0.10624754  0.09249971  0.89030770  1
  Al  Al6  1  0.22105335  0.20598157  0.63849565  1
  Al  Al7  1  0.78040606  0.09021967  0.38374245  1
  Al  Al8  1  0.89304167  0.19723916  0.13071360  1
  Al  Al9  1  0.45471695  0.09040971  0.88778737  1
  Al  Al10  1  0.56059377  0.20375069  0.63938331  1
  Al  Al11  1  0.10550419  0.42854623  0.38410925  1
  Al  Al12  1  0.22326563  0.54464221  0.06868554  1
  Al  Al13  1  0.78018996  0.42535276  0.88786652  1
  Al  Al14  1  0.88476077  0.54545801  0.64030458  1
  Al  Al15  1  0.44989417  0.42543674  0.38533796  1
  Al  Al16  1  0.55499024  0.53710328  0.13187248  1
  Al  Al17  1  0.10435412  0.42842711  0.88560984  1
  Al  Al18  1  0.21585014  0.54888764  0.57361213  1
  Al  Al19  1  0.77651878  0.42939837  0.38714319  1
  Al  Al20  1  0.88731071  0.54065701  0.13168859  1
  Al  Al21  1  0.45948559  0.41561366  0.88711653  1
  Al  Al22  1  0.55542427  0.53911153  0.64096654  1
  Al  Al23  1  0.11701475  0.76410483  0.30640191  1
  Al  Al24  1  0.87611374  0.87930029  0.64694254  1
  Al  Al25  1  0.43739072  0.76755286  0.33092015  1
  Al  Al26  1  0.55434061  0.87488461  0.12516545  1
  Al  Al27  1  0.11020174  0.75946585  0.82902499  1
  Al  Al28  1  0.22265141  0.86920818  0.57303567  1
  Al  Al29  1  0.77883698  0.76406702  0.38287053  1
  Al  Al30  1  0.88792621  0.87595956  0.11352575  1
  Al  Al31  1  0.45243536  0.75785415  0.86200685  1
  Al  Al32  1  0.56098836  0.87216644  0.64293825  1
  B  B33  1  0.77218649  0.09083421  0.89273010  1
  B  B34  1  0.22547551  0.86632382  0.05539849  1
  B  B35  1  0.77210199  0.77119934  0.89413443  1
  N  N36  1  0.22288123  0.20525032  0.32774961  1
  N  N37  1  0.12199150  0.07303130  0.08215217  1
  N  N38  1  0.87943155  0.18796320  0.83399395  1
  N  N39  1  0.77914020  0.09214490  0.57313210  1
  N  N40  1  0.55756936  0.20399813  0.32482044  1
  N  N41  1  0.44348119  0.09725813  0.07532262  1
  N  N42  1  0.22352826  0.20095632  0.82908656  1
  N  N43  1  0.10449426  0.10281529  0.58084276  1
  N  N44  1  0.88580228  0.20643196  0.32242405  1
  N  N45  1  0.77525982  0.09676552  0.05353844  1
  N  N46  1  0.58314677  0.18940751  0.83237241  1
  N  N47  1  0.44572809  0.09501402  0.58056072  1
  N  N48  1  0.21765140  0.54783785  0.37216442  1
  N  N49  1  0.10919388  0.42364991  0.07964960  1
  N  N50  1  0.87736152  0.56315606  0.83254695  1
  N  N51  1  0.77772712  0.42823396  0.58002286  1
  N  N52  1  0.55691930  0.53800286  0.32419446  1
  N  N53  1  0.45238868  0.42151394  0.07861610  1
  N  N54  1  0.22653420  0.53519172  0.87191976  1
  N  N55  1  0.10535748  0.42765876  0.57969920  1
  N  N56  1  0.88508317  0.54221949  0.32285601  1
  N  N57  1  0.78063047  0.42489025  0.07633303  1
  N  N58  1  0.56253907  0.53058513  0.83169625  1
  N  N59  1  0.44937711  0.42532196  0.58007875  1
  N  N60  1  0.21975065  0.87084031  0.38066953  1
  N  N61  1  0.12915654  0.77298148  0.11330046  1
  N  N62  1  0.86374329  0.88340206  0.84456531  1
  N  N63  1  0.77802177  0.76436627  0.57284372  1
  N  N64  1  0.55833268  0.87503865  0.31924675  1
  N  N65  1  0.42284755  0.77194498  0.09698381  1
  N  N66  1  0.22515861  0.86180333  0.89380647  1
  N  N67  1  0.10895039  0.76543079  0.63825960  1
  N  N68  1  0.88307191  0.87535359  0.30961406  1
  N  N69  1  0.77762834  0.76020441  0.05477735  1
  N  N70  1  0.58448260  0.86121998  0.83900504  1
  N  N71  1  0.44089418  0.76693750  0.62280576  1
