# generated using pymatgen
data_Al11BN12
_symmetry_space_group_name_H-M   'P 1'
_cell_length_a   9.29372872
_cell_length_b   9.32458380
_cell_length_c   10.06103565
_cell_angle_alpha   90.14406931
_cell_angle_beta   89.97746337
_cell_angle_gamma   60.02637875
_symmetry_Int_Tables_number   1
_chemical_formula_structural   Al11BN12
_chemical_formula_sum   'Al33 B3 N36'
_cell_volume   755.27652259
_cell_formula_units_Z   3
loop_
 _symmetry_equiv_pos_site_id
 _symmetry_equiv_pos_as_xyz
  1  'x, y, z'
loop_
 _atom_site_type_symbol
 _atom_site_label
 _atom_site_symmetry_multiplicity
 _atom_site_fract_x
 _atom_site_fract_y
 _atom_site_fract_z
 _atom_site_occupancy
  Al  Al0  1  0.11484520  0.08816672  0.31704840  1
  Al  Al1  1  0.22021686  0.20273002  0.06940220  1
  Al  Al2  1  0.89523526  0.20534818  0.57162582  1
  Al  Al3  1  0.44303986  0.09788911  0.31838451  1
  Al  Al4  1  0.54929354  0.21184152  0.07370296  1
  Al  Al5  1  0.10811519  0.08931301  0.82741950  1
  Al  Al6  1  0.22662231  0.20080173  0.57169465  1
  Al  Al7  1  0.78332597  0.08478837  0.38760234  1
  Al  Al8  1  0.89520005  0.20364523  0.06859150  1
  Al  Al9  1  0.45073937  0.10060885  0.82765242  1
  Al  Al10  1  0.55201139  0.20857807  0.57552546  1
  Al  Al11  1  0.10964962  0.42807995  0.32215808  1
  Al  Al12  1  0.22319880  0.54087853  0.07202497  1
  Al  Al13  1  0.77890841  0.41646034  0.81970398  1
  Al  Al14  1  0.89375509  0.53167156  0.57665016  1
  Al  Al15  1  0.44383442  0.42847655  0.32394065  1
  Al  Al16  1  0.55101503  0.54131700  0.07176529  1
  Al  Al17  1  0.11294671  0.42165779  0.81962460  1
  Al  Al18  1  0.21803276  0.54474459  0.57591324  1
  Al  Al19  1  0.77914580  0.42809531  0.31997895  1
  Al  Al20  1  0.88988935  0.53581571  0.05483087  1
  Al  Al21  1  0.44915840  0.42602422  0.82216140  1
  Al  Al22  1  0.55484082  0.54175799  0.57338624  1
  Al  Al23  1  0.11935447  0.75983346  0.31606596  1
  Al  Al24  1  0.87609329  0.88188009  0.65593572  1
  Al  Al25  1  0.43737295  0.75912085  0.31817293  1
  Al  Al26  1  0.55319708  0.87128829  0.12770560  1
  Al  Al27  1  0.10958706  0.76132415  0.84158377  1
  Al  Al28  1  0.22140896  0.87110393  0.57886320  1
  Al  Al29  1  0.77689510  0.76463394  0.39072131  1
  Al  Al30  1  0.88997814  0.87613611  0.12874096  1
  Al  Al31  1  0.44749601  0.75801181  0.83842017  1
  Al  Al32  1  0.56879949  0.86503797  0.64739735  1
  B  B33  1  0.77268643  0.09565729  0.90788855  1
  B  B34  1  0.22361409  0.86998173  0.06704785  1
  B  B35  1  0.74751799  0.82320320  0.90921771  1
  N  N36  1  0.22342121  0.20214583  0.38035299  1
  N  N37  1  0.12323143  0.06974642  0.12452679  1
  N  N38  1  0.87792054  0.18786326  0.87647776  1
  N  N39  1  0.78315608  0.08733542  0.57974116  1
  N  N40  1  0.55075468  0.20775077  0.37869357  1
  N  N41  1  0.43930410  0.10231301  0.12683885  1
  N  N42  1  0.22785641  0.19771355  0.88165894  1
  N  N43  1  0.11403666  0.09249380  0.63697147  1
  N  N44  1  0.89435064  0.20580649  0.37580933  1
  N  N45  1  0.77864054  0.09069976  0.07080415  1
  N  N46  1  0.57328727  0.20184183  0.88086889  1
  N  N47  1  0.44577895  0.09619856  0.63600995  1
  N  N48  1  0.21929624  0.54315538  0.38344527  1
  N  N49  1  0.10730052  0.43146516  0.13186627  1
  N  N50  1  0.89944046  0.51176451  0.87400847  1
  N  N51  1  0.77669588  0.42532339  0.63039765  1
  N  N52  1  0.55476665  0.54084269  0.38225457  1
  N  N53  1  0.44335649  0.42976958  0.13503785  1
  N  N54  1  0.22434102  0.53331918  0.88424189  1
  N  N55  1  0.11661188  0.42353573  0.63029064  1
  N  N56  1  0.89196729  0.53256894  0.38360166  1
  N  N57  1  0.77680385  0.43075954  0.13027200  1
  N  N58  1  0.55803005  0.53571830  0.88483461  1
  N  N59  1  0.44340714  0.43044017  0.63274946  1
  N  N60  1  0.22156435  0.87127217  0.38890413  1
  N  N61  1  0.12856769  0.77122190  0.12025721  1
  N  N62  1  0.85478474  0.89519214  0.85204668  1
  N  N63  1  0.78023023  0.76568990  0.58078078  1
  N  N64  1  0.56301470  0.86437882  0.32268027  1
  N  N65  1  0.41619385  0.77160307  0.12124056  1
  N  N66  1  0.22329713  0.87171422  0.90542052  1
  N  N67  1  0.11091978  0.76292053  0.64867367  1
  N  N68  1  0.88539340  0.87065583  0.31806614  1
  N  N69  1  0.77176115  0.77559182  0.05568764  1
  N  N70  1  0.58391709  0.86490008  0.84696951  1
  N  N71  1  0.44242514  0.76044515  0.64380742  1
