# generated using pymatgen
data_Al11BN12
_symmetry_space_group_name_H-M   'P 1'
_cell_length_a   9.26819562
_cell_length_b   9.26221350
_cell_length_c   9.93085184
_cell_angle_alpha   89.77826209
_cell_angle_beta   89.82194521
_cell_angle_gamma   60.04937485
_symmetry_Int_Tables_number   1
_chemical_formula_structural   Al11BN12
_chemical_formula_sum   'Al33 B3 N36'
_cell_volume   738.65105484
_cell_formula_units_Z   3
loop_
 _symmetry_equiv_pos_site_id
 _symmetry_equiv_pos_as_xyz
  1  'x, y, z'
loop_
 _atom_site_type_symbol
 _atom_site_label
 _atom_site_symmetry_multiplicity
 _atom_site_fract_x
 _atom_site_fract_y
 _atom_site_fract_z
 _atom_site_occupancy
  Al  Al0  1  0.11015140  0.09431964  0.39758690  1
  Al  Al1  1  0.22373432  0.19839912  0.14834145  1
  Al  Al2  1  0.88690078  0.20196859  0.65227592  1
  Al  Al3  1  0.44541207  0.09331814  0.39833629  1
  Al  Al4  1  0.55766669  0.20338425  0.14437855  1
  Al  Al5  1  0.11037174  0.08744157  0.89727483  1
  Al  Al6  1  0.22098873  0.20644538  0.64912222  1
  Al  Al7  1  0.77946730  0.09218459  0.39475383  1
  Al  Al8  1  0.89163362  0.19755852  0.14110643  1
  Al  Al9  1  0.45471666  0.08938718  0.89858742  1
  Al  Al10  1  0.56140200  0.20254566  0.65074315  1
  Al  Al11  1  0.10988097  0.42960931  0.39642125  1
  Al  Al12  1  0.22542613  0.54091281  0.14294710  1
  Al  Al13  1  0.77702684  0.42843362  0.89774244  1
  Al  Al14  1  0.88695598  0.54520203  0.65073610  1
  Al  Al15  1  0.44497050  0.42736686  0.39742279  1
  Al  Al16  1  0.55034239  0.54244589  0.14891965  1
  Al  Al17  1  0.10726609  0.43237939  0.89913021  1
  Al  Al18  1  0.22249214  0.53809366  0.64877333  1
  Al  Al19  1  0.77951707  0.42676939  0.39713985  1
  Al  Al20  1  0.88694590  0.54128645  0.14254051  1
  Al  Al21  1  0.45286558  0.42163981  0.89881794  1
  Al  Al22  1  0.55673547  0.53874374  0.64825556  1
  Al  Al23  1  0.10956523  0.76561529  0.37805708  1
  Al  Al24  1  0.88178917  0.87557132  0.65610554  1
  Al  Al25  1  0.44448113  0.76263193  0.39777894  1
  Al  Al26  1  0.55012337  0.87319892  0.14330177  1
  Al  Al27  1  0.10848045  0.76523897  0.88350400  1
  Al  Al28  1  0.22276869  0.87286861  0.64086361  1
  Al  Al29  1  0.77854204  0.76327054  0.39414274  1
  Al  Al30  1  0.88997792  0.87473451  0.12722894  1
  Al  Al31  1  0.44658639  0.76072440  0.89738446  1
  Al  Al32  1  0.56164828  0.86911396  0.65252312  1
  B  B33  1  0.77093128  0.09402884  0.90392094  1
  B  B34  1  0.22248846  0.87058674  0.12154218  1
  B  B35  1  0.77095668  0.76805724  0.90425939  1
  N  N36  1  0.22219759  0.20613270  0.33907391  1
  N  N37  1  0.12556462  0.06472335  0.09105618  1
  N  N38  1  0.87834053  0.19034153  0.84681416  1
  N  N39  1  0.77895179  0.09234832  0.58481073  1
  N  N40  1  0.55701992  0.20460929  0.33588780  1
  N  N41  1  0.44384288  0.09497236  0.08747916  1
  N  N42  1  0.22178228  0.20498710  0.84162797  1
  N  N43  1  0.10760493  0.09872901  0.59012029  1
  N  N44  1  0.88846062  0.20495921  0.33285904  1
  N  N45  1  0.77442175  0.09671104  0.06538474  1
  N  N46  1  0.58168156  0.19210441  0.84485089  1
  N  N47  1  0.44593388  0.09352438  0.59292145  1
  N  N48  1  0.22298145  0.53889099  0.33490341  1
  N  N49  1  0.11143681  0.42626767  0.08906914  1
  N  N50  1  0.87756367  0.56498847  0.84477971  1
  N  N51  1  0.78092940  0.42620092  0.59170432  1
  N  N52  1  0.55645739  0.53932206  0.33919448  1
  N  N53  1  0.44726120  0.42578023  0.08803079  1
  N  N54  1  0.22752041  0.53407723  0.84130019  1
  N  N55  1  0.10975161  0.42887807  0.58911508  1
  N  N56  1  0.88770200  0.54137116  0.33446561  1
  N  N57  1  0.77731459  0.42700712  0.08782959  1
  N  N58  1  0.55668597  0.53892128  0.83919842  1
  N  N59  1  0.44588809  0.42583146  0.58981494  1
  N  N60  1  0.22431981  0.87416442  0.34457922  1
  N  N61  1  0.12654221  0.77385477  0.08880178  1
  N  N62  1  0.86552389  0.88327796  0.85366397  1
  N  N63  1  0.77807099  0.76363336  0.58440764  1
  N  N64  1  0.55720958  0.87182674  0.33397140  1
  N  N65  1  0.41695968  0.77396231  0.09093632  1
  N  N66  1  0.22781496  0.87174524  0.83164156  1
  N  N67  1  0.10528355  0.76277866  0.60203077  1
  N  N68  1  0.88564506  0.87445672  0.32209070  1
  N  N69  1  0.77420267  0.76159567  0.06678106  1
  N  N70  1  0.58058743  0.85896093  0.84762386  1
  N  N71  1  0.44906062  0.76098126  0.59019058  1
