# generated using pymatgen
data_Al11BN12
_symmetry_space_group_name_H-M   'P 1'
_cell_length_a   9.25891128
_cell_length_b   9.25918868
_cell_length_c   9.89684369
_cell_angle_alpha   89.99029800
_cell_angle_beta   89.93568183
_cell_angle_gamma   59.99521396
_symmetry_Int_Tables_number   1
_chemical_formula_structural   Al11BN12
_chemical_formula_sum   'Al33 B3 N36'
_cell_volume   734.74888329
_cell_formula_units_Z   3
loop_
 _symmetry_equiv_pos_site_id
 _symmetry_equiv_pos_as_xyz
  1  'x, y, z'
loop_
 _atom_site_type_symbol
 _atom_site_label
 _atom_site_symmetry_multiplicity
 _atom_site_fract_x
 _atom_site_fract_y
 _atom_site_fract_z
 _atom_site_occupancy
  Al  Al0  1  0.11194952  0.08962547  0.29336560  1
  Al  Al1  1  0.22357200  0.20064548  0.04703196  1
  Al  Al2  1  0.88859828  0.20336136  0.55469020  1
  Al  Al3  1  0.44597833  0.09353655  0.29744404  1
  Al  Al4  1  0.56197179  0.20212254  0.04306623  1
  Al  Al5  1  0.10894925  0.08984205  0.80300862  1
  Al  Al6  1  0.22097467  0.20482035  0.54765039  1
  Al  Al7  1  0.77875963  0.09239942  0.29992283  1
  Al  Al8  1  0.89043194  0.19669283  0.04298831  1
  Al  Al9  1  0.45459066  0.08921618  0.79657788  1
  Al  Al10  1  0.55703109  0.20464472  0.55257889  1
  Al  Al11  1  0.10905814  0.42914955  0.29756130  1
  Al  Al12  1  0.22413156  0.54231613  0.04737511  1
  Al  Al13  1  0.77583861  0.42834346  0.79812208  1
  Al  Al14  1  0.88694737  0.54199202  0.55436598  1
  Al  Al15  1  0.44537668  0.42634221  0.29747168  1
  Al  Al16  1  0.55137006  0.54202661  0.04783473  1
  Al  Al17  1  0.10829626  0.43317158  0.79687684  1
  Al  Al18  1  0.22135326  0.54125788  0.54720099  1
  Al  Al19  1  0.77980126  0.42692166  0.29777047  1
  Al  Al20  1  0.88705902  0.54456183  0.04249665  1
  Al  Al21  1  0.45010412  0.42411708  0.79631792  1
  Al  Al22  1  0.55474841  0.54072048  0.54658028  1
  Al  Al23  1  0.11002517  0.76577367  0.29393480  1
  Al  Al24  1  0.88753800  0.87301467  0.56224445  1
  Al  Al25  1  0.43977838  0.76473422  0.29294208  1
  Al  Al26  1  0.55713044  0.87087674  0.04342355  1
  Al  Al27  1  0.10617368  0.76506542  0.80406578  1
  Al  Al28  1  0.22202982  0.87192012  0.54886595  1
  Al  Al29  1  0.77850625  0.76223618  0.29982391  1
  Al  Al30  1  0.88691362  0.87621134  0.03883248  1
  Al  Al31  1  0.44754167  0.76044615  0.80320837  1
  Al  Al32  1  0.55594446  0.87091483  0.55286802  1
  B  B33  1  0.77178596  0.09329398  0.79143130  1
  B  B34  1  0.22169032  0.87314737  0.04235540  1
  B  B35  1  0.77159546  0.76833144  0.79178514  1
  N  N36  1  0.22099296  0.20443036  0.35375518  1
  N  N37  1  0.12203502  0.07013012  0.09765876  1
  N  N38  1  0.87648678  0.19102090  0.84988207  1
  N  N39  1  0.77574430  0.09544371  0.62823435  1
  N  N40  1  0.55701922  0.20447967  0.36052121  1
  N  N41  1  0.44714858  0.09356753  0.10363913  1
  N  N42  1  0.22281441  0.20546410  0.85577505  1
  N  N43  1  0.11207193  0.09230857  0.61136098  1
  N  N44  1  0.88983123  0.20378620  0.35993068  1
  N  N45  1  0.77883142  0.09180672  0.11029712  1
  N  N46  1  0.58070337  0.19288399  0.84867489  1
  N  N47  1  0.44332975  0.09469624  0.60665283  1
  N  N48  1  0.22079200  0.54172749  0.35383286  1
  N  N49  1  0.10987634  0.42855738  0.10469683  1
  N  N50  1  0.87707657  0.56499256  0.84907600  1
  N  N51  1  0.77672910  0.42797591  0.60757353  1
  N  N52  1  0.55503477  0.54111631  0.35333440  1
  N  N53  1  0.44663120  0.42425019  0.10567105  1
  N  N54  1  0.22527945  0.53740347  0.85692417  1
  N  N55  1  0.11166977  0.42803167  0.60589310  1
  N  N56  1  0.88740372  0.54107458  0.36130215  1
  N  N57  1  0.78124944  0.42553096  0.10292570  1
  N  N58  1  0.55599830  0.53810671  0.85819931  1
  N  N59  1  0.44420754  0.42880516  0.60541656  1
  N  N60  1  0.22202240  0.87194228  0.35926922  1
  N  N61  1  0.12004695  0.77545210  0.09661952  1
  N  N62  1  0.86621475  0.88356855  0.84399784  1
  N  N63  1  0.77525153  0.76254399  0.62833401  1
  N  N64  1  0.55575760  0.87065413  0.35895897  1
  N  N65  1  0.42092391  0.77483539  0.09771221  1
  N  N66  1  0.22410100  0.87106057  0.87767044  1
  N  N67  1  0.11277188  0.76159136  0.61280166  1
  N  N68  1  0.88913722  0.87203829  0.36613361  1
  N  N69  1  0.77912741  0.76289721  0.10921919  1
  N  N70  1  0.58078238  0.85977648  0.85001908  1
  N  N71  1  0.44251399  0.76157042  0.61130053  1
