# generated using pymatgen
data_Al11BN12
_symmetry_space_group_name_H-M   'P 1'
_cell_length_a   9.25881731
_cell_length_b   9.25927641
_cell_length_c   9.89681633
_cell_angle_alpha   89.99357142
_cell_angle_beta   89.93702201
_cell_angle_gamma   59.99575249
_symmetry_Int_Tables_number   1
_chemical_formula_structural   Al11BN12
_chemical_formula_sum   'Al33 B3 N36'
_cell_volume   734.75034466
_cell_formula_units_Z   3
loop_
 _symmetry_equiv_pos_site_id
 _symmetry_equiv_pos_as_xyz
  1  'x, y, z'
loop_
 _atom_site_type_symbol
 _atom_site_label
 _atom_site_symmetry_multiplicity
 _atom_site_fract_x
 _atom_site_fract_y
 _atom_site_fract_z
 _atom_site_occupancy
  Al  Al0  1  0.11202956  0.08957533  0.30577120  1
  Al  Al1  1  0.22365707  0.20058438  0.05943800  1
  Al  Al2  1  0.88868017  0.20332529  0.56708922  1
  Al  Al3  1  0.44606210  0.09348613  0.30985309  1
  Al  Al4  1  0.56205489  0.20207048  0.05547478  1
  Al  Al5  1  0.10902766  0.08978229  0.81541807  1
  Al  Al6  1  0.22106014  0.20476935  0.56005753  1
  Al  Al7  1  0.77884023  0.09234695  0.31232864  1
  Al  Al8  1  0.89050684  0.19663630  0.05539886  1
  Al  Al9  1  0.45468303  0.08916311  0.80898724  1
  Al  Al10  1  0.55710696  0.20460862  0.56498641  1
  Al  Al11  1  0.10913959  0.42909609  0.30996980  1
  Al  Al12  1  0.22421293  0.54225631  0.05978439  1
  Al  Al13  1  0.77591580  0.42830585  0.81052306  1
  Al  Al14  1  0.88703097  0.54194989  0.56678150  1
  Al  Al15  1  0.44545547  0.42629725  0.30987736  1
  Al  Al16  1  0.55144876  0.54197708  0.06023812  1
  Al  Al17  1  0.10838416  0.43310194  0.80928645  1
  Al  Al18  1  0.22142932  0.54121416  0.55960977  1
  Al  Al19  1  0.77987814  0.42687633  0.31017846  1
  Al  Al20  1  0.88714377  0.54449552  0.05490669  1
  Al  Al21  1  0.45017930  0.42407826  0.80872393  1
  Al  Al22  1  0.55482351  0.54068410  0.55898994  1
  Al  Al23  1  0.11010052  0.76572456  0.30634938  1
  Al  Al24  1  0.88761527  0.87298012  0.57467242  1
  Al  Al25  1  0.43985736  0.76468810  0.30535119  1
  Al  Al26  1  0.55721523  0.87082192  0.05583812  1
  Al  Al27  1  0.10625553  0.76499425  0.81648149  1
  Al  Al28  1  0.22210851  0.87187516  0.56127366  1
  Al  Al29  1  0.77858866  0.76218442  0.31224178  1
  Al  Al30  1  0.88699658  0.87613794  0.05124164  1
  Al  Al31  1  0.44761945  0.76040553  0.81562524  1
  Al  Al32  1  0.55602977  0.87086812  0.56528572  1
  B  B33  1  0.77184862  0.09331721  0.80383241  1
  B  B34  1  0.22176597  0.87309260  0.05476493  1
  B  B35  1  0.77169565  0.76829866  0.80420567  1
  N  N36  1  0.22107475  0.20438107  0.36616231  1
  N  N37  1  0.12211248  0.07007567  0.11006348  1
  N  N38  1  0.87655185  0.19097536  0.86228603  1
  N  N39  1  0.77582081  0.09541973  0.64064571  1
  N  N40  1  0.55709777  0.20443951  0.37292778  1
  N  N41  1  0.44723387  0.09351454  0.11604741  1
  N  N42  1  0.22290266  0.20539878  0.86818193  1
  N  N43  1  0.11215034  0.09226496  0.62376927  1
  N  N44  1  0.88990878  0.20374344  0.37233238  1
  N  N45  1  0.77891664  0.09173958  0.12270055  1
  N  N46  1  0.58078534  0.19285191  0.86108072  1
  N  N47  1  0.44341681  0.09465214  0.61906239  1
  N  N48  1  0.22086922  0.54168205  0.36624166  1
  N  N49  1  0.10996211  0.42849444  0.11710604  1
  N  N50  1  0.87716914  0.56491840  0.86148886  1
  N  N51  1  0.77680759  0.42793627  0.61997661  1
  N  N52  1  0.55511023  0.54107675  0.36574374  1
  N  N53  1  0.44671489  0.42419825  0.11807688  1
  N  N54  1  0.22536498  0.53733859  0.86933438  1
  N  N55  1  0.11175619  0.42797931  0.61830220  1
  N  N56  1  0.88748521  0.54102726  0.37371576  1
  N  N57  1  0.78132752  0.42547254  0.11533404  1
  N  N58  1  0.55607566  0.53806782  0.87060361  1
  N  N59  1  0.44428478  0.42876761  0.61782357  1
  N  N60  1  0.22209877  0.87189916  0.37167658  1
  N  N61  1  0.12012831  0.77539226  0.10903251  1
  N  N62  1  0.86630489  0.88346453  0.85641162  1
  N  N63  1  0.77533784  0.76249981  0.64074903  1
  N  N64  1  0.55583637  0.87061047  0.37137301  1
  N  N65  1  0.42100264  0.77478526  0.11012010  1
  N  N66  1  0.22417090  0.87100625  0.89008156  1
  N  N67  1  0.11285439  0.76154610  0.62521618  1
  N  N68  1  0.88921257  0.87199899  0.37855459  1
  N  N69  1  0.77921099  0.76283020  0.12163664  1
  N  N70  1  0.58086719  0.85973289  0.86243484  1
  N  N71  1  0.44259153  0.76153260  0.62371522  1
