# generated using pymatgen
data_Al11BN12
_symmetry_space_group_name_H-M   'P 1'
_cell_length_a   9.30307842
_cell_length_b   9.29210367
_cell_length_c   10.05659716
_cell_angle_alpha   90.09087213
_cell_angle_beta   90.04240937
_cell_angle_gamma   59.91705985
_symmetry_Int_Tables_number   1
_chemical_formula_structural   Al11BN12
_chemical_formula_sum   'Al33 B3 N36'
_cell_volume   752.24323996
_cell_formula_units_Z   3
loop_
 _symmetry_equiv_pos_site_id
 _symmetry_equiv_pos_as_xyz
  1  'x, y, z'
loop_
 _atom_site_type_symbol
 _atom_site_label
 _atom_site_symmetry_multiplicity
 _atom_site_fract_x
 _atom_site_fract_y
 _atom_site_fract_z
 _atom_site_occupancy
  Al  Al0  1  0.11247896  0.08863359  0.31706961  1
  Al  Al1  1  0.21444509  0.20500169  0.06913828  1
  Al  Al2  1  0.89429438  0.20577924  0.57258422  1
  Al  Al3  1  0.44562228  0.09141018  0.34794897  1
  Al  Al4  1  0.55886659  0.20443904  0.13081815  1
  Al  Al5  1  0.10732209  0.09104555  0.82467954  1
  Al  Al6  1  0.22610579  0.20218565  0.57492689  1
  Al  Al7  1  0.77861462  0.08684636  0.38970613  1
  Al  Al8  1  0.89369989  0.20091949  0.06430317  1
  Al  Al9  1  0.45440409  0.09166779  0.87665787  1
  Al  Al10  1  0.56717924  0.19713355  0.64693972  1
  Al  Al11  1  0.11006819  0.42881969  0.32153922  1
  Al  Al12  1  0.22319044  0.54224677  0.07066921  1
  Al  Al13  1  0.77738516  0.42780103  0.82060603  1
  Al  Al14  1  0.89235879  0.53360688  0.57229061  1
  Al  Al15  1  0.44204553  0.43343534  0.32301607  1
  Al  Al16  1  0.55077324  0.54269271  0.07093332  1
  Al  Al17  1  0.10641225  0.43378315  0.81902085  1
  Al  Al18  1  0.22137756  0.54208776  0.57566707  1
  Al  Al19  1  0.77940987  0.42662979  0.31920391  1
  Al  Al20  1  0.88985436  0.53753398  0.06393987  1
  Al  Al21  1  0.44773600  0.43020605  0.82649625  1
  Al  Al22  1  0.55476762  0.54098655  0.57396256  1
  Al  Al23  1  0.11779204  0.76125596  0.31497795  1
  Al  Al24  1  0.87937600  0.87656103  0.65395506  1
  Al  Al25  1  0.43637841  0.75957921  0.31621469  1
  Al  Al26  1  0.55303125  0.87188274  0.12389597  1
  Al  Al27  1  0.10875847  0.76442363  0.83933102  1
  Al  Al28  1  0.22248298  0.87047064  0.57701504  1
  Al  Al29  1  0.77608928  0.76658825  0.38833451  1
  Al  Al30  1  0.88792378  0.87626611  0.12457806  1
  Al  Al31  1  0.44505966  0.75890630  0.83564013  1
  Al  Al32  1  0.56620620  0.86829880  0.65137021  1
  B  B33  1  0.76814501  0.09182967  0.90164458  1
  B  B34  1  0.22288886  0.87035649  0.06699064  1
  B  B35  1  0.76952850  0.77530946  0.90266524  1
  N  N36  1  0.22068129  0.20401581  0.37915600  1
  N  N37  1  0.12068431  0.07022097  0.12514301  1
  N  N38  1  0.88002107  0.19520709  0.87441321  1
  N  N39  1  0.78013816  0.08767688  0.57832752  1
  N  N40  1  0.56213014  0.20029658  0.32519781  1
  N  N41  1  0.44282586  0.09724836  0.08727887  1
  N  N42  1  0.21343070  0.21012501  0.87991793  1
  N  N43  1  0.11334629  0.09226581  0.63526287  1
  N  N44  1  0.89318210  0.20574741  0.37785836  1
  N  N45  1  0.77128062  0.09240877  0.06063853  1
  N  N46  1  0.58531192  0.19296945  0.84315879  1
  N  N47  1  0.44691927  0.09255674  0.61827974  1
  N  N48  1  0.22039125  0.54202288  0.38323757  1
  N  N49  1  0.10893894  0.43082868  0.13181539  1
  N  N50  1  0.88063760  0.55733309  0.87405039  1
  N  N51  1  0.77778458  0.42744698  0.63187810  1
  N  N52  1  0.55599594  0.54053306  0.38238695  1
  N  N53  1  0.44071119  0.43562479  0.13165802  1
  N  N54  1  0.22424219  0.53595445  0.88396486  1
  N  N55  1  0.11283541  0.42710780  0.63049765  1
  N  N56  1  0.89133938  0.53338769  0.38004677  1
  N  N57  1  0.77824196  0.42753796  0.12865188  1
  N  N58  1  0.55878129  0.53722510  0.88540304  1
  N  N59  1  0.44412644  0.43043910  0.63424567  1
  N  N60  1  0.22191793  0.87108161  0.38749631  1
  N  N61  1  0.12696484  0.77277471  0.11968503  1
  N  N62  1  0.86288662  0.88499315  0.84961626  1
  N  N63  1  0.77736605  0.76664009  0.57840873  1
  N  N64  1  0.56153260  0.86609969  0.31833631  1
  N  N65  1  0.41535253  0.77224680  0.12141627  1
  N  N66  1  0.22289079  0.87387491  0.90489504  1
  N  N67  1  0.11314486  0.76158558  0.64540456  1
  N  N68  1  0.88497027  0.87242011  0.31663126  1
  N  N69  1  0.77329538  0.77035315  0.06152213  1
  N  N70  1  0.58471505  0.85733628  0.84741012  1
  N  N71  1  0.44174442  0.75985853  0.64220299  1
