# generated using pymatgen
data_Al11BN12
_symmetry_space_group_name_H-M   'P 1'
_cell_length_a   9.30079392
_cell_length_b   9.28165714
_cell_length_c   9.95773374
_cell_angle_alpha   89.70709908
_cell_angle_beta   89.65931038
_cell_angle_gamma   60.00668414
_symmetry_Int_Tables_number   1
_chemical_formula_structural   Al11BN12
_chemical_formula_sum   'Al33 B3 N36'
_cell_volume   744.48667549
_cell_formula_units_Z   3
loop_
 _symmetry_equiv_pos_site_id
 _symmetry_equiv_pos_as_xyz
  1  'x, y, z'
loop_
 _atom_site_type_symbol
 _atom_site_label
 _atom_site_symmetry_multiplicity
 _atom_site_fract_x
 _atom_site_fract_y
 _atom_site_fract_z
 _atom_site_occupancy
  Al  Al0  1  0.10790523  0.09593368  0.40209075  1
  Al  Al1  1  0.22459668  0.19702068  0.14747956  1
  Al  Al2  1  0.88548554  0.20332808  0.65276209  1
  Al  Al3  1  0.44541888  0.09205567  0.39762311  1
  Al  Al4  1  0.55903117  0.20170021  0.14482897  1
  Al  Al5  1  0.11074783  0.08707061  0.89239347  1
  Al  Al6  1  0.22078036  0.20794238  0.64991642  1
  Al  Al7  1  0.78189732  0.08899320  0.39370348  1
  Al  Al8  1  0.89156959  0.19751699  0.13937348  1
  Al  Al9  1  0.45441852  0.09051327  0.89779679  1
  Al  Al10  1  0.56021095  0.20355661  0.64969511  1
  Al  Al11  1  0.10720745  0.42617281  0.39063405  1
  Al  Al12  1  0.22534957  0.54282030  0.09253216  1
  Al  Al13  1  0.77731093  0.42870038  0.89716301  1
  Al  Al14  1  0.88591507  0.54525402  0.64955017  1
  Al  Al15  1  0.45004629  0.42401389  0.39236143  1
  Al  Al16  1  0.55129235  0.54266010  0.14849895  1
  Al  Al17  1  0.10435294  0.43247005  0.89837954  1
  Al  Al18  1  0.21756896  0.54473536  0.58895686  1
  Al  Al19  1  0.77916937  0.42594117  0.39673598  1
  Al  Al20  1  0.88562244  0.54110667  0.14245474  1
  Al  Al21  1  0.45762206  0.41978553  0.89890450  1
  Al  Al22  1  0.55739815  0.53813737  0.64907614  1
  Al  Al23  1  0.11755358  0.76537412  0.32409429  1
  Al  Al24  1  0.87432407  0.87896433  0.65546421  1
  Al  Al25  1  0.44706790  0.76051218  0.40213332  1
  Al  Al26  1  0.54997406  0.87360498  0.14205296  1
  Al  Al27  1  0.10984879  0.76156480  0.83532478  1
  Al  Al28  1  0.22255868  0.87370837  0.62277818  1
  Al  Al29  1  0.77899543  0.76283597  0.39263944  1
  Al  Al30  1  0.88620266  0.87675615  0.12393425  1
  Al  Al31  1  0.44604580  0.76175436  0.89276029  1
  Al  Al32  1  0.56192794  0.86950758  0.65281996  1
  B  B33  1  0.77144941  0.09254261  0.90299303  1
  B  B34  1  0.22401352  0.87200469  0.10440858  1
  B  B35  1  0.77032758  0.77013305  0.90350651  1
  N  N36  1  0.22284750  0.20204593  0.33740904  1
  N  N37  1  0.12705827  0.06299150  0.08879775  1
  N  N38  1  0.87781680  0.19084499  0.84655600  1
  N  N39  1  0.77867208  0.09299481  0.58361381  1
  N  N40  1  0.55915326  0.20117621  0.33533179  1
  N  N41  1  0.44431841  0.09515329  0.08659937  1
  N  N42  1  0.22228721  0.20663459  0.84145213  1
  N  N43  1  0.10395883  0.10541772  0.59364878  1
  N  N44  1  0.88927953  0.20361148  0.33127142  1
  N  N45  1  0.77469455  0.09696511  0.06407512  1
  N  N46  1  0.58158787  0.19233089  0.84349023  1
  N  N47  1  0.44553192  0.09391673  0.59206036  1
  N  N48  1  0.22159991  0.54026816  0.36325466  1
  N  N49  1  0.10832710  0.42311513  0.09150429  1
  N  N50  1  0.87708323  0.56563392  0.84301603  1
  N  N51  1  0.77994521  0.42632128  0.59068352  1
  N  N52  1  0.55712439  0.53999048  0.33760768  1
  N  N53  1  0.45444596  0.42214893  0.09101880  1
  N  N54  1  0.22586614  0.53990019  0.88496627  1
  N  N55  1  0.10621803  0.42710741  0.58669570  1
  N  N56  1  0.88551243  0.54114084  0.33324510  1
  N  N57  1  0.77734747  0.42715340  0.08673346  1
  N  N58  1  0.55795130  0.53852205  0.83913156  1
  N  N59  1  0.44873549  0.42521521  0.58846867  1
  N  N60  1  0.22095621  0.87014011  0.38937984  1
  N  N61  1  0.12983417  0.77828850  0.12162185  1
  N  N62  1  0.86262704  0.88614433  0.85466211  1
  N  N63  1  0.77757647  0.76384100  0.58264828  1
  N  N64  1  0.55647468  0.87055574  0.33260418  1
  N  N65  1  0.41557867  0.77524685  0.08889425  1
  N  N66  1  0.23035739  0.87377518  0.82914050  1
  N  N67  1  0.10291317  0.76041927  0.64063411  1
  N  N68  1  0.88378973  0.87383852  0.31935831  1
  N  N69  1  0.77425247  0.76107640  0.06559535  1
  N  N70  1  0.58100410  0.86002444  0.84740125  1
  N  N71  1  0.45509243  0.75816252  0.59342416  1
