# generated using pymatgen
data_Al11BN12
_symmetry_space_group_name_H-M   'P 1'
_cell_length_a   9.30000069
_cell_length_b   9.27336338
_cell_length_c   10.06765797
_cell_angle_alpha   90.07240965
_cell_angle_beta   90.11800703
_cell_angle_gamma   60.02166006
_symmetry_Int_Tables_number   1
_chemical_formula_structural   Al11BN12
_chemical_formula_sum   'Al33 B3 N36'
_cell_volume   752.09578479
_cell_formula_units_Z   3
loop_
 _symmetry_equiv_pos_site_id
 _symmetry_equiv_pos_as_xyz
  1  'x, y, z'
loop_
 _atom_site_type_symbol
 _atom_site_label
 _atom_site_symmetry_multiplicity
 _atom_site_fract_x
 _atom_site_fract_y
 _atom_site_fract_z
 _atom_site_occupancy
  Al  Al0  1  0.11484477  0.08757455  0.31289014  1
  Al  Al1  1  0.21744276  0.20654669  0.06921337  1
  Al  Al2  1  0.88580730  0.19797402  0.64132072  1
  Al  Al3  1  0.45232875  0.08725103  0.38974481  1
  Al  Al4  1  0.55981460  0.20124218  0.13855004  1
  Al  Al5  1  0.11531063  0.08757605  0.83329257  1
  Al  Al6  1  0.21662029  0.20440462  0.57242476  1
  Al  Al7  1  0.78351793  0.09006317  0.38825239  1
  Al  Al8  1  0.89116685  0.20131028  0.09318153  1
  Al  Al9  1  0.46050029  0.08932162  0.89111351  1
  Al  Al10  1  0.56366547  0.19550187  0.64119752  1
  Al  Al11  1  0.11083098  0.42639948  0.32047461  1
  Al  Al12  1  0.22506501  0.54219701  0.07094209  1
  Al  Al13  1  0.77330917  0.43740432  0.82709448  1
  Al  Al14  1  0.89187166  0.53027162  0.57010777  1
  Al  Al15  1  0.44252852  0.43145262  0.32471884  1
  Al  Al16  1  0.54784236  0.54575961  0.07074793  1
  Al  Al17  1  0.10718996  0.43449207  0.81877491  1
  Al  Al18  1  0.22005432  0.54192529  0.57387000  1
  Al  Al19  1  0.77785662  0.42741324  0.31456075  1
  Al  Al20  1  0.88918735  0.54304890  0.06298162  1
  Al  Al21  1  0.44765009  0.42869787  0.82390702  1
  Al  Al22  1  0.55519526  0.53957220  0.57276814  1
  Al  Al23  1  0.11703515  0.76143806  0.31395212  1
  Al  Al24  1  0.87999891  0.87244921  0.65252651  1
  Al  Al25  1  0.43628005  0.76034951  0.31801449  1
  Al  Al26  1  0.55164313  0.87720768  0.13248798  1
  Al  Al27  1  0.10953748  0.76391162  0.83908154  1
  Al  Al28  1  0.22072846  0.87060986  0.57613020  1
  Al  Al29  1  0.77751092  0.76488189  0.38662914  1
  Al  Al30  1  0.88721971  0.87902917  0.12336319  1
  Al  Al31  1  0.44527213  0.75995527  0.83258675  1
  Al  Al32  1  0.56560138  0.86826758  0.64643495  1
  B  B33  1  0.76836922  0.09228669  0.89701133  1
  B  B34  1  0.22579937  0.87077684  0.06646153  1
  B  B35  1  0.76878008  0.77901134  0.90040884  1
  N  N36  1  0.21846545  0.20361537  0.37861701  1
  N  N37  1  0.12776279  0.06811014  0.11828172  1
  N  N38  1  0.87728739  0.19159379  0.85394049  1
  N  N39  1  0.78169076  0.08713108  0.57778987  1
  N  N40  1  0.56107893  0.19760977  0.33010921  1
  N  N41  1  0.44710140  0.09686853  0.07927917  1
  N  N42  1  0.21840741  0.21054135  0.87846933  1
  N  N43  1  0.11615948  0.08900582  0.64127378  1
  N  N44  1  0.88835914  0.20030767  0.33006084  1
  N  N45  1  0.76982742  0.09671221  0.05528573  1
  N  N46  1  0.58388739  0.19009352  0.83520195  1
  N  N47  1  0.45093950  0.08774779  0.58311224  1
  N  N48  1  0.21962137  0.54179949  0.38263504  1
  N  N49  1  0.10867886  0.43208896  0.13077575  1
  N  N50  1  0.88133845  0.56148766  0.87378600  1
  N  N51  1  0.77556729  0.42947961  0.63633469  1
  N  N52  1  0.55665047  0.53997687  0.38234519  1
  N  N53  1  0.44232345  0.43393316  0.13346160  1
  N  N54  1  0.22554870  0.53568674  0.88391079  1
  N  N55  1  0.11201667  0.42650263  0.63059239  1
  N  N56  1  0.89145494  0.53110989  0.37881293  1
  N  N57  1  0.77456519  0.43699257  0.12172137  1
  N  N58  1  0.55498153  0.53921071  0.88523345  1
  N  N59  1  0.44301055  0.42914198  0.63189238  1
  N  N60  1  0.22085061  0.87170786  0.38734853  1
  N  N61  1  0.12710885  0.77382342  0.11896367  1
  N  N62  1  0.86301269  0.88500247  0.84791974  1
  N  N63  1  0.77815877  0.76393518  0.57668982  1
  N  N64  1  0.55970898  0.86945584  0.32286275  1
  N  N65  1  0.41610669  0.77394699  0.12319678  1
  N  N66  1  0.22629112  0.87050983  0.90499839  1
  N  N67  1  0.11290668  0.76047918  0.64518086  1
  N  N68  1  0.88459671  0.87211132  0.31578690  1
  N  N69  1  0.76913485  0.77606956  0.06012934  1
  N  N70  1  0.58388094  0.86106887  0.84011268  1
  N  N71  1  0.44095013  0.75964036  0.63992127  1
