# generated using pymatgen
data_Al11BN12
_symmetry_space_group_name_H-M   'P 1'
_cell_length_a   9.28561267
_cell_length_b   9.31352264
_cell_length_c   10.05417575
_cell_angle_alpha   90.04306615
_cell_angle_beta   89.74356837
_cell_angle_gamma   60.12359924
_symmetry_Int_Tables_number   1
_chemical_formula_structural   Al11BN12
_chemical_formula_sum   'Al33 B3 N36'
_cell_volume   753.93565180
_cell_formula_units_Z   3
loop_
 _symmetry_equiv_pos_site_id
 _symmetry_equiv_pos_as_xyz
  1  'x, y, z'
loop_
 _atom_site_type_symbol
 _atom_site_label
 _atom_site_symmetry_multiplicity
 _atom_site_fract_x
 _atom_site_fract_y
 _atom_site_fract_z
 _atom_site_occupancy
  Al  Al0  1  0.11497187  0.08826361  0.31767647  1
  Al  Al1  1  0.22226193  0.20213026  0.06996512  1
  Al  Al2  1  0.89386436  0.20509505  0.57298738  1
  Al  Al3  1  0.44407440  0.09547628  0.31980551  1
  Al  Al4  1  0.54903095  0.21100781  0.07124038  1
  Al  Al5  1  0.10977255  0.08875016  0.82841589  1
  Al  Al6  1  0.22298697  0.20334702  0.57153004  1
  Al  Al7  1  0.78314997  0.08508267  0.38863307  1
  Al  Al8  1  0.89588931  0.20297570  0.06913688  1
  Al  Al9  1  0.45481693  0.09392325  0.82239361  1
  Al  Al10  1  0.54956958  0.21046315  0.57226361  1
  Al  Al11  1  0.11046384  0.42739566  0.32239473  1
  Al  Al12  1  0.22451033  0.54047113  0.07201051  1
  Al  Al13  1  0.77927714  0.41622221  0.82044881  1
  Al  Al14  1  0.89219911  0.53275670  0.57854406  1
  Al  Al15  1  0.44416752  0.42828782  0.32323489  1
  Al  Al16  1  0.55224248  0.54080210  0.07154077  1
  Al  Al17  1  0.11397643  0.42110122  0.82061273  1
  Al  Al18  1  0.21628153  0.54603303  0.57620721  1
  Al  Al19  1  0.77918209  0.42764796  0.32017498  1
  Al  Al20  1  0.89294639  0.53329170  0.05697591  1
  Al  Al21  1  0.44976158  0.42543042  0.82154717  1
  Al  Al22  1  0.55454994  0.54068930  0.57259362  1
  Al  Al23  1  0.12115066  0.75946828  0.31657943  1
  Al  Al24  1  0.87133958  0.88263626  0.65912443  1
  Al  Al25  1  0.43939991  0.76173508  0.31866381  1
  Al  Al26  1  0.54559170  0.87621469  0.08338887  1
  Al  Al27  1  0.11100194  0.76113940  0.84211827  1
  Al  Al28  1  0.21805559  0.87159997  0.57884071  1
  Al  Al29  1  0.78307340  0.76207308  0.39051381  1
  Al  Al30  1  0.89235457  0.87662431  0.13107725  1
  Al  Al31  1  0.45229399  0.75987429  0.83256605  1
  Al  Al32  1  0.55141682  0.87313508  0.58189064  1
  B  B33  1  0.77360272  0.09451688  0.90859214  1
  B  B34  1  0.22467968  0.86998997  0.06769977  1
  B  B35  1  0.75125547  0.82127148  0.91655050  1
  N  N36  1  0.22238105  0.20324454  0.38052521  1
  N  N37  1  0.12441008  0.06909587  0.12461297  1
  N  N38  1  0.87901534  0.18693073  0.87709046  1
  N  N39  1  0.78073284  0.08774920  0.58088061  1
  N  N40  1  0.54995707  0.20862726  0.37962754  1
  N  N41  1  0.44211868  0.09857775  0.13130523  1
  N  N42  1  0.23089806  0.19663370  0.88151709  1
  N  N43  1  0.11286431  0.09274944  0.63765727  1
  N  N44  1  0.89433093  0.20578167  0.37663204  1
  N  N45  1  0.77844404  0.09050876  0.07160009  1
  N  N46  1  0.57331727  0.20057686  0.87988543  1
  N  N47  1  0.44489517  0.09506303  0.63337683  1
  N  N48  1  0.21936464  0.54315095  0.38353271  1
  N  N49  1  0.11024157  0.42921958  0.13227641  1
  N  N50  1  0.89996717  0.51141607  0.87557058  1
  N  N51  1  0.77570879  0.42511448  0.63104040  1
  N  N52  1  0.55465924  0.54100642  0.38134524  1
  N  N53  1  0.44448244  0.42837288  0.13424745  1
  N  N54  1  0.22499688  0.53326925  0.88445345  1
  N  N55  1  0.11530467  0.42435277  0.63110002  1
  N  N56  1  0.89242199  0.53192491  0.38350089  1
  N  N57  1  0.77781132  0.42929933  0.13048433  1
  N  N58  1  0.55760165  0.53728646  0.88375399  1
  N  N59  1  0.44169475  0.43089845  0.63222664  1
  N  N60  1  0.22132706  0.87150276  0.38910399  1
  N  N61  1  0.13105160  0.77089295  0.12077177  1
  N  N62  1  0.85391180  0.89508863  0.85464883  1
  N  N63  1  0.78061872  0.76459333  0.58340353  1
  N  N64  1  0.55347842  0.87132779  0.36664043  1
  N  N65  1  0.41998414  0.77168914  0.12487885  1
  N  N66  1  0.22693815  0.87039562  0.90546579  1
  N  N67  1  0.10809596  0.76400841  0.64978105  1
  N  N68  1  0.88701212  0.87134289  0.31913573  1
  N  N69  1  0.78161696  0.76980002  0.06352282  1
  N  N70  1  0.57403151  0.87163658  0.88226332  1
  N  N71  1  0.44204005  0.76199339  0.64082535  1
