# generated using pymatgen
data_Al11BN12
_symmetry_space_group_name_H-M   'P 1'
_cell_length_a   9.25890811
_cell_length_b   9.25918551
_cell_length_c   9.89685086
_cell_angle_alpha   89.99027867
_cell_angle_beta   89.93565632
_cell_angle_gamma   59.99525000
_symmetry_Int_Tables_number   1
_chemical_formula_structural   Al11BN12
_chemical_formula_sum   'Al33 B3 N36'
_cell_volume   734.74917887
_cell_formula_units_Z   3
loop_
 _symmetry_equiv_pos_site_id
 _symmetry_equiv_pos_as_xyz
  1  'x, y, z'
loop_
 _atom_site_type_symbol
 _atom_site_label
 _atom_site_symmetry_multiplicity
 _atom_site_fract_x
 _atom_site_fract_y
 _atom_site_fract_z
 _atom_site_occupancy
  Al  Al0  1  0.11201341  0.08958771  0.30326952  1
  Al  Al1  1  0.22363682  0.20060738  0.05693994  1
  Al  Al2  1  0.88866349  0.20332186  0.56459796  1
  Al  Al3  1  0.44604317  0.09349812  0.30735179  1
  Al  Al4  1  0.56203570  0.20208425  0.05297092  1
  Al  Al5  1  0.10901466  0.08980303  0.81291604  1
  Al  Al6  1  0.22103922  0.20478162  0.55755781  1
  Al  Al7  1  0.77882431  0.09236134  0.30982566  1
  Al  Al8  1  0.89049599  0.19665553  0.05289208  1
  Al  Al9  1  0.45465470  0.08917784  0.80648457  1
  Al  Al10  1  0.55709601  0.20460623  0.56248598  1
  Al  Al11  1  0.10912235  0.42911144  0.30746935  1
  Al  Al12  1  0.22419614  0.54227713  0.05728229  1
  Al  Al13  1  0.77590331  0.42830474  0.80802595  1
  Al  Al14  1  0.88701222  0.54195420  0.56427465  1
  Al  Al15  1  0.44544151  0.42630380  0.30737892  1
  Al  Al16  1  0.55143559  0.54198726  0.05773961  1
  Al  Al17  1  0.10836159  0.43313232  0.80678479  1
  Al  Al18  1  0.22141797  0.54121962  0.55710956  1
  Al  Al19  1  0.77986592  0.42688326  0.30767875  1
  Al  Al20  1  0.88712365  0.54452233  0.05240051  1
  Al  Al21  1  0.45016834  0.42407851  0.80622609  1
  Al  Al22  1  0.55481215  0.54068262  0.55648849  1
  Al  Al23  1  0.11008976  0.76573466  0.30383922  1
  Al  Al24  1  0.88760292  0.87297610  0.57215029  1
  Al  Al25  1  0.43984379  0.76469510  0.30284529  1
  Al  Al26  1  0.55719471  0.87083885  0.05332798  1
  Al  Al27  1  0.10623809  0.76502729  0.81397393  1
  Al  Al28  1  0.22209454  0.87188156  0.55876850  1
  Al  Al29  1  0.77857108  0.76219709  0.30972663  1
  Al  Al30  1  0.88697803  0.87617273  0.04873893  1
  Al  Al31  1  0.44760558  0.76040808  0.81311547  1
  Al  Al32  1  0.55600920  0.87087599  0.56277377  1
  B  B33  1  0.77185076  0.09325480  0.80133700  1
  B  B34  1  0.22175494  0.87310878  0.05226058  1
  B  B35  1  0.77165988  0.76829408  0.80169074  1
  N  N36  1  0.22105737  0.20439170  0.36366214  1
  N  N37  1  0.12209900  0.07009205  0.10756332  1
  N  N38  1  0.87655133  0.19098285  0.85978671  1
  N  N39  1  0.77580908  0.09540458  0.63814107  1
  N  N40  1  0.55708459  0.20444109  0.37042787  1
  N  N41  1  0.44721357  0.09352880  0.11354618  1
  N  N42  1  0.22287954  0.20542532  0.86568298  1
  N  N43  1  0.11213730  0.09226906  0.62126810  1
  N  N44  1  0.88989619  0.20374701  0.36983727  1
  N  N45  1  0.77889576  0.09176886  0.12020074  1
  N  N46  1  0.58076775  0.19284532  0.85858065  1
  N  N47  1  0.44339455  0.09465745  0.61655960  1
  N  N48  1  0.22085677  0.54168916  0.36374063  1
  N  N49  1  0.10994022  0.42851925  0.11460416  1
  N  N50  1  0.87714130  0.56495320  0.85898086  1
  N  N51  1  0.77679374  0.42793723  0.61747896  1
  N  N52  1  0.55509895  0.54107840  0.36324200  1
  N  N53  1  0.44669602  0.42421165  0.11557764  1
  N  N54  1  0.22534390  0.53736504  0.86683187  1
  N  N55  1  0.11173481  0.42799274  0.61580130  1
  N  N56  1  0.88746814  0.54103689  0.37121005  1
  N  N57  1  0.78131401  0.42549247  0.11283265  1
  N  N58  1  0.55606358  0.53806786  0.86810483  1
  N  N59  1  0.44427218  0.42876640  0.61532491  1
  N  N60  1  0.22208730  0.87190379  0.36917217  1
  N  N61  1  0.12011127  0.77541339  0.10652453  1
  N  N62  1  0.86627898  0.88353023  0.85390469  1
  N  N63  1  0.77531602  0.76250623  0.63824060  1
  N  N64  1  0.55582268  0.87061498  0.36886400  1
  N  N65  1  0.42098892  0.77479652  0.10761608  1
  N  N66  1  0.22416551  0.87102200  0.88757727  1
  N  N67  1  0.11283651  0.76155354  0.62270900  1
  N  N68  1  0.88920162  0.87199993  0.37603791  1
  N  N69  1  0.77919189  0.76285792  0.11912260  1
  N  N70  1  0.58084687  0.85973824  0.85992442  1
  N  N71  1  0.44257777  0.76153269  0.62120740  1
