# generated using pymatgen
data_Al11BN12
_symmetry_space_group_name_H-M   'P 1'
_cell_length_a   9.26471923
_cell_length_b   9.32443449
_cell_length_c   10.00134170
_cell_angle_alpha   90.21907280
_cell_angle_beta   89.75806630
_cell_angle_gamma   60.09096829
_symmetry_Int_Tables_number   1
_chemical_formula_structural   Al11BN12
_chemical_formula_sum   'Al33 B3 N36'
_cell_volume   748.90546511
_cell_formula_units_Z   3
loop_
 _symmetry_equiv_pos_site_id
 _symmetry_equiv_pos_as_xyz
  1  'x, y, z'
loop_
 _atom_site_type_symbol
 _atom_site_label
 _atom_site_symmetry_multiplicity
 _atom_site_fract_x
 _atom_site_fract_y
 _atom_site_fract_z
 _atom_site_occupancy
  Al  Al0  1  0.11280680  0.08869380  0.30733407  1
  Al  Al1  1  0.22439474  0.19889887  0.05869405  1
  Al  Al2  1  0.88923146  0.20578992  0.56540571  1
  Al  Al3  1  0.44574575  0.09460961  0.30719654  1
  Al  Al4  1  0.56200868  0.20469063  0.05512570  1
  Al  Al5  1  0.10958810  0.08916007  0.81420394  1
  Al  Al6  1  0.22130483  0.20616481  0.56144504  1
  Al  Al7  1  0.77757199  0.09709272  0.30804396  1
  Al  Al8  1  0.88980745  0.19719827  0.05467550  1
  Al  Al9  1  0.46094247  0.08542964  0.80999457  1
  Al  Al10  1  0.55396447  0.20773589  0.56421299  1
  Al  Al11  1  0.11233700  0.42629103  0.30992151  1
  Al  Al12  1  0.22787299  0.53722767  0.06162848  1
  Al  Al13  1  0.77229548  0.43710995  0.80957715  1
  Al  Al14  1  0.88989114  0.53797494  0.56027089  1
  Al  Al15  1  0.44648353  0.42587444  0.31242486  1
  Al  Al16  1  0.55084846  0.54219570  0.06096225  1
  Al  Al17  1  0.10807579  0.43088581  0.81176088  1
  Al  Al18  1  0.21553565  0.54758684  0.56319491  1
  Al  Al19  1  0.77902237  0.42522403  0.30935111  1
  Al  Al20  1  0.89096246  0.53340802  0.06343287  1
  Al  Al21  1  0.44609658  0.43045780  0.80714514  1
  Al  Al22  1  0.55293752  0.54419200  0.55924911  1
  Al  Al23  1  0.12173044  0.75919006  0.30519062  1
  Al  Al24  1  0.87489651  0.86998440  0.65768405  1
  Al  Al25  1  0.43944047  0.76446485  0.30452672  1
  Al  Al26  1  0.55114419  0.87308548  0.06070360  1
  Al  Al27  1  0.11289265  0.75433126  0.83128587  1
  Al  Al28  1  0.21742656  0.87279589  0.56426840  1
  Al  Al29  1  0.78258852  0.76411049  0.36913907  1
  Al  Al30  1  0.89204111  0.86882262  0.11326127  1
  Al  Al31  1  0.44769600  0.76292767  0.81638701  1
  Al  Al32  1  0.54786319  0.87623607  0.55825441  1
  B  B33  1  0.74940657  0.15229062  0.79812416  1
  B  B34  1  0.22437949  0.86937641  0.05555810  1
  B  B35  1  0.78351676  0.75425490  0.88519671  1
  N  N36  1  0.22213797  0.20396288  0.36840895  1
  N  N37  1  0.12122763  0.07007989  0.11112133  1
  N  N38  1  0.87046405  0.20179910  0.86094970  1
  N  N39  1  0.76929260  0.11000778  0.64884777  1
  N  N40  1  0.55821510  0.20362814  0.37447735  1
  N  N41  1  0.44709799  0.09628163  0.11499788  1
  N  N42  1  0.22527290  0.20223408  0.86853132  1
  N  N43  1  0.11098558  0.09424332  0.62440623  1
  N  N44  1  0.88936175  0.20344339  0.37407516  1
  N  N45  1  0.77535422  0.09918178  0.11847856  1
  N  N46  1  0.58034192  0.20190792  0.86130749  1
  N  N47  1  0.44432816  0.09541981  0.62149827  1
  N  N48  1  0.22165775  0.54063775  0.37053823  1
  N  N49  1  0.11429638  0.42430973  0.11957217  1
  N  N50  1  0.87955348  0.55146666  0.87114987  1
  N  N51  1  0.77556143  0.43093327  0.62043005  1
  N  N52  1  0.55444609  0.54243184  0.36756939  1
  N  N53  1  0.44812767  0.42370377  0.12177425  1
  N  N54  1  0.23042528  0.52802968  0.87385796  1
  N  N55  1  0.11037020  0.42901012  0.62150876  1
  N  N56  1  0.89221099  0.53120849  0.36777328  1
  N  N57  1  0.77921551  0.42174267  0.11800017  1
  N  N58  1  0.55302171  0.54171519  0.87142106  1
  N  N59  1  0.44171094  0.43207066  0.61809456  1
  N  N60  1  0.22216168  0.87230174  0.37499015  1
  N  N61  1  0.13261922  0.76813384  0.10776223  1
  N  N62  1  0.88211699  0.83389630  0.84497083  1
  N  N63  1  0.77831559  0.76879264  0.56640081  1
  N  N64  1  0.54763093  0.87568606  0.36398627  1
  N  N65  1  0.41977314  0.77403335  0.11141380  1
  N  N66  1  0.22278638  0.87276134  0.89195292  1
  N  N67  1  0.11008868  0.76508695  0.63496760  1
  N  N68  1  0.89374130  0.86881603  0.31441386  1
  N  N69  1  0.77746651  0.75721460  0.08601851  1
  N  N70  1  0.58104682  0.85872153  0.86844470  1
  N  N71  1  0.44079954  0.76459815  0.62516937  1
