# generated using pymatgen
data_Al11BN12
_symmetry_space_group_name_H-M   'P 1'
_cell_length_a   9.29166088
_cell_length_b   9.26972357
_cell_length_c   10.12257204
_cell_angle_alpha   89.72248159
_cell_angle_beta   90.02011228
_cell_angle_gamma   59.98943988
_symmetry_Int_Tables_number   1
_chemical_formula_structural   Al11BN12
_chemical_formula_sum   'Al33 B3 N36'
_cell_volume   754.96722133
_cell_formula_units_Z   3
loop_
 _symmetry_equiv_pos_site_id
 _symmetry_equiv_pos_as_xyz
  1  'x, y, z'
loop_
 _atom_site_type_symbol
 _atom_site_label
 _atom_site_symmetry_multiplicity
 _atom_site_fract_x
 _atom_site_fract_y
 _atom_site_fract_z
 _atom_site_occupancy
  Al  Al0  1  0.10737855  0.09721289  0.37469999  1
  Al  Al1  1  0.22492903  0.19913553  0.13340471  1
  Al  Al2  1  0.89067544  0.19251870  0.64695429  1
  Al  Al3  1  0.44644748  0.08980227  0.38948439  1
  Al  Al4  1  0.55947643  0.20179188  0.13546620  1
  Al  Al5  1  0.10753767  0.09328828  0.89366921  1
  Al  Al6  1  0.22710498  0.19639514  0.64345463  1
  Al  Al7  1  0.78116227  0.08791082  0.38671628  1
  Al  Al8  1  0.89041913  0.19921539  0.12590241  1
  Al  Al9  1  0.45645103  0.09135311  0.89055391  1
  Al  Al10  1  0.56480266  0.19596035  0.63968093  1
  Al  Al11  1  0.10816543  0.43352931  0.31821748  1
  Al  Al12  1  0.22464886  0.54350183  0.06863097  1
  Al  Al13  1  0.77396231  0.43471846  0.82447938  1
  Al  Al14  1  0.89430975  0.52687028  0.57072784  1
  Al  Al15  1  0.44253695  0.43075593  0.32322676  1
  Al  Al16  1  0.54799699  0.54622768  0.06932415  1
  Al  Al17  1  0.10524410  0.43896145  0.82031843  1
  Al  Al18  1  0.22029256  0.54170827  0.57230350  1
  Al  Al19  1  0.77459554  0.43222096  0.31515877  1
  Al  Al20  1  0.88785835  0.54319948  0.06007396  1
  Al  Al21  1  0.44824170  0.42866716  0.82238280  1
  Al  Al22  1  0.55639141  0.53898741  0.57232609  1
  Al  Al23  1  0.11716917  0.76160707  0.31065447  1
  Al  Al24  1  0.87988719  0.87256957  0.65038600  1
  Al  Al25  1  0.43576885  0.76067655  0.31531542  1
  Al  Al26  1  0.55217022  0.87756186  0.13103997  1
  Al  Al27  1  0.10993916  0.76302230  0.83449711  1
  Al  Al28  1  0.22295072  0.86749122  0.57450468  1
  Al  Al29  1  0.77733061  0.76412933  0.38627157  1
  Al  Al30  1  0.88696122  0.87981248  0.11962660  1
  Al  Al31  1  0.44690764  0.75930761  0.82989250  1
  Al  Al32  1  0.56724297  0.86806895  0.64462846  1
  B  B33  1  0.77001936  0.09714871  0.89471636  1
  B  B34  1  0.22708694  0.86549369  0.06225446  1
  B  B35  1  0.76649187  0.78442005  0.89856000  1
  N  N36  1  0.22797915  0.19832735  0.32462536  1
  N  N37  1  0.11966063  0.07728947  0.08393378  1
  N  N38  1  0.87894729  0.18492290  0.83996115  1
  N  N39  1  0.78182280  0.08774514  0.57434889  1
  N  N40  1  0.56043174  0.19648839  0.32774519  1
  N  N41  1  0.44347396  0.09932237  0.07512809  1
  N  N42  1  0.22759433  0.19843725  0.83517339  1
  N  N43  1  0.10712987  0.09849536  0.58767058  1
  N  N44  1  0.88790152  0.19693177  0.31763816  1
  N  N45  1  0.77194354  0.10112984  0.05390801  1
  N  N46  1  0.58403728  0.19012649  0.83406300  1
  N  N47  1  0.44754157  0.09032807  0.58010855  1
  N  N48  1  0.21997132  0.54182265  0.38204581  1
  N  N49  1  0.10484029  0.44006616  0.12781459  1
  N  N50  1  0.88159009  0.55675759  0.87334996  1
  N  N51  1  0.77605282  0.42776145  0.63548574  1
  N  N52  1  0.55602508  0.53946103  0.38250192  1
  N  N53  1  0.44167721  0.43495953  0.13294986  1
  N  N54  1  0.22660502  0.53524994  0.88326901  1
  N  N55  1  0.11172422  0.43053582  0.63132362  1
  N  N56  1  0.89284330  0.52828099  0.38094154  1
  N  N57  1  0.77238732  0.44032750  0.12494618  1
  N  N58  1  0.55650943  0.53796512  0.88466875  1
  N  N59  1  0.44295641  0.42978969  0.63125409  1
  N  N60  1  0.22359188  0.86520658  0.38553358  1
  N  N61  1  0.12713564  0.77508661  0.11770758  1
  N  N62  1  0.86369818  0.88314447  0.84590855  1
  N  N63  1  0.77918163  0.76293682  0.57493885  1
  N  N64  1  0.55989418  0.86937470  0.32163135  1
  N  N65  1  0.41483501  0.77570809  0.12192179  1
  N  N66  1  0.23102013  0.86029436  0.90137785  1
  N  N67  1  0.11297193  0.76077473  0.64333418  1
  N  N68  1  0.88432380  0.87102949  0.31273048  1
  N  N69  1  0.76798790  0.77800892  0.05677111  1
  N  N70  1  0.58409563  0.86258775  0.83780968  1
  N  N71  1  0.44192147  0.76018855  0.63901033  1
