# generated using pymatgen
data_Al11BN12
_symmetry_space_group_name_H-M   'P 1'
_cell_length_a   9.30258187
_cell_length_b   9.28694918
_cell_length_c   10.02866679
_cell_angle_alpha   89.89102623
_cell_angle_beta   89.87384728
_cell_angle_gamma   59.98243838
_symmetry_Int_Tables_number   1
_chemical_formula_structural   Al11BN12
_chemical_formula_sum   'Al33 B3 N36'
_cell_volume   750.19175060
_cell_formula_units_Z   3
loop_
 _symmetry_equiv_pos_site_id
 _symmetry_equiv_pos_as_xyz
  1  'x, y, z'
loop_
 _atom_site_type_symbol
 _atom_site_label
 _atom_site_symmetry_multiplicity
 _atom_site_fract_x
 _atom_site_fract_y
 _atom_site_fract_z
 _atom_site_occupancy
  Al  Al0  1  0.10579690  0.10153400  0.38792284  1
  Al  Al1  1  0.22277066  0.19934926  0.13843237  1
  Al  Al2  1  0.88755258  0.20161804  0.64314924  1
  Al  Al3  1  0.44650170  0.09186080  0.38678590  1
  Al  Al4  1  0.56077458  0.19845972  0.13179648  1
  Al  Al5  1  0.10726243  0.09217314  0.89291726  1
  Al  Al6  1  0.22148549  0.20623038  0.63916629  1
  Al  Al7  1  0.77987899  0.09027911  0.38448244  1
  Al  Al8  1  0.89259428  0.19791448  0.13271240  1
  Al  Al9  1  0.45511113  0.09006723  0.88848896  1
  Al  Al10  1  0.56488205  0.19604750  0.63876117  1
  Al  Al11  1  0.10699326  0.42779735  0.38607379  1
  Al  Al12  1  0.22621054  0.54377563  0.06817100  1
  Al  Al13  1  0.78391617  0.42341551  0.88713435  1
  Al  Al14  1  0.88766813  0.54429601  0.64179845  1
  Al  Al15  1  0.44236701  0.43255068  0.31797844  1
  Al  Al16  1  0.54808556  0.54430039  0.06978595  1
  Al  Al17  1  0.10440877  0.42848734  0.88846079  1
  Al  Al18  1  0.22265374  0.54529958  0.57174771  1
  Al  Al19  1  0.78023711  0.42700197  0.38694331  1
  Al  Al20  1  0.88771815  0.54049110  0.13350551  1
  Al  Al21  1  0.44822419  0.42557326  0.82474042  1
  Al  Al22  1  0.55091160  0.54355415  0.58118233  1
  Al  Al23  1  0.11637647  0.76486542  0.30910201  1
  Al  Al24  1  0.87921520  0.87683401  0.64736177  1
  Al  Al25  1  0.43466950  0.76391939  0.31227148  1
  Al  Al26  1  0.55482209  0.87498609  0.12586372  1
  Al  Al27  1  0.10985780  0.76143009  0.83216352  1
  Al  Al28  1  0.22310143  0.86859409  0.57316261  1
  Al  Al29  1  0.77762196  0.76363026  0.38280730  1
  Al  Al30  1  0.88823469  0.87556534  0.11534019  1
  Al  Al31  1  0.44779904  0.75927708  0.83197578  1
  Al  Al32  1  0.56428673  0.87237245  0.64294640  1
  B  B33  1  0.77110961  0.09125343  0.89361007  1
  B  B34  1  0.22612152  0.86662330  0.05938723  1
  B  B35  1  0.77185105  0.77116629  0.89439416  1
  N  N36  1  0.22319567  0.20526901  0.32821845  1
  N  N37  1  0.12130268  0.07369516  0.08373608  1
  N  N38  1  0.88010089  0.18768553  0.83451621  1
  N  N39  1  0.78139809  0.09048904  0.57337297  1
  N  N40  1  0.55994138  0.19864314  0.32533659  1
  N  N41  1  0.44240472  0.09702420  0.07465863  1
  N  N42  1  0.22370972  0.20169702  0.82938744  1
  N  N43  1  0.10625782  0.10148703  0.58175419  1
  N  N44  1  0.88648954  0.20542039  0.32354842  1
  N  N45  1  0.77563847  0.09685763  0.05379000  1
  N  N46  1  0.58475035  0.18720592  0.83456267  1
  N  N47  1  0.44603610  0.09288146  0.57942526  1
  N  N48  1  0.22160776  0.54651943  0.37716247  1
  N  N49  1  0.10950754  0.42406872  0.08091770  1
  N  N50  1  0.87813268  0.56325753  0.83285555  1
  N  N51  1  0.78330946  0.42518944  0.58407645  1
  N  N52  1  0.54975754  0.54510272  0.37590132  1
  N  N53  1  0.44333208  0.43048073  0.12631875  1
  N  N54  1  0.22655675  0.53673326  0.87883087  1
  N  N55  1  0.10766000  0.42735161  0.58009435  1
  N  N56  1  0.88674023  0.54146904  0.32385361  1
  N  N57  1  0.78431269  0.42300164  0.07878255  1
  N  N58  1  0.55479258  0.53784431  0.87803058  1
  N  N59  1  0.44254006  0.42869374  0.63267534  1
  N  N60  1  0.22235980  0.86947921  0.38324127  1
  N  N61  1  0.12779250  0.77355037  0.11526048  1
  N  N62  1  0.86444268  0.88315735  0.84483245  1
  N  N63  1  0.77922863  0.76287758  0.57280208  1
  N  N64  1  0.55841885  0.87296408  0.31924961  1
  N  N65  1  0.41687108  0.77451114  0.11677401  1
  N  N66  1  0.22941336  0.86086893  0.89780786  1
  N  N67  1  0.11183213  0.76286252  0.64039617  1
  N  N68  1  0.88337183  0.87451125  0.31116552  1
  N  N69  1  0.77733173  0.76020687  0.05488225  1
  N  N70  1  0.58469074  0.86138438  0.83839309  1
  N  N71  1  0.43973563  0.76470860  0.63992650  1
