# generated using pymatgen
data_Al11BN12
_symmetry_space_group_name_H-M   'P 1'
_cell_length_a   9.28721970
_cell_length_b   9.31496072
_cell_length_c   10.07931856
_cell_angle_alpha   90.10624406
_cell_angle_beta   89.86828074
_cell_angle_gamma   60.07165675
_symmetry_Int_Tables_number   1
_chemical_formula_structural   Al11BN12
_chemical_formula_sum   'Al33 B3 N36'
_cell_volume   755.68000798
_cell_formula_units_Z   3
loop_
 _symmetry_equiv_pos_site_id
 _symmetry_equiv_pos_as_xyz
  1  'x, y, z'
loop_
 _atom_site_type_symbol
 _atom_site_label
 _atom_site_symmetry_multiplicity
 _atom_site_fract_x
 _atom_site_fract_y
 _atom_site_fract_z
 _atom_site_occupancy
  Al  Al0  1  0.11486001  0.08828133  0.31723813  1
  Al  Al1  1  0.22155805  0.20231656  0.06932419  1
  Al  Al2  1  0.89399144  0.20560562  0.57242350  1
  Al  Al3  1  0.44266380  0.09863201  0.31851114  1
  Al  Al4  1  0.54927336  0.21160009  0.07050724  1
  Al  Al5  1  0.10910632  0.08899503  0.82802375  1
  Al  Al6  1  0.22462319  0.20171701  0.57140564  1
  Al  Al7  1  0.78357101  0.08457862  0.38810006  1
  Al  Al8  1  0.89592457  0.20337357  0.06908241  1
  Al  Al9  1  0.45156532  0.10042304  0.82506644  1
  Al  Al10  1  0.54961146  0.20961085  0.57196544  1
  Al  Al11  1  0.10939360  0.42833401  0.32206759  1
  Al  Al12  1  0.22433968  0.54033013  0.07197355  1
  Al  Al13  1  0.77940241  0.41584775  0.82016916  1
  Al  Al14  1  0.89291329  0.53215465  0.57704177  1
  Al  Al15  1  0.44396826  0.42809382  0.32322792  1
  Al  Al16  1  0.55171089  0.54073679  0.07158752  1
  Al  Al17  1  0.11359395  0.42123890  0.81992502  1
  Al  Al18  1  0.21683512  0.54547411  0.57583249  1
  Al  Al19  1  0.77917550  0.42806378  0.32009654  1
  Al  Al20  1  0.89061827  0.53541600  0.05510776  1
  Al  Al21  1  0.44971500  0.42547689  0.82083320  1
  Al  Al22  1  0.55426659  0.54144436  0.57306634  1
  Al  Al23  1  0.11985410  0.75961845  0.31611640  1
  Al  Al24  1  0.87426494  0.88319875  0.65714636  1
  Al  Al25  1  0.43755246  0.75909312  0.31848713  1
  Al  Al26  1  0.55337009  0.87175562  0.12811396  1
  Al  Al27  1  0.11016643  0.76109933  0.84170674  1
  Al  Al28  1  0.22008334  0.87148970  0.57907754  1
  Al  Al29  1  0.77704692  0.76475040  0.39093909  1
  Al  Al30  1  0.89055140  0.87602515  0.12926538  1
  Al  Al31  1  0.44855754  0.75781089  0.83806048  1
  Al  Al32  1  0.56677203  0.86585808  0.64417643  1
  B  B33  1  0.77453483  0.09439680  0.90830389  1
  B  B34  1  0.22469091  0.86943539  0.06746903  1
  B  B35  1  0.74672981  0.82442478  0.90988291  1
  N  N36  1  0.22284152  0.20268810  0.38053799  1
  N  N37  1  0.12413490  0.06947396  0.12489228  1
  N  N38  1  0.87899588  0.18720463  0.87725089  1
  N  N39  1  0.78116673  0.08813704  0.57989246  1
  N  N40  1  0.55007358  0.20817128  0.37999392  1
  N  N41  1  0.43996429  0.10282171  0.12786485  1
  N  N42  1  0.22959130  0.19704181  0.88166194  1
  N  N43  1  0.11288793  0.09282365  0.63761468  1
  N  N44  1  0.89431672  0.20589611  0.37645785  1
  N  N45  1  0.77890781  0.09055094  0.07105630  1
  N  N46  1  0.57378104  0.20138213  0.88027989  1
  N  N47  1  0.44430452  0.09678697  0.63425643  1
  N  N48  1  0.21934307  0.54307005  0.38350407  1
  N  N49  1  0.10789359  0.43128188  0.13208489  1
  N  N50  1  0.90053196  0.51012459  0.87492682  1
  N  N51  1  0.77577384  0.42571690  0.63106815  1
  N  N52  1  0.55470247  0.54055894  0.38220892  1
  N  N53  1  0.44447091  0.42840870  0.13479449  1
  N  N54  1  0.22514076  0.53295953  0.88435308  1
  N  N55  1  0.11556068  0.42410293  0.63074568  1
  N  N56  1  0.89177786  0.53267816  0.38410951  1
  N  N57  1  0.77725137  0.43054717  0.13073457  1
  N  N58  1  0.55826085  0.53530057  0.88472232  1
  N  N59  1  0.44228114  0.43042665  0.63198080  1
  N  N60  1  0.22147173  0.87141378  0.38935080  1
  N  N61  1  0.12954122  0.77069166  0.12076286  1
  N  N62  1  0.85475974  0.89591120  0.85288820  1
  N  N63  1  0.77961054  0.76626891  0.58074903  1
  N  N64  1  0.56272948  0.86505463  0.32369561  1
  N  N65  1  0.41706647  0.77115377  0.12182368  1
  N  N66  1  0.22438607  0.87115224  0.90585562  1
  N  N67  1  0.10943707  0.76351412  0.64924381  1
  N  N68  1  0.88575240  0.87066163  0.31818748  1
  N  N69  1  0.77198629  0.77562234  0.05592956  1
  N  N70  1  0.58395534  0.86535550  0.84682185  1
  N  N71  1  0.44139401  0.76038504  0.64350348  1
