# generated using pymatgen
data_Al11BN12
_symmetry_space_group_name_H-M   'P 1'
_cell_length_a   9.29837846
_cell_length_b   9.27741016
_cell_length_c   9.97600587
_cell_angle_alpha   89.70389805
_cell_angle_beta   89.64972898
_cell_angle_gamma   60.00046029
_symmetry_Int_Tables_number   1
_chemical_formula_structural   Al11BN12
_chemical_formula_sum   'Al33 B3 N36'
_cell_volume   745.27046808
_cell_formula_units_Z   3
loop_
 _symmetry_equiv_pos_site_id
 _symmetry_equiv_pos_as_xyz
  1  'x, y, z'
loop_
 _atom_site_type_symbol
 _atom_site_label
 _atom_site_symmetry_multiplicity
 _atom_site_fract_x
 _atom_site_fract_y
 _atom_site_fract_z
 _atom_site_occupancy
  Al  Al0  1  0.10796079  0.09575537  0.40233651  1
  Al  Al1  1  0.22461057  0.19729060  0.14751391  1
  Al  Al2  1  0.88549660  0.20332175  0.65279394  1
  Al  Al3  1  0.44541673  0.09199473  0.39786555  1
  Al  Al4  1  0.55883963  0.20183416  0.14482834  1
  Al  Al5  1  0.11071922  0.08684667  0.89259899  1
  Al  Al6  1  0.22067354  0.20833914  0.65007830  1
  Al  Al7  1  0.78206660  0.08876306  0.39390738  1
  Al  Al8  1  0.89155381  0.19746387  0.13959891  1
  Al  Al9  1  0.45450404  0.09036651  0.89799402  1
  Al  Al10  1  0.55990956  0.20390106  0.64980587  1
  Al  Al11  1  0.10639519  0.42539424  0.39130142  1
  Al  Al12  1  0.22481425  0.54441001  0.08584943  1
  Al  Al13  1  0.77737862  0.42865176  0.89734603  1
  Al  Al14  1  0.88610619  0.54511223  0.64971900  1
  Al  Al15  1  0.45159327  0.42319081  0.39317877  1
  Al  Al16  1  0.55121407  0.54263115  0.14864596  1
  Al  Al17  1  0.10405229  0.43227825  0.89798467  1
  Al  Al18  1  0.21627931  0.54694210  0.57966804  1
  Al  Al19  1  0.77910523  0.42595179  0.39703080  1
  Al  Al20  1  0.88569874  0.54114584  0.14248287  1
  Al  Al21  1  0.45841279  0.41932636  0.89859612  1
  Al  Al22  1  0.55715805  0.53802483  0.64927298  1
  Al  Al23  1  0.11791562  0.76493911  0.32380946  1
  Al  Al24  1  0.87444745  0.87884413  0.65532864  1
  Al  Al25  1  0.44700017  0.76058462  0.40238190  1
  Al  Al26  1  0.55002396  0.87358922  0.14225084  1
  Al  Al27  1  0.11016950  0.76080378  0.83364039  1
  Al  Al28  1  0.22260721  0.87363051  0.62343663  1
  Al  Al29  1  0.77891369  0.76280216  0.39282847  1
  Al  Al30  1  0.88612877  0.87669673  0.12443836  1
  Al  Al31  1  0.44606438  0.76180494  0.89295887  1
  Al  Al32  1  0.56189500  0.86951669  0.65289559  1
  B  B33  1  0.77174586  0.09213521  0.90296134  1
  B  B34  1  0.22424996  0.87193289  0.10506987  1
  B  B35  1  0.77041946  0.77020144  0.90345416  1
  N  N36  1  0.22292607  0.20196209  0.33718881  1
  N  N37  1  0.12705659  0.06287542  0.08884416  1
  N  N38  1  0.87786660  0.19077341  0.84649478  1
  N  N39  1  0.77862536  0.09296774  0.58357878  1
  N  N40  1  0.55918095  0.20104464  0.33511828  1
  N  N41  1  0.44432101  0.09510378  0.08654239  1
  N  N42  1  0.22237467  0.20650674  0.84152788  1
  N  N43  1  0.10413032  0.10523708  0.59364945  1
  N  N44  1  0.88927747  0.20359089  0.33132765  1
  N  N45  1  0.77479235  0.09681095  0.06403591  1
  N  N46  1  0.58168895  0.19208362  0.84352530  1
  N  N47  1  0.44549826  0.09391919  0.59200260  1
  N  N48  1  0.22060508  0.54202386  0.37266152  1
  N  N49  1  0.10851296  0.42358808  0.09169683  1
  N  N50  1  0.87700724  0.56570772  0.84304923  1
  N  N51  1  0.77980670  0.42641350  0.59069484  1
  N  N52  1  0.55714800  0.54004903  0.33744640  1
  N  N53  1  0.45402613  0.42242235  0.09121939  1
  N  N54  1  0.22553931  0.54067955  0.88738238  1
  N  N55  1  0.10581740  0.42704711  0.58706099  1
  N  N56  1  0.88535956  0.54114299  0.33302182  1
  N  N57  1  0.77739185  0.42710886  0.08669713  1
  N  N58  1  0.55806973  0.53859086  0.83917645  1
  N  N59  1  0.44892532  0.42516340  0.58888896  1
  N  N60  1  0.22104073  0.87013683  0.38880020  1
  N  N61  1  0.13026371  0.77765411  0.12307443  1
  N  N62  1  0.86277253  0.88599277  0.85447890  1
  N  N63  1  0.77756055  0.76377585  0.58258977  1
  N  N64  1  0.55646860  0.87053083  0.33258700  1
  N  N65  1  0.41564559  0.77521447  0.08890137  1
  N  N66  1  0.23038145  0.87353315  0.82923883  1
  N  N67  1  0.10327019  0.75978695  0.64078959  1
  N  N68  1  0.88385887  0.87361474  0.31943361  1
  N  N69  1  0.77426268  0.76114963  0.06551601  1
  N  N70  1  0.58101703  0.85999890  0.84734530  1
  N  N71  1  0.45500366  0.75818257  0.59338471  1
