# generated using pymatgen
data_Al11BN12
_symmetry_space_group_name_H-M   'P 1'
_cell_length_a   9.30110816
_cell_length_b   9.28713467
_cell_length_c   10.06044222
_cell_angle_alpha   90.09002973
_cell_angle_beta   90.04567326
_cell_angle_gamma   59.92394678
_symmetry_Int_Tables_number   1
_chemical_formula_structural   Al11BN12
_chemical_formula_sum   'Al33 B3 N36'
_cell_volume   752.02151764
_cell_formula_units_Z   3
loop_
 _symmetry_equiv_pos_site_id
 _symmetry_equiv_pos_as_xyz
  1  'x, y, z'
loop_
 _atom_site_type_symbol
 _atom_site_label
 _atom_site_symmetry_multiplicity
 _atom_site_fract_x
 _atom_site_fract_y
 _atom_site_fract_z
 _atom_site_occupancy
  Al  Al0  1  0.11263351  0.08877949  0.31688781  1
  Al  Al1  1  0.21444783  0.20501460  0.06930333  1
  Al  Al2  1  0.89417883  0.20578052  0.57248987  1
  Al  Al3  1  0.44808130  0.09005371  0.36380896  1
  Al  Al4  1  0.55826972  0.20353138  0.13215336  1
  Al  Al5  1  0.10733948  0.09100973  0.82473736  1
  Al  Al6  1  0.22413964  0.20315786  0.57475505  1
  Al  Al7  1  0.77872729  0.08688507  0.38952918  1
  Al  Al8  1  0.89344829  0.20094199  0.06424935  1
  Al  Al9  1  0.45578897  0.09106139  0.88389629  1
  Al  Al10  1  0.56701503  0.19680594  0.64646919  1
  Al  Al11  1  0.11022709  0.42854785  0.32131756  1
  Al  Al12  1  0.22334111  0.54217974  0.07063840  1
  Al  Al13  1  0.77731924  0.42783711  0.82056919  1
  Al  Al14  1  0.89227411  0.53368378  0.57220497  1
  Al  Al15  1  0.44206044  0.43324390  0.32295663  1
  Al  Al16  1  0.55074159  0.54269760  0.07097135  1
  Al  Al17  1  0.10642477  0.43381073  0.81908874  1
  Al  Al18  1  0.22136293  0.54216183  0.57555116  1
  Al  Al19  1  0.77939321  0.42662418  0.31913093  1
  Al  Al20  1  0.88963664  0.53773564  0.06388562  1
  Al  Al21  1  0.44769553  0.43006827  0.82630442  1
  Al  Al22  1  0.55474042  0.54100587  0.57389410  1
  Al  Al23  1  0.11783861  0.76123736  0.31489159  1
  Al  Al24  1  0.87946784  0.87651085  0.65390414  1
  Al  Al25  1  0.43637303  0.75979789  0.31622121  1
  Al  Al26  1  0.55244513  0.87337117  0.12547935  1
  Al  Al27  1  0.10885184  0.76439765  0.83932254  1
  Al  Al28  1  0.22246831  0.87040638  0.57691317  1
  Al  Al29  1  0.77627620  0.76640150  0.38817014  1
  Al  Al30  1  0.88778991  0.87633307  0.12442885  1
  Al  Al31  1  0.44506149  0.75909917  0.83545799  1
  Al  Al32  1  0.56604705  0.86878892  0.65086812  1
  B  B33  1  0.76813014  0.09158974  0.90134568  1
  B  B34  1  0.22294816  0.87040540  0.06700823  1
  B  B35  1  0.76943753  0.77549339  0.90235287  1
  N  N36  1  0.21970239  0.20450121  0.37888768  1
  N  N37  1  0.12065876  0.07025058  0.12497415  1
  N  N38  1  0.87986805  0.19513087  0.87435791  1
  N  N39  1  0.78023044  0.08761757  0.57823144  1
  N  N40  1  0.56178184  0.19972619  0.32523292  1
  N  N41  1  0.44381279  0.09684591  0.08201430  1
  N  N42  1  0.21386445  0.20989833  0.87906594  1
  N  N43  1  0.11324698  0.09217043  0.63542910  1
  N  N44  1  0.89318164  0.20572625  0.37780483  1
  N  N45  1  0.77063625  0.09270240  0.06045855  1
  N  N46  1  0.58481100  0.19232236  0.84181857  1
  N  N47  1  0.44908959  0.09126176  0.60549829  1
  N  N48  1  0.22038153  0.54198787  0.38325001  1
  N  N49  1  0.10890035  0.43087081  0.13161415  1
  N  N50  1  0.88048922  0.55755315  0.87400892  1
  N  N51  1  0.77777430  0.42745230  0.63189702  1
  N  N52  1  0.55597633  0.54055980  0.38238744  1
  N  N53  1  0.44085162  0.43526077  0.13172771  1
  N  N54  1  0.22430381  0.53593415  0.88398253  1
  N  N55  1  0.11276204  0.42728875  0.63068769  1
  N  N56  1  0.89136416  0.53336852  0.37998543  1
  N  N57  1  0.77824643  0.42753294  0.12862800  1
  N  N58  1  0.55871822  0.53724292  0.88539333  1
  N  N59  1  0.44406012  0.43033955  0.63420321  1
  N  N60  1  0.22189376  0.87114149  0.38750328  1
  N  N61  1  0.12696206  0.77279511  0.11965554  1
  N  N62  1  0.86295843  0.88499295  0.84959344  1
  N  N63  1  0.77753579  0.76655140  0.57832561  1
  N  N64  1  0.56105050  0.86725775  0.31862998  1
  N  N65  1  0.41547420  0.77245308  0.12152390  1
  N  N66  1  0.22298098  0.87383631  0.90491401  1
  N  N67  1  0.11317996  0.76156825  0.64545554  1
  N  N68  1  0.88504207  0.87237925  0.31646356  1
  N  N69  1  0.77262081  0.77069385  0.06134989  1
  N  N70  1  0.58432803  0.85836931  0.84596207  1
  N  N71  1  0.44167063  0.76003041  0.64215194  1
