# generated using pymatgen
data_Al11BN12
_symmetry_space_group_name_H-M   'P 1'
_cell_length_a   9.31574907
_cell_length_b   9.30316504
_cell_length_c   9.99820403
_cell_angle_alpha   89.96663303
_cell_angle_beta   89.92474926
_cell_angle_gamma   59.89703348
_symmetry_Int_Tables_number   1
_chemical_formula_structural   Al11BN12
_chemical_formula_sum   'Al33 B3 N36'
_cell_volume   749.63389593
_cell_formula_units_Z   3
loop_
 _symmetry_equiv_pos_site_id
 _symmetry_equiv_pos_as_xyz
  1  'x, y, z'
loop_
 _atom_site_type_symbol
 _atom_site_label
 _atom_site_symmetry_multiplicity
 _atom_site_fract_x
 _atom_site_fract_y
 _atom_site_fract_z
 _atom_site_occupancy
  Al  Al0  1  0.10418443  0.10267330  0.38807718  1
  Al  Al1  1  0.22326459  0.19885929  0.13784999  1
  Al  Al2  1  0.88616182  0.20261214  0.64186986  1
  Al  Al3  1  0.44570868  0.09290264  0.38708988  1
  Al  Al4  1  0.56016470  0.19973731  0.13107471  1
  Al  Al5  1  0.10722288  0.09181794  0.89183870  1
  Al  Al6  1  0.22121257  0.20644596  0.63863517  1
  Al  Al7  1  0.77968299  0.09063269  0.38432293  1
  Al  Al8  1  0.89333038  0.19710310  0.13177097  1
  Al  Al9  1  0.45500420  0.08936414  0.88766092  1
  Al  Al10  1  0.56104237  0.20272380  0.63993917  1
  Al  Al11  1  0.10474610  0.42804115  0.38507597  1
  Al  Al12  1  0.22277541  0.54569852  0.06910049  1
  Al  Al13  1  0.78143043  0.42529905  0.88857822  1
  Al  Al14  1  0.88591024  0.54506318  0.64057101  1
  Al  Al15  1  0.44606302  0.42706457  0.36293243  1
  Al  Al16  1  0.55644694  0.53826403  0.12678314  1
  Al  Al17  1  0.10430940  0.42846121  0.88679762  1
  Al  Al18  1  0.21959570  0.54678747  0.57295065  1
  Al  Al19  1  0.77438671  0.43042739  0.38722611  1
  Al  Al20  1  0.88813564  0.54037597  0.13275287  1
  Al  Al21  1  0.45682510  0.41686960  0.88108512  1
  Al  Al22  1  0.55690170  0.53584755  0.64209296  1
  Al  Al23  1  0.11534700  0.76567593  0.30821889  1
  Al  Al24  1  0.87785517  0.87833560  0.64694768  1
  Al  Al25  1  0.43063793  0.77151518  0.31225043  1
  Al  Al26  1  0.55511931  0.87514832  0.12428057  1
  Al  Al27  1  0.11061074  0.76066359  0.83033659  1
  Al  Al28  1  0.22348746  0.86860572  0.57332869  1
  Al  Al29  1  0.77766376  0.76388752  0.38267403  1
  Al  Al30  1  0.88848642  0.87539355  0.11457156  1
  Al  Al31  1  0.44761642  0.76201492  0.83575207  1
  Al  Al32  1  0.56328623  0.87342859  0.64177211  1
  B  B33  1  0.77309663  0.08942968  0.89322878  1
  B  B34  1  0.22747434  0.86599844  0.05813923  1
  B  B35  1  0.77252791  0.77034548  0.89412584  1
  N  N36  1  0.22264546  0.20501837  0.32824481  1
  N  N37  1  0.12151292  0.07386225  0.08321073  1
  N  N38  1  0.88052304  0.18754583  0.83429348  1
  N  N39  1  0.77950008  0.09154255  0.57357176  1
  N  N40  1  0.55813067  0.20116219  0.32226123  1
  N  N41  1  0.44284246  0.09665491  0.07449029  1
  N  N42  1  0.22377778  0.20103368  0.82924345  1
  N  N43  1  0.10501179  0.10254455  0.58161940  1
  N  N44  1  0.88530931  0.20645814  0.32344124  1
  N  N45  1  0.77686572  0.09562932  0.05368150  1
  N  N46  1  0.58407213  0.18777663  0.83404960  1
  N  N47  1  0.44589386  0.09436056  0.57987084  1
  N  N48  1  0.21653742  0.54802822  0.37186557  1
  N  N49  1  0.10960011  0.42368233  0.08055354  1
  N  N50  1  0.87789216  0.56321204  0.83264377  1
  N  N51  1  0.77758784  0.42868059  0.58049558  1
  N  N52  1  0.55690962  0.53995669  0.32195147  1
  N  N53  1  0.45093772  0.42196451  0.08367287  1
  N  N54  1  0.22454206  0.53712678  0.87457607  1
  N  N55  1  0.10600825  0.42784854  0.57958796  1
  N  N56  1  0.88481494  0.54185022  0.32358588  1
  N  N57  1  0.78278012  0.42401642  0.07647265  1
  N  N58  1  0.56319331  0.53158471  0.83595707  1
  N  N59  1  0.44736777  0.42520344  0.59155980  1
  N  N60  1  0.22105138  0.86983849  0.38316090  1
  N  N61  1  0.12855336  0.77365684  0.11511166  1
  N  N62  1  0.86481369  0.88343332  0.84470237  1
  N  N63  1  0.77891875  0.76365486  0.57271998  1
  N  N64  1  0.55807283  0.87451864  0.31946665  1
  N  N65  1  0.41649696  0.77664639  0.11305426  1
  N  N66  1  0.22927584  0.86007026  0.89718759  1
  N  N67  1  0.11065153  0.76425966  0.63885065  1
  N  N68  1  0.88229688  0.87543174  0.31076190  1
  N  N69  1  0.77821246  0.75973809  0.05486482  1
  N  N70  1  0.58561404  0.86121296  0.83870493  1
  N  N71  1  0.43810636  0.76902453  0.63787426  1
