# generated using pymatgen
data_Al11BN12
_symmetry_space_group_name_H-M   'P 1'
_cell_length_a   9.27792842
_cell_length_b   9.26864088
_cell_length_c   9.96021276
_cell_angle_alpha   89.69323637
_cell_angle_beta   89.71154167
_cell_angle_gamma   60.06195732
_symmetry_Int_Tables_number   1
_chemical_formula_structural   Al11BN12
_chemical_formula_sum   'Al33 B3 N36'
_cell_volume   742.21424090
_cell_formula_units_Z   3
loop_
 _symmetry_equiv_pos_site_id
 _symmetry_equiv_pos_as_xyz
  1  'x, y, z'
loop_
 _atom_site_type_symbol
 _atom_site_label
 _atom_site_symmetry_multiplicity
 _atom_site_fract_x
 _atom_site_fract_y
 _atom_site_fract_z
 _atom_site_occupancy
  Al  Al0  1  0.10886412  0.09645663  0.40112542  1
  Al  Al1  1  0.22401097  0.19763038  0.14885986  1
  Al  Al2  1  0.88634648  0.20256638  0.65315052  1
  Al  Al3  1  0.44511948  0.09324198  0.39850102  1
  Al  Al4  1  0.55808181  0.20288284  0.14508439  1
  Al  Al5  1  0.11051153  0.08737084  0.89622229  1
  Al  Al6  1  0.22083952  0.20697071  0.65027500  1
  Al  Al7  1  0.77968200  0.09188347  0.39471396  1
  Al  Al8  1  0.89155662  0.19733792  0.14125835  1
  Al  Al9  1  0.45444042  0.08970394  0.89885130  1
  Al  Al10  1  0.56091481  0.20295536  0.65076046  1
  Al  Al11  1  0.10968410  0.43019928  0.39650844  1
  Al  Al12  1  0.22811604  0.53569981  0.14072497  1
  Al  Al13  1  0.77731677  0.42832953  0.89803494  1
  Al  Al14  1  0.88695753  0.54522126  0.65072723  1
  Al  Al15  1  0.44441448  0.42796472  0.39753169  1
  Al  Al16  1  0.55047340  0.54218088  0.14918916  1
  Al  Al17  1  0.10722622  0.43207217  0.89979945  1
  Al  Al18  1  0.22399428  0.53463765  0.64927807  1
  Al  Al19  1  0.77931122  0.42675553  0.39729167  1
  Al  Al20  1  0.88672524  0.54107699  0.14298578  1
  Al  Al21  1  0.45387367  0.42077910  0.89939490  1
  Al  Al22  1  0.55730160  0.53835379  0.64928365  1
  Al  Al23  1  0.11306757  0.76888562  0.33387099  1
  Al  Al24  1  0.87655283  0.87812403  0.65567274  1
  Al  Al25  1  0.44626452  0.76157282  0.40113040  1
  Al  Al26  1  0.54980372  0.87339844  0.14378218  1
  Al  Al27  1  0.10687942  0.76471102  0.84628543  1
  Al  Al28  1  0.22332215  0.87380236  0.63483366  1
  Al  Al29  1  0.77879929  0.76328313  0.39400409  1
  Al  Al30  1  0.88733855  0.87586617  0.12363233  1
  Al  Al31  1  0.44714114  0.76062885  0.89644789  1
  Al  Al32  1  0.56168265  0.86917068  0.65339972  1
  B  B33  1  0.77044075  0.09372115  0.90400181  1
  B  B34  1  0.22325320  0.87026305  0.11060255  1
  B  B35  1  0.77027900  0.76940352  0.90455746  1
  N  N36  1  0.22186752  0.20620362  0.33909317  1
  N  N37  1  0.12631127  0.06323178  0.09086652  1
  N  N38  1  0.87818518  0.19018912  0.84713323  1
  N  N39  1  0.77841172  0.09321743  0.58438966  1
  N  N40  1  0.55686331  0.20481004  0.33616551  1
  N  N41  1  0.44393527  0.09499318  0.08768826  1
  N  N42  1  0.22190156  0.20529973  0.84222604  1
  N  N43  1  0.10579536  0.10219402  0.59271016  1
  N  N44  1  0.88879054  0.20475662  0.33267691  1
  N  N45  1  0.77401213  0.09752888  0.06513500  1
  N  N46  1  0.58170762  0.19207102  0.84464000  1
  N  N47  1  0.44575291  0.09363143  0.59302654  1
  N  N48  1  0.22358097  0.53738233  0.33407858  1
  N  N49  1  0.11091414  0.42532365  0.08924094  1
  N  N50  1  0.87797810  0.56494344  0.84452574  1
  N  N51  1  0.78076815  0.42629593  0.59154569  1
  N  N52  1  0.55627823  0.53961544  0.33897295  1
  N  N53  1  0.44894352  0.42469551  0.08799237  1
  N  N54  1  0.23068059  0.52922721  0.84395472  1
  N  N55  1  0.10970452  0.42895054  0.58867271  1
  N  N56  1  0.88763176  0.54137499  0.33450026  1
  N  N57  1  0.77747578  0.42686957  0.08790921  1
  N  N58  1  0.55728684  0.53834023  0.83980155  1
  N  N59  1  0.44593826  0.42622947  0.58950042  1
  N  N60  1  0.22411305  0.87439532  0.36931767  1
  N  N61  1  0.12843562  0.77485144  0.11207595  1
  N  N62  1  0.86216606  0.88520956  0.85575039  1
  N  N63  1  0.77755471  0.76368266  0.58384942  1
  N  N64  1  0.55699660  0.87157585  0.33400060  1
  N  N65  1  0.41616148  0.77434730  0.09078424  1
  N  N66  1  0.23061255  0.87336879  0.83263844  1
  N  N67  1  0.10333317  0.76280213  0.63642541  1
  N  N68  1  0.88244095  0.87602556  0.32046667  1
  N  N69  1  0.77361590  0.76103742  0.06674606  1
  N  N70  1  0.58084371  0.85924793  0.84809105  1
  N  N71  1  0.45214874  0.75937305  0.59262481  1
