# generated using pymatgen
data_Al11BN12
_symmetry_space_group_name_H-M   'P 1'
_cell_length_a   9.29964497
_cell_length_b   9.33934822
_cell_length_c   10.04115898
_cell_angle_alpha   90.12568748
_cell_angle_beta   89.98920621
_cell_angle_gamma   60.04288142
_symmetry_Int_Tables_number   1
_chemical_formula_structural   Al11BN12
_chemical_formula_sum   'Al33 B3 N36'
_cell_volume   755.58510455
_cell_formula_units_Z   3
loop_
 _symmetry_equiv_pos_site_id
 _symmetry_equiv_pos_as_xyz
  1  'x, y, z'
loop_
 _atom_site_type_symbol
 _atom_site_label
 _atom_site_symmetry_multiplicity
 _atom_site_fract_x
 _atom_site_fract_y
 _atom_site_fract_z
 _atom_site_occupancy
  Al  Al0  1  0.11442324  0.08811387  0.31700987  1
  Al  Al1  1  0.21886226  0.20311523  0.06885726  1
  Al  Al2  1  0.89592400  0.20538236  0.57086728  1
  Al  Al3  1  0.44265162  0.09612460  0.31842233  1
  Al  Al4  1  0.55235441  0.21045579  0.09729057  1
  Al  Al5  1  0.10786006  0.08931734  0.82704707  1
  Al  Al6  1  0.22689810  0.20098688  0.57147984  1
  Al  Al7  1  0.78057229  0.08629473  0.38716746  1
  Al  Al8  1  0.89464230  0.20353000  0.06764816  1
  Al  Al9  1  0.45052940  0.09920288  0.83183708  1
  Al  Al10  1  0.55844369  0.20663470  0.60380092  1
  Al  Al11  1  0.10984346  0.42797254  0.32212112  1
  Al  Al12  1  0.22206053  0.54165165  0.07145009  1
  Al  Al13  1  0.77906033  0.41647425  0.81966691  1
  Al  Al14  1  0.89368158  0.53156177  0.57653696  1
  Al  Al15  1  0.44316363  0.43050169  0.32425558  1
  Al  Al16  1  0.55095457  0.54227892  0.07145804  1
  Al  Al17  1  0.11264691  0.42179880  0.81944109  1
  Al  Al18  1  0.21794198  0.54459939  0.57563140  1
  Al  Al19  1  0.77926650  0.42768596  0.32015417  1
  Al  Al20  1  0.88984806  0.53572681  0.05492794  1
  Al  Al21  1  0.44825245  0.42800110  0.82521029  1
  Al  Al22  1  0.55492053  0.54234106  0.57328588  1
  Al  Al23  1  0.11890671  0.76021467  0.31594026  1
  Al  Al24  1  0.87740892  0.87983693  0.65536815  1
  Al  Al25  1  0.43726743  0.75914456  0.31802433  1
  Al  Al26  1  0.55325717  0.87024971  0.12683920  1
  Al  Al27  1  0.10904830  0.76170142  0.84158825  1
  Al  Al28  1  0.22162937  0.87111371  0.57861356  1
  Al  Al29  1  0.77716802  0.76458406  0.39013909  1
  Al  Al30  1  0.88967577  0.87673993  0.12806938  1
  Al  Al31  1  0.44735452  0.75823573  0.83837536  1
  Al  Al32  1  0.56888726  0.86474030  0.64762996  1
  B  B33  1  0.76924871  0.09837377  0.90580658  1
  B  B34  1  0.22326567  0.87003719  0.06675508  1
  B  B35  1  0.74837713  0.82241962  0.90898268  1
  N  N36  1  0.22342846  0.20210501  0.38010505  1
  N  N37  1  0.12219099  0.06991292  0.12427907  1
  N  N38  1  0.87809621  0.18817553  0.87571698  1
  N  N39  1  0.78354791  0.08664635  0.57917670  1
  N  N40  1  0.55595573  0.20577928  0.35582441  1
  N  N41  1  0.43771696  0.09986610  0.12385128  1
  N  N42  1  0.22655681  0.19830701  0.88115915  1
  N  N43  1  0.11424396  0.09230490  0.63644279  1
  N  N44  1  0.89441941  0.20555813  0.37615328  1
  N  N45  1  0.77669114  0.09128542  0.06791139  1
  N  N46  1  0.57755042  0.20014348  0.86834193  1
  N  N47  1  0.44515126  0.09506209  0.63635212  1
  N  N48  1  0.21911703  0.54337081  0.38336097  1
  N  N49  1  0.10742416  0.43125507  0.13164932  1
  N  N50  1  0.89925984  0.51198766  0.87376220  1
  N  N51  1  0.77669518  0.42491357  0.63007649  1
  N  N52  1  0.55486119  0.54142689  0.38240549  1
  N  N53  1  0.44078021  0.43444260  0.13363642  1
  N  N54  1  0.22333611  0.53398066  0.88380868  1
  N  N55  1  0.11666474  0.42345297  0.62993603  1
  N  N56  1  0.89203267  0.53253863  0.38325916  1
  N  N57  1  0.77670185  0.43029301  0.13009260  1
  N  N58  1  0.55843451  0.53659907  0.88476146  1
  N  N59  1  0.44237301  0.43289796  0.63344548  1
  N  N60  1  0.22162896  0.87123719  0.38853941  1
  N  N61  1  0.12779513  0.77188936  0.11968194  1
  N  N62  1  0.85578572  0.89324660  0.85130035  1
  N  N63  1  0.78015168  0.76533028  0.58060938  1
  N  N64  1  0.56320448  0.86363372  0.32246480  1
  N  N65  1  0.41580717  0.77177321  0.12105142  1
  N  N66  1  0.22320825  0.87183359  0.90499373  1
  N  N67  1  0.11130963  0.76276014  0.64802057  1
  N  N68  1  0.88555430  0.87101075  0.31811050  1
  N  N69  1  0.77221558  0.77512217  0.05585982  1
  N  N70  1  0.58417001  0.86421589  0.84737322  1
  N  N71  1  0.44248893  0.76055813  0.64362522  1
