# generated using pymatgen
data_Al11BN12
_symmetry_space_group_name_H-M   'P 1'
_cell_length_a   9.29944667
_cell_length_b   9.28145026
_cell_length_c   10.03810554
_cell_angle_alpha   89.89580932
_cell_angle_beta   89.89013641
_cell_angle_gamma   59.98531439
_symmetry_Int_Tables_number   1
_chemical_formula_structural   Al11BN12
_chemical_formula_sum   'Al33 B3 N36'
_cell_volume   750.22242213
_cell_formula_units_Z   3
loop_
 _symmetry_equiv_pos_site_id
 _symmetry_equiv_pos_as_xyz
  1  'x, y, z'
loop_
 _atom_site_type_symbol
 _atom_site_label
 _atom_site_symmetry_multiplicity
 _atom_site_fract_x
 _atom_site_fract_y
 _atom_site_fract_z
 _atom_site_occupancy
  Al  Al0  1  0.10585020  0.10145359  0.38805916  1
  Al  Al1  1  0.22284517  0.19930670  0.13849757  1
  Al  Al2  1  0.88730794  0.20195551  0.64322761  1
  Al  Al3  1  0.44651111  0.09175753  0.38694786  1
  Al  Al4  1  0.56070761  0.19880781  0.13208707  1
  Al  Al5  1  0.10749240  0.09199021  0.89305082  1
  Al  Al6  1  0.22148204  0.20620701  0.63929346  1
  Al  Al7  1  0.77994312  0.09015495  0.38463288  1
  Al  Al8  1  0.89257779  0.19794225  0.13261352  1
  Al  Al9  1  0.45520287  0.09008652  0.88850526  1
  Al  Al10  1  0.56482411  0.19621622  0.63863603  1
  Al  Al11  1  0.10702349  0.42778481  0.38622865  1
  Al  Al12  1  0.22668493  0.54360057  0.06828058  1
  Al  Al13  1  0.78388992  0.42345869  0.88718810  1
  Al  Al14  1  0.88739451  0.54418635  0.64187740  1
  Al  Al15  1  0.44230294  0.43261359  0.31863598  1
  Al  Al16  1  0.54768064  0.54456264  0.06879321  1
  Al  Al17  1  0.10463665  0.42847338  0.88855606  1
  Al  Al18  1  0.22243278  0.54536472  0.57194725  1
  Al  Al19  1  0.78120519  0.42647232  0.38709224  1
  Al  Al20  1  0.88773875  0.54052944  0.13338721  1
  Al  Al21  1  0.44849990  0.42618328  0.82350741  1
  Al  Al22  1  0.55001203  0.54404112  0.57637843  1
  Al  Al23  1  0.11626146  0.76488445  0.30903062  1
  Al  Al24  1  0.87912352  0.87687557  0.64757096  1
  Al  Al25  1  0.43462634  0.76375666  0.31260130  1
  Al  Al26  1  0.55477396  0.87485298  0.12605585  1
  Al  Al27  1  0.10994541  0.76140110  0.83235130  1
  Al  Al28  1  0.22293776  0.86865610  0.57331480  1
  Al  Al29  1  0.77770263  0.76362318  0.38293152  1
  Al  Al30  1  0.88809014  0.87564457  0.11529010  1
  Al  Al31  1  0.44799975  0.75857336  0.83073174  1
  Al  Al32  1  0.56425473  0.87219741  0.64280206  1
  B  B33  1  0.77097967  0.09145402  0.89353909  1
  B  B34  1  0.22633506  0.86637549  0.05963661  1
  B  B35  1  0.77174782  0.77111270  0.89430625  1
  N  N36  1  0.22320743  0.20522815  0.32818053  1
  N  N37  1  0.12140568  0.07356757  0.08373243  1
  N  N38  1  0.88016807  0.18770024  0.83455415  1
  N  N39  1  0.78141755  0.09049317  0.57336167  1
  N  N40  1  0.55996725  0.19862178  0.32555496  1
  N  N41  1  0.44252098  0.09706924  0.07467012  1
  N  N42  1  0.22373929  0.20167923  0.82937438  1
  N  N43  1  0.10613229  0.10157140  0.58174442  1
  N  N44  1  0.88652698  0.20527922  0.32336190  1
  N  N45  1  0.77543425  0.09705483  0.05372033  1
  N  N46  1  0.58463103  0.18755540  0.83434400  1
  N  N47  1  0.44599079  0.09286928  0.57939298  1
  N  N48  1  0.22147027  0.54667426  0.37746779  1
  N  N49  1  0.10964611  0.42410246  0.08088821  1
  N  N50  1  0.87819097  0.56324919  0.83288771  1
  N  N51  1  0.78313774  0.42525710  0.58377952  1
  N  N52  1  0.54922412  0.54533852  0.37880167  1
  N  N53  1  0.44349870  0.43112517  0.12761992  1
  N  N54  1  0.22718578  0.53648091  0.87899393  1
  N  N55  1  0.10750022  0.42735445  0.58011166  1
  N  N56  1  0.88677201  0.54149107  0.32364806  1
  N  N57  1  0.78409564  0.42315815  0.07893693  1
  N  N58  1  0.55458734  0.53795318  0.87890898  1
  N  N59  1  0.44273184  0.42906117  0.63202897  1
  N  N60  1  0.22228685  0.86935457  0.38346488  1
  N  N61  1  0.12770105  0.77355852  0.11530910  1
  N  N62  1  0.86437042  0.88321297  0.84488035  1
  N  N63  1  0.77926501  0.76283546  0.57276919  1
  N  N64  1  0.55848471  0.87273446  0.31938121  1
  N  N65  1  0.41693108  0.77407620  0.11769110  1
  N  N66  1  0.22999690  0.86052189  0.89796981  1
  N  N67  1  0.11175928  0.76289424  0.64072800  1
  N  N68  1  0.88328051  0.87453146  0.31104646  1
  N  N69  1  0.77717452  0.76026804  0.05478218  1
  N  N70  1  0.58454765  0.86125302  0.83815358  1
  N  N71  1  0.44003124  0.76401105  0.63923433  1
