# generated using pymatgen
data_Al11BN12
_symmetry_space_group_name_H-M   'P 1'
_cell_length_a   9.30363598
_cell_length_b   9.28424271
_cell_length_c   9.99941141
_cell_angle_alpha   89.88965641
_cell_angle_beta   89.77054248
_cell_angle_gamma   59.95022780
_symmetry_Int_Tables_number   1
_chemical_formula_structural   Al11BN12
_chemical_formula_sum   'Al33 B3 N36'
_cell_volume   747.62315859
_cell_formula_units_Z   3
loop_
 _symmetry_equiv_pos_site_id
 _symmetry_equiv_pos_as_xyz
  1  'x, y, z'
loop_
 _atom_site_type_symbol
 _atom_site_label
 _atom_site_symmetry_multiplicity
 _atom_site_fract_x
 _atom_site_fract_y
 _atom_site_fract_z
 _atom_site_occupancy
  Al  Al0  1  0.10462741  0.10247378  0.38606661  1
  Al  Al1  1  0.22360283  0.19829254  0.13725476  1
  Al  Al2  1  0.88540516  0.20333526  0.64136283  1
  Al  Al3  1  0.44543461  0.09439562  0.38749212  1
  Al  Al4  1  0.55850094  0.20268044  0.13395966  1
  Al  Al5  1  0.10553603  0.09341562  0.88932131  1
  Al  Al6  1  0.22108386  0.20647905  0.63865995  1
  Al  Al7  1  0.78083186  0.08983534  0.38342117  1
  Al  Al8  1  0.89265175  0.19758183  0.13022009  1
  Al  Al9  1  0.45461369  0.08964388  0.88781429  1
  Al  Al10  1  0.56054520  0.20350797  0.63950787  1
  Al  Al11  1  0.10547876  0.42875446  0.38384720  1
  Al  Al12  1  0.22366988  0.54437484  0.06842152  1
  Al  Al13  1  0.77865396  0.42645555  0.88731395  1
  Al  Al14  1  0.88497635  0.54538167  0.64017497  1
  Al  Al15  1  0.45007428  0.42501428  0.38517412  1
  Al  Al16  1  0.55267632  0.54114549  0.13563294  1
  Al  Al17  1  0.10421737  0.42857768  0.88579142  1
  Al  Al18  1  0.21602619  0.54857461  0.57311043  1
  Al  Al19  1  0.77728583  0.42848679  0.38691323  1
  Al  Al20  1  0.88670522  0.54093423  0.13144018  1
  Al  Al21  1  0.45953663  0.41681614  0.88658265  1
  Al  Al22  1  0.55531227  0.54001964  0.63941140  1
  Al  Al23  1  0.11872369  0.76436706  0.30495534  1
  Al  Al24  1  0.87572451  0.87930985  0.64703098  1
  Al  Al25  1  0.44722450  0.76245540  0.37696306  1
  Al  Al26  1  0.55209469  0.87346040  0.12959428  1
  Al  Al27  1  0.10973752  0.75924903  0.82887962  1
  Al  Al28  1  0.21795617  0.87111467  0.57238461  1
  Al  Al29  1  0.77968019  0.76421900  0.38262499  1
  Al  Al30  1  0.88750104  0.87582989  0.11307303  1
  Al  Al31  1  0.45549330  0.75572013  0.88720132  1
  Al  Al32  1  0.56058915  0.87064338  0.64212093  1
  B  B33  1  0.77170787  0.09109038  0.89277423  1
  B  B34  1  0.22418457  0.86734106  0.05328209  1
  B  B35  1  0.77159960  0.77033160  0.89339025  1
  N  N36  1  0.22280560  0.20562565  0.32758842  1
  N  N37  1  0.12230665  0.07251877  0.08120732  1
  N  N38  1  0.87817631  0.18916070  0.83387109  1
  N  N39  1  0.77930036  0.09199146  0.57291232  1
  N  N40  1  0.55781526  0.20374074  0.32450886  1
  N  N41  1  0.44402475  0.09595636  0.07568124  1
  N  N42  1  0.22324430  0.20162571  0.82901946  1
  N  N43  1  0.10448039  0.10321438  0.58136944  1
  N  N44  1  0.88588166  0.20642274  0.32192921  1
  N  N45  1  0.77527930  0.09670773  0.05322496  1
  N  N46  1  0.58282207  0.18971248  0.83255026  1
  N  N47  1  0.44570437  0.09457079  0.58077738  1
  N  N48  1  0.21778168  0.54801184  0.37188156  1
  N  N49  1  0.10902226  0.42369323  0.07961670  1
  N  N50  1  0.87702724  0.56364760  0.83249271  1
  N  N51  1  0.77837340  0.42773737  0.57994278  1
  N  N52  1  0.55632783  0.53939773  0.32548111  1
  N  N53  1  0.45311603  0.42240448  0.07857297  1
  N  N54  1  0.22659835  0.53512530  0.87195736  1
  N  N55  1  0.10537461  0.42771202  0.57944661  1
  N  N56  1  0.88507918  0.54220661  0.32264797  1
  N  N57  1  0.77902075  0.42583799  0.07603964  1
  N  N58  1  0.55963982  0.53576644  0.82834349  1
  N  N59  1  0.44946870  0.42498573  0.58015149  1
  N  N60  1  0.21805617  0.87212946  0.37945869  1
  N  N61  1  0.12968710  0.77319752  0.11181419  1
  N  N62  1  0.86287794  0.88331949  0.84426640  1
  N  N63  1  0.77849403  0.76419859  0.57271676  1
  N  N64  1  0.55748752  0.87372485  0.32087525  1
  N  N65  1  0.42723850  0.76957673  0.08119001  1
  N  N66  1  0.22324018  0.86365148  0.88904820  1
  N  N67  1  0.10904813  0.76470624  0.63857494  1
  N  N68  1  0.88370463  0.87504211  0.30879348  1
  N  N69  1  0.77587346  0.76080105  0.05444668  1
  N  N70  1  0.58167275  0.85995358  0.83617255  1
  N  N71  1  0.44832148  0.76236031  0.58732238  1
