# generated using pymatgen
data_Al11BN12
_symmetry_space_group_name_H-M   'P 1'
_cell_length_a   9.29974392
_cell_length_b   9.28310165
_cell_length_c   9.94708966
_cell_angle_alpha   89.70689299
_cell_angle_beta   89.66675257
_cell_angle_gamma   60.01638599
_symmetry_Int_Tables_number   1
_chemical_formula_structural   Al11BN12
_chemical_formula_sum   'Al33 B3 N36'
_cell_volume   743.79574069
_cell_formula_units_Z   3
loop_
 _symmetry_equiv_pos_site_id
 _symmetry_equiv_pos_as_xyz
  1  'x, y, z'
loop_
 _atom_site_type_symbol
 _atom_site_label
 _atom_site_symmetry_multiplicity
 _atom_site_fract_x
 _atom_site_fract_y
 _atom_site_fract_z
 _atom_site_occupancy
  Al  Al0  1  0.10788350  0.09615800  0.40187129  1
  Al  Al1  1  0.22452288  0.19692097  0.14740459  1
  Al  Al2  1  0.88549782  0.20330582  0.65276480  1
  Al  Al3  1  0.44538995  0.09215761  0.39739299  1
  Al  Al4  1  0.55912636  0.20172940  0.14471803  1
  Al  Al5  1  0.11079473  0.08724017  0.89232292  1
  Al  Al6  1  0.22086799  0.20756597  0.64977733  1
  Al  Al7  1  0.78160705  0.08932811  0.39354330  1
  Al  Al8  1  0.89161448  0.19749525  0.13926672  1
  Al  Al9  1  0.45432925  0.09064670  0.89766298  1
  Al  Al10  1  0.56045814  0.20325699  0.64960024  1
  Al  Al11  1  0.10841004  0.42745035  0.39038742  1
  Al  Al12  1  0.22628846  0.54032853  0.10775384  1
  Al  Al13  1  0.77729003  0.42870884  0.89704232  1
  Al  Al14  1  0.88568764  0.54543366  0.64939706  1
  Al  Al15  1  0.44761424  0.42531581  0.39194878  1
  Al  Al16  1  0.55130038  0.54264288  0.14829642  1
  Al  Al17  1  0.10497811  0.43275647  0.89881439  1
  Al  Al18  1  0.21956200  0.54113019  0.60896517  1
  Al  Al19  1  0.77921753  0.42591874  0.39645498  1
  Al  Al20  1  0.88566064  0.54108122  0.14235391  1
  Al  Al21  1  0.45644247  0.42037345  0.89915922  1
  Al  Al22  1  0.55760836  0.53828717  0.64891140  1
  Al  Al23  1  0.11698087  0.76604839  0.32481802  1
  Al  Al24  1  0.87411695  0.87918801  0.65539271  1
  Al  Al25  1  0.44717310  0.76039984  0.40192992  1
  Al  Al26  1  0.54993104  0.87361630  0.14194462  1
  Al  Al27  1  0.10921060  0.76279493  0.83699619  1
  Al  Al28  1  0.22254824  0.87385549  0.62241600  1
  Al  Al29  1  0.77904127  0.76281133  0.39252126  1
  Al  Al30  1  0.88635796  0.87673690  0.12351064  1
  Al  Al31  1  0.44608954  0.76163982  0.89269265  1
  Al  Al32  1  0.56190862  0.86952282  0.65281969  1
  B  B33  1  0.77119193  0.09288876  0.90294557  1
  B  B34  1  0.22377909  0.87198380  0.10387962  1
  B  B35  1  0.77029007  0.77004909  0.90349681  1
  N  N36  1  0.22266611  0.20241117  0.33757127  1
  N  N37  1  0.12705132  0.06314181  0.08876937  1
  N  N38  1  0.87781831  0.19083127  0.84655711  1
  N  N39  1  0.77854880  0.09320095  0.58357580  1
  N  N40  1  0.55895335  0.20156443  0.33544772  1
  N  N41  1  0.44430047  0.09520917  0.08662525  1
  N  N42  1  0.22217205  0.20663260  0.84130353  1
  N  N43  1  0.10383651  0.10561495  0.59354328  1
  N  N44  1  0.88929134  0.20360667  0.33122699  1
  N  N45  1  0.77459845  0.09708345  0.06406944  1
  N  N46  1  0.58158105  0.19249450  0.84338578  1
  N  N47  1  0.44553028  0.09395353  0.59204996  1
  N  N48  1  0.22296043  0.53782422  0.34673883  1
  N  N49  1  0.10837958  0.42304536  0.09054110  1
  N  N50  1  0.87719404  0.56551973  0.84293700  1
  N  N51  1  0.78007982  0.42623462  0.59061170  1
  N  N52  1  0.55697925  0.53984700  0.33770676  1
  N  N53  1  0.45429456  0.42222215  0.08993896  1
  N  N54  1  0.22697811  0.53765665  0.87502239  1
  N  N55  1  0.10697073  0.42760370  0.58594919  1
  N  N56  1  0.88586020  0.54105041  0.33340389  1
  N  N57  1  0.77735373  0.42713977  0.08676678  1
  N  N58  1  0.55789893  0.53840581  0.83900546  1
  N  N59  1  0.44791482  0.42564632  0.58760595  1
  N  N60  1  0.22101476  0.87021620  0.38947471  1
  N  N61  1  0.12942720  0.77878508  0.11965105  1
  N  N62  1  0.86249764  0.88620515  0.85470228  1
  N  N63  1  0.77750453  0.76390337  0.58266254  1
  N  N64  1  0.55648404  0.87059232  0.33261836  1
  N  N65  1  0.41558732  0.77525164  0.08887909  1
  N  N66  1  0.23039187  0.87396377  0.82899084  1
  N  N67  1  0.10213429  0.76185036  0.63954467  1
  N  N68  1  0.88367386  0.87407466  0.31933585  1
  N  N69  1  0.77421947  0.76103850  0.06562566  1
  N  N70  1  0.58098815  0.86004749  0.84741793  1
  N  N71  1  0.45511982  0.75816882  0.59338601  1
