# generated using pymatgen
data_Al11BN12
_symmetry_space_group_name_H-M   'P 1'
_cell_length_a   9.26396348
_cell_length_b   9.30502886
_cell_length_c   10.02040935
_cell_angle_alpha   90.15421255
_cell_angle_beta   89.78034309
_cell_angle_gamma   60.18193431
_symmetry_Int_Tables_number   1
_chemical_formula_structural   Al11BN12
_chemical_formula_sum   'Al33 B3 N36'
_cell_volume   749.40163460
_cell_formula_units_Z   3
loop_
 _symmetry_equiv_pos_site_id
 _symmetry_equiv_pos_as_xyz
  1  'x, y, z'
loop_
 _atom_site_type_symbol
 _atom_site_label
 _atom_site_symmetry_multiplicity
 _atom_site_fract_x
 _atom_site_fract_y
 _atom_site_fract_z
 _atom_site_occupancy
  Al  Al0  1  0.11254531  0.08817656  0.30897654  1
  Al  Al1  1  0.22391839  0.20041759  0.06085984  1
  Al  Al2  1  0.88892012  0.20366760  0.56764000  1
  Al  Al3  1  0.44567386  0.09397823  0.31005034  1
  Al  Al4  1  0.56156377  0.20508396  0.05668601  1
  Al  Al5  1  0.10966587  0.08924780  0.81641155  1
  Al  Al6  1  0.22085377  0.20534657  0.56257903  1
  Al  Al7  1  0.77717855  0.09584940  0.30890000  1
  Al  Al8  1  0.89011849  0.19846593  0.05602413  1
  Al  Al9  1  0.45798628  0.08746530  0.81106316  1
  Al  Al10  1  0.55434658  0.20688121  0.56635838  1
  Al  Al11  1  0.11162236  0.42672837  0.31206261  1
  Al  Al12  1  0.22829133  0.53794801  0.06264858  1
  Al  Al13  1  0.77401381  0.43502712  0.81105485  1
  Al  Al14  1  0.89048636  0.53566828  0.56440342  1
  Al  Al15  1  0.44666002  0.42516800  0.31395242  1
  Al  Al16  1  0.55163403  0.54236330  0.06249035  1
  Al  Al17  1  0.10849297  0.43064645  0.81258959  1
  Al  Al18  1  0.21635647  0.54645037  0.56486864  1
  Al  Al19  1  0.77942378  0.42485979  0.31161813  1
  Al  Al20  1  0.89294202  0.53215763  0.06003047  1
  Al  Al21  1  0.44699929  0.42979352  0.80924211  1
  Al  Al22  1  0.55334924  0.54258245  0.56100310  1
  Al  Al23  1  0.12106678  0.75840042  0.30553597  1
  Al  Al24  1  0.87490332  0.86948689  0.66113366  1
  Al  Al25  1  0.43963495  0.76361572  0.30714445  1
  Al  Al26  1  0.54659144  0.87648227  0.06020092  1
  Al  Al27  1  0.11287935  0.75641311  0.83322158  1
  Al  Al28  1  0.21708414  0.87178413  0.56604425  1
  Al  Al29  1  0.78347534  0.76408674  0.37876557  1
  Al  Al30  1  0.89342272  0.87124906  0.11046565  1
  Al  Al31  1  0.44868130  0.76277263  0.81770016  1
  Al  Al32  1  0.54703248  0.87568674  0.56193660  1
  B  B33  1  0.75212253  0.14414885  0.80200640  1
  B  B34  1  0.22504719  0.86978822  0.05723279  1
  B  B35  1  0.78098342  0.76489404  0.89995705  1
  N  N36  1  0.22178492  0.20350027  0.37006641  1
  N  N37  1  0.12141432  0.07070587  0.11309802  1
  N  N38  1  0.87140689  0.19912312  0.86312076  1
  N  N39  1  0.76906690  0.10791028  0.65057199  1
  N  N40  1  0.55874159  0.20261483  0.37667281  1
  N  N41  1  0.44641405  0.09723768  0.11860828  1
  N  N42  1  0.22487399  0.20308641  0.87091884  1
  N  N43  1  0.11089038  0.09321145  0.62652644  1
  N  N44  1  0.88950137  0.20167435  0.37600004  1
  N  N45  1  0.77476817  0.10144404  0.12035212  1
  N  N46  1  0.57953724  0.20101740  0.86347121  1
  N  N47  1  0.44322597  0.09542848  0.62267475  1
  N  N48  1  0.22203276  0.54020785  0.37234520  1
  N  N49  1  0.11348166  0.42639356  0.12203456  1
  N  N50  1  0.88301470  0.54810955  0.87020283  1
  N  N51  1  0.77547481  0.42880692  0.62205125  1
  N  N52  1  0.55497024  0.54127457  0.36958858  1
  N  N53  1  0.44813931  0.42419625  0.12344746  1
  N  N54  1  0.23008682  0.52938211  0.87518445  1
  N  N55  1  0.11142685  0.42763476  0.62262264  1
  N  N56  1  0.89190188  0.53164425  0.37095075  1
  N  N57  1  0.77976706  0.42385375  0.12025545  1
  N  N58  1  0.55449971  0.54114213  0.87337193  1
  N  N59  1  0.44186445  0.43106149  0.62034160  1
  N  N60  1  0.22157034  0.87138664  0.37674372  1
  N  N61  1  0.13351801  0.76897980  0.10918829  1
  N  N62  1  0.87984492  0.84481034  0.84867123  1
  N  N63  1  0.77803266  0.76760139  0.57134661  1
  N  N64  1  0.54934884  0.87403888  0.36651367  1
  N  N65  1  0.42059957  0.77395795  0.11423898  1
  N  N66  1  0.22451926  0.87270269  0.89399962  1
  N  N67  1  0.10959085  0.76397980  0.63670720  1
  N  N68  1  0.89173093  0.86532603  0.31027836  1
  N  N69  1  0.77933980  0.76173274  0.06342076  1
  N  N70  1  0.57596114  0.86368161  0.86959605  1
  N  N71  1  0.44045952  0.76311395  0.62671771  1
