# generated using pymatgen
data_Al11BN12
_symmetry_space_group_name_H-M   'P 1'
_cell_length_a   9.27132721
_cell_length_b   9.26539075
_cell_length_c   10.09247139
_cell_angle_alpha   90.02084500
_cell_angle_beta   89.68865025
_cell_angle_gamma   60.05106432
_symmetry_Int_Tables_number   1
_chemical_formula_structural   Al11BN12
_chemical_formula_sum   'Al33 B3 N36'
_cell_volume   751.18671161
_cell_formula_units_Z   3
loop_
 _symmetry_equiv_pos_site_id
 _symmetry_equiv_pos_as_xyz
  1  'x, y, z'
loop_
 _atom_site_type_symbol
 _atom_site_label
 _atom_site_symmetry_multiplicity
 _atom_site_fract_x
 _atom_site_fract_y
 _atom_site_fract_z
 _atom_site_occupancy
  Al  Al0  1  0.11423928  0.08892175  0.31834569  1
  Al  Al1  1  0.22317937  0.20090931  0.07085935  1
  Al  Al2  1  0.89328755  0.20557144  0.57504693  1
  Al  Al3  1  0.44398720  0.09435680  0.32031461  1
  Al  Al4  1  0.54974127  0.20872170  0.07082145  1
  Al  Al5  1  0.11019834  0.08892421  0.82787947  1
  Al  Al6  1  0.22201426  0.20438067  0.57251333  1
  Al  Al7  1  0.78326803  0.08504237  0.39054933  1
  Al  Al8  1  0.89709750  0.20042570  0.06801159  1
  Al  Al9  1  0.45628570  0.08948022  0.82165909  1
  Al  Al10  1  0.54895054  0.20947662  0.57260604  1
  Al  Al11  1  0.11116757  0.42740538  0.32240918  1
  Al  Al12  1  0.22601101  0.54072447  0.07176043  1
  Al  Al13  1  0.77777681  0.42579486  0.82186924  1
  Al  Al14  1  0.89140006  0.53436373  0.57592560  1
  Al  Al15  1  0.44461816  0.42789322  0.32290869  1
  Al  Al16  1  0.55220130  0.54160471  0.07136381  1
  Al  Al17  1  0.10940304  0.43062991  0.82176771  1
  Al  Al18  1  0.21659840  0.54622133  0.57615744  1
  Al  Al19  1  0.77921753  0.42692279  0.31950962  1
  Al  Al20  1  0.89296669  0.53494811  0.06509236  1
  Al  Al21  1  0.45198460  0.42293338  0.82133746  1
  Al  Al22  1  0.55471162  0.54058967  0.57198548  1
  Al  Al23  1  0.12070558  0.76001514  0.31601642  1
  Al  Al24  1  0.87120821  0.88114701  0.66076755  1
  Al  Al25  1  0.43962715  0.76330842  0.31873294  1
  Al  Al26  1  0.54550341  0.87636224  0.07134430  1
  Al  Al27  1  0.11126148  0.76261026  0.84119011  1
  Al  Al28  1  0.21753271  0.87140967  0.57760120  1
  Al  Al29  1  0.78276465  0.76368526  0.39101616  1
  Al  Al30  1  0.89109275  0.87482152  0.13028761  1
  Al  Al31  1  0.45102361  0.75984071  0.82803870  1
  Al  Al32  1  0.54802015  0.87466863  0.57323499  1
  B  B33  1  0.77360397  0.08851058  0.90877241  1
  B  B34  1  0.22546398  0.87020070  0.06893323  1
  B  B35  1  0.77054852  0.78124835  0.90995444  1
  N  N36  1  0.22180879  0.20394148  0.38154465  1
  N  N37  1  0.12455996  0.06880688  0.12576991  1
  N  N38  1  0.88066417  0.19248632  0.87759070  1
  N  N39  1  0.78036727  0.08764297  0.58205155  1
  N  N40  1  0.54990561  0.20789382  0.38031334  1
  N  N41  1  0.44322170  0.09560690  0.13218348  1
  N  N42  1  0.22484600  0.20345662  0.88226461  1
  N  N43  1  0.11269348  0.09283529  0.63809926  1
  N  N44  1  0.89405214  0.20630511  0.37877262  1
  N  N45  1  0.77945490  0.08851233  0.06928097  1
  N  N46  1  0.57430364  0.19681604  0.87985123  1
  N  N47  1  0.44343106  0.09494410  0.63403420  1
  N  N48  1  0.21963150  0.54287739  0.38398093  1
  N  N49  1  0.11201483  0.42811491  0.13248214  1
  N  N50  1  0.88326751  0.55203879  0.87668112  1
  N  N51  1  0.77631007  0.42727200  0.63338552  1
  N  N52  1  0.55538017  0.54071485  0.38101715  1
  N  N53  1  0.44590009  0.42713196  0.13435823  1
  N  N54  1  0.22717468  0.53387915  0.88506946  1
  N  N55  1  0.11263277  0.42662689  0.63305579  1
  N  N56  1  0.89201500  0.53243904  0.38189207  1
  N  N57  1  0.77951877  0.42678876  0.12962208  1
  N  N58  1  0.55727784  0.53764030  0.88402439  1
  N  N59  1  0.44218797  0.43036821  0.63266073  1
  N  N60  1  0.22087271  0.87171649  0.38881114  1
  N  N61  1  0.13159622  0.77066128  0.12168062  1
  N  N62  1  0.85979917  0.88725229  0.85476566  1
  N  N63  1  0.77936664  0.76559297  0.58278615  1
  N  N64  1  0.54935323  0.87370028  0.37853728  1
  N  N65  1  0.42155141  0.77260450  0.12611444  1
  N  N66  1  0.22768854  0.87107747  0.90594172  1
  N  N67  1  0.10878929  0.76370519  0.64923250  1
  N  N68  1  0.88620598  0.87236783  0.31833646  1
  N  N69  1  0.78058563  0.76691614  0.06882298  1
  N  N70  1  0.57474717  0.86506181  0.88131533  1
  N  N71  1  0.44116814  0.76213619  0.63823242  1
