# generated using pymatgen
data_Al11BN12
_symmetry_space_group_name_H-M   'P 1'
_cell_length_a   9.29250641
_cell_length_b   9.27924150
_cell_length_c   9.94505133
_cell_angle_alpha   89.70140677
_cell_angle_beta   89.67788143
_cell_angle_gamma   60.03363955
_symmetry_Int_Tables_number   1
_chemical_formula_structural   Al11BN12
_chemical_formula_sum   'Al33 B3 N36'
_cell_volume   742.88499757
_cell_formula_units_Z   3
loop_
 _symmetry_equiv_pos_site_id
 _symmetry_equiv_pos_as_xyz
  1  'x, y, z'
loop_
 _atom_site_type_symbol
 _atom_site_label
 _atom_site_symmetry_multiplicity
 _atom_site_fract_x
 _atom_site_fract_y
 _atom_site_fract_z
 _atom_site_occupancy
  Al  Al0  1  0.10785643  0.09668155  0.40171193  1
  Al  Al1  1  0.22443469  0.19707886  0.14701209  1
  Al  Al2  1  0.88551813  0.20324513  0.65262610  1
  Al  Al3  1  0.44531716  0.09234696  0.39724767  1
  Al  Al4  1  0.55886650  0.20215865  0.14419287  1
  Al  Al5  1  0.11084736  0.08739905  0.89224286  1
  Al  Al6  1  0.22068826  0.20770967  0.64936948  1
  Al  Al7  1  0.78096563  0.09004353  0.39344632  1
  Al  Al8  1  0.89171109  0.19734959  0.13923574  1
  Al  Al9  1  0.45432458  0.09060406  0.89745048  1
  Al  Al10  1  0.56046201  0.20345828  0.64920504  1
  Al  Al11  1  0.10960542  0.42893612  0.39214477  1
  Al  Al12  1  0.22799884  0.53655649  0.13133990  1
  Al  Al13  1  0.77731472  0.42869060  0.89679629  1
  Al  Al14  1  0.88620293  0.54538709  0.64895743  1
  Al  Al15  1  0.44506384  0.42682809  0.39350527  1
  Al  Al16  1  0.55094009  0.54260477  0.14768534  1
  Al  Al17  1  0.10614089  0.43304411  0.89856110  1
  Al  Al18  1  0.22246827  0.53611917  0.63908713  1
  Al  Al19  1  0.77924742  0.42595343  0.39617657  1
  Al  Al20  1  0.88605626  0.54114754  0.14194101  1
  Al  Al21  1  0.45472625  0.42093681  0.89850921  1
  Al  Al22  1  0.55748302  0.53817450  0.64848710  1
  Al  Al23  1  0.11557088  0.76762064  0.32722640  1
  Al  Al24  1  0.87463746  0.87901291  0.65469984  1
  Al  Al25  1  0.44746931  0.76024056  0.40181411  1
  Al  Al26  1  0.54989056  0.87360603  0.14186817  1
  Al  Al27  1  0.10786454  0.76512504  0.83820876  1
  Al  Al28  1  0.22223094  0.87349005  0.62194812  1
  Al  Al29  1  0.77895617  0.76279216  0.39255205  1
  Al  Al30  1  0.88680565  0.87641007  0.12285999  1
  Al  Al31  1  0.44636473  0.76149292  0.89264016  1
  Al  Al32  1  0.56185082  0.86953304  0.65275454  1
  B  B33  1  0.77083544  0.09335314  0.90281078  1
  B  B34  1  0.22371507  0.87138099  0.10331449  1
  B  B35  1  0.77025671  0.76997167  0.90342909  1
  N  N36  1  0.22229815  0.20352379  0.33740582  1
  N  N37  1  0.12698005  0.06309443  0.08872019  1
  N  N38  1  0.87782207  0.19074725  0.84646956  1
  N  N39  1  0.77827812  0.09348763  0.58335879  1
  N  N40  1  0.55816687  0.20271237  0.33517492  1
  N  N41  1  0.44426899  0.09522236  0.08651709  1
  N  N42  1  0.22207974  0.20646795  0.84121924  1
  N  N43  1  0.10386519  0.10561738  0.59329631  1
  N  N44  1  0.88929238  0.20364922  0.33108057  1
  N  N45  1  0.77438166  0.09731590  0.06405752  1
  N  N46  1  0.58166754  0.19252955  0.84327947  1
  N  N47  1  0.44554301  0.09389960  0.59192240  1
  N  N48  1  0.22395461  0.53610930  0.33203710  1
  N  N49  1  0.10970330  0.42448453  0.08862602  1
  N  N50  1  0.87749673  0.56540930  0.84294682  1
  N  N51  1  0.78023492  0.42624411  0.59040763  1
  N  N52  1  0.55648220  0.53960887  0.33742954  1
  N  N53  1  0.45144155  0.42362882  0.08767043  1
  N  N54  1  0.22944370  0.53244962  0.85077724  1
  N  N55  1  0.10860997  0.42878114  0.58568240  1
  N  N56  1  0.88673922  0.54087294  0.33328972  1
  N  N57  1  0.77747592  0.42702281  0.08673069  1
  N  N58  1  0.55771171  0.53828120  0.83893124  1
  N  N59  1  0.44611833  0.42651498  0.58700016  1
  N  N60  1  0.22135349  0.87058219  0.38885706  1
  N  N61  1  0.12958080  0.77756885  0.11707674  1
  N  N62  1  0.86233216  0.88608152  0.85485377  1
  N  N63  1  0.77724020  0.76398929  0.58255290  1
  N  N64  1  0.55648554  0.87071883  0.33251485  1
  N  N65  1  0.41569041  0.77517883  0.08879942  1
  N  N66  1  0.23059723  0.87396666  0.82914538  1
  N  N67  1  0.10149526  0.76284028  0.63747309  1
  N  N68  1  0.88339807  0.87445370  0.31923449  1
  N  N69  1  0.77404272  0.76105238  0.06562905  1
  N  N70  1  0.58102458  0.86001396  0.84736656  1
  N  N71  1  0.45504205  0.75820054  0.59322394  1
