# generated using pymatgen
data_Al11BN12
_symmetry_space_group_name_H-M   'P 1'
_cell_length_a   9.28959371
_cell_length_b   9.27315668
_cell_length_c   10.02560030
_cell_angle_alpha   89.82266224
_cell_angle_beta   89.69860572
_cell_angle_gamma   60.01495192
_symmetry_Int_Tables_number   1
_chemical_formula_structural   Al11BN12
_chemical_formula_sum   'Al33 B3 N36'
_cell_volume   748.03975221
_cell_formula_units_Z   3
loop_
 _symmetry_equiv_pos_site_id
 _symmetry_equiv_pos_as_xyz
  1  'x, y, z'
loop_
 _atom_site_type_symbol
 _atom_site_label
 _atom_site_symmetry_multiplicity
 _atom_site_fract_x
 _atom_site_fract_y
 _atom_site_fract_z
 _atom_site_occupancy
  Al  Al0  1  0.10597274  0.10138632  0.38591479  1
  Al  Al1  1  0.22316472  0.19836725  0.13711082  1
  Al  Al2  1  0.88542303  0.20332306  0.64142141  1
  Al  Al3  1  0.44595927  0.09383021  0.38757579  1
  Al  Al4  1  0.55812060  0.20294443  0.13372934  1
  Al  Al5  1  0.10455272  0.09456406  0.88861519  1
  Al  Al6  1  0.22132952  0.20672821  0.63882117  1
  Al  Al7  1  0.78167536  0.08917725  0.38312767  1
  Al  Al8  1  0.89180350  0.19827961  0.12970688  1
  Al  Al9  1  0.45427984  0.08907514  0.88836887  1
  Al  Al10  1  0.56055185  0.20306062  0.63984367  1
  Al  Al11  1  0.10615137  0.42849894  0.38306337  1
  Al  Al12  1  0.22341565  0.54466715  0.06821375  1
  Al  Al13  1  0.77688365  0.42784283  0.88746659  1
  Al  Al14  1  0.88574379  0.54486817  0.64011313  1
  Al  Al15  1  0.45098316  0.42416022  0.38522565  1
  Al  Al16  1  0.55089135  0.54328315  0.13843988  1
  Al  Al17  1  0.10370127  0.42904205  0.88624795  1
  Al  Al18  1  0.21620934  0.54851570  0.57183957  1
  Al  Al19  1  0.77880954  0.42731989  0.38675152  1
  Al  Al20  1  0.88573157  0.54145580  0.13124915  1
  Al  Al21  1  0.45929428  0.41774669  0.88687464  1
  Al  Al22  1  0.55606673  0.53899938  0.63866252  1
  Al  Al23  1  0.12069458  0.76461720  0.30366426  1
  Al  Al24  1  0.87583527  0.87904851  0.64724263  1
  Al  Al25  1  0.45091242  0.76016705  0.38733791  1
  Al  Al26  1  0.55057654  0.87311045  0.13271985  1
  Al  Al27  1  0.10939003  0.75936678  0.82905230  1
  Al  Al28  1  0.21677778  0.87126879  0.57250375  1
  Al  Al29  1  0.78122736  0.76367558  0.38258792  1
  Al  Al30  1  0.88674483  0.87593510  0.11284052  1
  Al  Al31  1  0.45540869  0.75583400  0.88961149  1
  Al  Al32  1  0.56120436  0.86996912  0.64171509  1
  B  B33  1  0.77083513  0.09165738  0.89261255  1
  B  B34  1  0.22306148  0.86848110  0.05222911  1
  B  B35  1  0.77042464  0.77045717  0.89297915  1
  N  N36  1  0.22345829  0.20534333  0.32702951  1
  N  N37  1  0.12146236  0.07324269  0.07997366  1
  N  N38  1  0.87685459  0.19046148  0.83357785  1
  N  N39  1  0.77955939  0.09162923  0.57260893  1
  N  N40  1  0.55856913  0.20314301  0.32400699  1
  N  N41  1  0.44399533  0.09510651  0.07611884  1
  N  N42  1  0.22288724  0.20256473  0.82875893  1
  N  N43  1  0.10487121  0.10299362  0.58158768  1
  N  N44  1  0.88713961  0.20563157  0.32130053  1
  N  N45  1  0.77479382  0.09687536  0.05269803  1
  N  N46  1  0.58194159  0.19028047  0.83275469  1
  N  N47  1  0.44589038  0.09393239  0.58059559  1
  N  N48  1  0.21853750  0.54811201  0.37128412  1
  N  N49  1  0.10833417  0.42389386  0.07946692  1
  N  N50  1  0.87653133  0.56412001  0.83228164  1
  N  N51  1  0.77925511  0.42716665  0.57947843  1
  N  N52  1  0.55703805  0.53967533  0.32745205  1
  N  N53  1  0.45307260  0.42327800  0.07890359  1
  N  N54  1  0.22634964  0.53557755  0.87275028  1
  N  N55  1  0.10575558  0.42738349  0.57843298  1
  N  N56  1  0.88578265  0.54192582  0.32208222  1
  N  N57  1  0.77692428  0.42713418  0.07604668  1
  N  N58  1  0.55827258  0.53759474  0.82674173  1
  N  N59  1  0.44970138  0.42428627  0.57973509  1
  N  N60  1  0.21999239  0.87113680  0.38034795  1
  N  N61  1  0.12927174  0.77385806  0.11081434  1
  N  N62  1  0.86199465  0.88369036  0.84392220  1
  N  N63  1  0.77940218  0.76353135  0.57242921  1
  N  N64  1  0.55805559  0.87233510  0.32313352  1
  N  N65  1  0.42646529  0.77006231  0.08025556  1
  N  N66  1  0.22273899  0.86478180  0.88770583  1
  N  N67  1  0.10947006  0.76369117  0.63921781  1
  N  N68  1  0.88496095  0.87464768  0.30808237  1
  N  N69  1  0.77400498  0.76143274  0.05427967  1
  N  N70  1  0.58055766  0.85979229  0.83489821  1
  N  N71  1  0.45033716  0.76070696  0.58289406  1
