# generated using pymatgen
data_Al11BN12
_symmetry_space_group_name_H-M   'P 1'
_cell_length_a   9.30674488
_cell_length_b   9.30717966
_cell_length_c   10.02541299
_cell_angle_alpha   89.90633108
_cell_angle_beta   89.90004932
_cell_angle_gamma   59.94403035
_symmetry_Int_Tables_number   1
_chemical_formula_structural   Al11BN12
_chemical_formula_sum   'Al33 B3 N36'
_cell_volume   751.62768508
_cell_formula_units_Z   3
loop_
 _symmetry_equiv_pos_site_id
 _symmetry_equiv_pos_as_xyz
  1  'x, y, z'
loop_
 _atom_site_type_symbol
 _atom_site_label
 _atom_site_symmetry_multiplicity
 _atom_site_fract_x
 _atom_site_fract_y
 _atom_site_fract_z
 _atom_site_occupancy
  Al  Al0  1  0.10489302  0.10251053  0.38800815  1
  Al  Al1  1  0.22269184  0.19954622  0.13817317  1
  Al  Al2  1  0.88726057  0.20175770  0.64239219  1
  Al  Al3  1  0.44637398  0.09232055  0.38691540  1
  Al  Al4  1  0.56115310  0.19694269  0.13057708  1
  Al  Al5  1  0.10662384  0.09260986  0.89247922  1
  Al  Al6  1  0.22140708  0.20632737  0.63891246  1
  Al  Al7  1  0.78019938  0.09037469  0.38425062  1
  Al  Al8  1  0.89303522  0.19736334  0.13257386  1
  Al  Al9  1  0.45506313  0.08976979  0.88835278  1
  Al  Al10  1  0.56462562  0.19587031  0.63815772  1
  Al  Al11  1  0.10634175  0.42785158  0.38608553  1
  Al  Al12  1  0.22550252  0.54449462  0.06673626  1
  Al  Al13  1  0.78102569  0.42465903  0.88911059  1
  Al  Al14  1  0.88748375  0.54457387  0.64103345  1
  Al  Al15  1  0.44017602  0.43008993  0.31694141  1
  Al  Al16  1  0.55561014  0.54123662  0.11883693  1
  Al  Al17  1  0.10357636  0.42847350  0.88802334  1
  Al  Al18  1  0.22331700  0.54519917  0.57145669  1
  Al  Al19  1  0.77441114  0.43027763  0.38704814  1
  Al  Al20  1  0.88824663  0.54048792  0.13342547  1
  Al  Al21  1  0.44653666  0.42147146  0.82938571  1
  Al  Al22  1  0.55941273  0.53858498  0.64013641  1
  Al  Al23  1  0.11643230  0.76480981  0.30886587  1
  Al  Al24  1  0.87928317  0.87683180  0.64708338  1
  Al  Al25  1  0.43212077  0.76990635  0.31252601  1
  Al  Al26  1  0.55492114  0.87554078  0.12491921  1
  Al  Al27  1  0.10962338  0.76156714  0.83132232  1
  Al  Al28  1  0.22347185  0.86841042  0.57300607  1
  Al  Al29  1  0.77789078  0.76346677  0.38268297  1
  Al  Al30  1  0.88871115  0.87531186  0.11519868  1
  Al  Al31  1  0.44679149  0.76312877  0.83709064  1
  Al  Al32  1  0.56386704  0.87300836  0.64259384  1
  B  B33  1  0.77155792  0.09082786  0.89343406  1
  B  B34  1  0.22649600  0.86669008  0.05838920  1
  B  B35  1  0.77215992  0.77103932  0.89429963  1
  N  N36  1  0.22311083  0.20538251  0.32813696  1
  N  N37  1  0.12098435  0.07436956  0.08331694  1
  N  N38  1  0.87996540  0.18788390  0.83419893  1
  N  N39  1  0.78148351  0.09024868  0.57325156  1
  N  N40  1  0.56006727  0.19815956  0.32479219  1
  N  N41  1  0.44225766  0.09665392  0.07435022  1
  N  N42  1  0.22379404  0.20160269  0.82921791  1
  N  N43  1  0.10570308  0.10208386  0.58149115  1
  N  N44  1  0.88598252  0.20622980  0.32361737  1
  N  N45  1  0.77637728  0.09620340  0.05364946  1
  N  N46  1  0.58515895  0.18568900  0.83463884  1
  N  N47  1  0.44594402  0.09303092  0.57924733  1
  N  N48  1  0.22143732  0.54669154  0.37691827  1
  N  N49  1  0.10931489  0.42397520  0.08049038  1
  N  N50  1  0.87787461  0.56290024  0.83255667  1
  N  N51  1  0.77898059  0.42754314  0.58103823  1
  N  N52  1  0.55787496  0.54177423  0.32651105  1
  N  N53  1  0.44212380  0.42632037  0.11968054  1
  N  N54  1  0.22467286  0.53763920  0.87802559  1
  N  N55  1  0.10731417  0.42744614  0.57983204  1
  N  N56  1  0.88646965  0.54140659  0.32397903  1
  N  N57  1  0.78340531  0.42343219  0.07660053  1
  N  N58  1  0.56139725  0.53433568  0.84348641  1
  N  N59  1  0.44153824  0.42628681  0.63080996  1
  N  N60  1  0.22163743  0.86995893  0.38323436  1
  N  N61  1  0.12843666  0.77329776  0.11528548  1
  N  N62  1  0.86468768  0.88294683  0.84468857  1
  N  N63  1  0.77921714  0.76313416  0.57278446  1
  N  N64  1  0.55840600  0.87434453  0.31905176  1
  N  N65  1  0.41570010  0.77778681  0.11272515  1
  N  N66  1  0.22800084  0.86129816  0.89757723  1
  N  N67  1  0.11201722  0.76282362  0.63978708  1
  N  N68  1  0.88340874  0.87457128  0.31110618  1
  N  N69  1  0.77784849  0.75998774  0.05489663  1
  N  N70  1  0.58518761  0.86176890  0.83877384  1
  N  N71  1  0.43796133  0.76920328  0.63888862  1
