# generated using pymatgen
data_Al11BN12
_symmetry_space_group_name_H-M   'P 1'
_cell_length_a   9.25980897
_cell_length_b   9.25939478
_cell_length_c   9.89631936
_cell_angle_alpha   90.00328331
_cell_angle_beta   90.11580545
_cell_angle_gamma   59.98662694
_symmetry_Int_Tables_number   1
_chemical_formula_structural   Al11BN12
_chemical_formula_sum   'Al33 B3 N36'
_cell_volume   734.73253531
_cell_formula_units_Z   3
loop_
 _symmetry_equiv_pos_site_id
 _symmetry_equiv_pos_as_xyz
  1  'x, y, z'
loop_
 _atom_site_type_symbol
 _atom_site_label
 _atom_site_symmetry_multiplicity
 _atom_site_fract_x
 _atom_site_fract_y
 _atom_site_fract_z
 _atom_site_occupancy
  Al  Al0  1  0.11105434  0.09213084  0.40063182  1
  Al  Al1  1  0.22369078  0.20059952  0.15772944  1
  Al  Al2  1  0.88911520  0.20055834  0.66182071  1
  Al  Al3  1  0.44641140  0.09332949  0.40857462  1
  Al  Al4  1  0.55750352  0.20438361  0.15327566  1
  Al  Al5  1  0.11091162  0.08670752  0.91276700  1
  Al  Al6  1  0.22124005  0.20459109  0.65782735  1
  Al  Al7  1  0.77901183  0.09212764  0.40607672  1
  Al  Al8  1  0.89096484  0.19914572  0.15116083  1
  Al  Al9  1  0.45503141  0.08895500  0.90812794  1
  Al  Al10  1  0.56254218  0.20167339  0.66216312  1
  Al  Al11  1  0.11001176  0.42859761  0.40754141  1
  Al  Al12  1  0.22412457  0.54291087  0.15809787  1
  Al  Al13  1  0.77627357  0.42873306  0.90743225  1
  Al  Al14  1  0.88700695  0.54469763  0.66222120  1
  Al  Al15  1  0.44586089  0.42576458  0.40848184  1
  Al  Al16  1  0.55103696  0.54221657  0.15886811  1
  Al  Al17  1  0.10773592  0.43365820  0.90855174  1
  Al  Al18  1  0.22184076  0.54052203  0.65736914  1
  Al  Al19  1  0.77985704  0.42637309  0.40761537  1
  Al  Al20  1  0.88734619  0.54161021  0.15216650  1
  Al  Al21  1  0.45042596  0.42403632  0.90811532  1
  Al  Al22  1  0.55576791  0.54001035  0.65726509  1
  Al  Al23  1  0.10926468  0.76403417  0.40009022  1
  Al  Al24  1  0.88609838  0.87378260  0.66617930  1
  Al  Al25  1  0.44304730  0.76289414  0.40118462  1
  Al  Al26  1  0.55179113  0.87309403  0.15301550  1
  Al  Al27  1  0.10873690  0.76664518  0.91162865  1
  Al  Al28  1  0.22258737  0.87202237  0.65561968  1
  Al  Al29  1  0.77861366  0.76241816  0.40579991  1
  Al  Al30  1  0.89017564  0.87461905  0.14407851  1
  Al  Al31  1  0.44450655  0.76167187  0.91255017  1
  Al  Al32  1  0.56107950  0.86836136  0.66182301  1
  B  B33  1  0.77263385  0.09255942  0.91455000  1
  B  B34  1  0.22222427  0.87191269  0.16104627  1
  B  B35  1  0.77214554  0.76639632  0.91471000  1
  N  N36  1  0.22316126  0.20533257  0.34936963  1
  N  N37  1  0.12412429  0.06859066  0.10605143  1
  N  N38  1  0.87963866  0.19035116  0.85725963  1
  N  N39  1  0.78004224  0.09132239  0.59625788  1
  N  N40  1  0.55729557  0.20415803  0.34573769  1
  N  N41  1  0.44410987  0.09518203  0.09732743  1
  N  N42  1  0.22093431  0.20455428  0.85128819  1
  N  N43  1  0.11027096  0.09349868  0.59462383  1
  N  N44  1  0.88718042  0.20472028  0.34346494  1
  N  N45  1  0.77558303  0.09551340  0.07661583  1
  N  N46  1  0.58169657  0.19237919  0.85597480  1
  N  N47  1  0.44669676  0.09306322  0.60329458  1
  N  N48  1  0.22296530  0.53857579  0.34935998  1
  N  N49  1  0.11212532  0.42796089  0.09938254  1
  N  N50  1  0.87689989  0.56534582  0.85613198  1
  N  N51  1  0.78127544  0.42579056  0.60262371  1
  N  N52  1  0.55648654  0.53783490  0.34993181  1
  N  N53  1  0.44509911  0.42753887  0.09830644  1
  N  N54  1  0.22343626  0.54056230  0.85000808  1
  N  N55  1  0.10962333  0.42861560  0.60063775  1
  N  N56  1  0.88774163  0.54073888  0.34491886  1
  N  N57  1  0.77699448  0.42763562  0.09788651  1
  N  N58  1  0.55494245  0.54105805  0.84893590  1
  N  N59  1  0.44631445  0.42499056  0.60115652  1
  N  N60  1  0.22249829  0.87168512  0.32761184  1
  N  N61  1  0.12457023  0.77351093  0.10458067  1
  N  N62  1  0.86933525  0.88214488  0.86356310  1
  N  N63  1  0.77920489  0.76282034  0.59630866  1
  N  N64  1  0.55732944  0.87210552  0.34454231  1
  N  N65  1  0.41976277  0.77307702  0.10585808  1
  N  N66  1  0.22487752  0.87063271  0.84471986  1
  N  N67  1  0.10823459  0.76381303  0.59568314  1
  N  N68  1  0.88660377  0.87330205  0.33748240  1
  N  N69  1  0.77548452  0.76228757  0.07774619  1
  N  N70  1  0.57995593  0.85807679  0.85774329  1
  N  N71  1  0.44465660  0.76287323  0.59509843  1
