# generated using pymatgen
data_Al11BN12
_symmetry_space_group_name_H-M   'P 1'
_cell_length_a   9.29968297
_cell_length_b   9.28405763
_cell_length_c   10.06292966
_cell_angle_alpha   90.08998745
_cell_angle_beta   90.04967164
_cell_angle_gamma   59.92766359
_symmetry_Int_Tables_number   1
_chemical_formula_structural   Al11BN12
_chemical_formula_sum   'Al33 B3 N36'
_cell_volume   751.87125094
_cell_formula_units_Z   3
loop_
 _symmetry_equiv_pos_site_id
 _symmetry_equiv_pos_as_xyz
  1  'x, y, z'
loop_
 _atom_site_type_symbol
 _atom_site_label
 _atom_site_symmetry_multiplicity
 _atom_site_fract_x
 _atom_site_fract_y
 _atom_site_fract_z
 _atom_site_occupancy
  Al  Al0  1  0.11280309  0.08888567  0.31681795  1
  Al  Al1  1  0.21451625  0.20498869  0.06940257  1
  Al  Al2  1  0.89412926  0.20578187  0.57240505  1
  Al  Al3  1  0.44935705  0.08937408  0.37170590  1
  Al  Al4  1  0.55797844  0.20305044  0.13303887  1
  Al  Al5  1  0.10733854  0.09098055  0.82480575  1
  Al  Al6  1  0.22300071  0.20371975  0.57456363  1
  Al  Al7  1  0.77875742  0.08692938  0.38938124  1
  Al  Al8  1  0.89328688  0.20095353  0.06422798  1
  Al  Al9  1  0.45639845  0.09078683  0.88639302  1
  Al  Al10  1  0.56697017  0.19666772  0.64607145  1
  Al  Al11  1  0.11039961  0.42828741  0.32121657  1
  Al  Al12  1  0.22343554  0.54212832  0.07063866  1
  Al  Al13  1  0.77727584  0.42785901  0.82055014  1
  Al  Al14  1  0.89224422  0.53370921  0.57212547  1
  Al  Al15  1  0.44210495  0.43305640  0.32297189  1
  Al  Al16  1  0.55070477  0.54271424  0.07101357  1
  Al  Al17  1  0.10641891  0.43385011  0.81916233  1
  Al  Al18  1  0.22132911  0.54222818  0.57545128  1
  Al  Al19  1  0.77937893  0.42662432  0.31909214  1
  Al  Al20  1  0.88949060  0.53787164  0.06386464  1
  Al  Al21  1  0.44766760  0.42998832  0.82620268  1
  Al  Al22  1  0.55473206  0.54100975  0.57381523  1
  Al  Al23  1  0.11787685  0.76122129  0.31482712  1
  Al  Al24  1  0.87955337  0.87646686  0.65388151  1
  Al  Al25  1  0.43641035  0.75996233  0.31628844  1
  Al  Al26  1  0.55214581  0.87414917  0.12651103  1
  Al  Al27  1  0.10891336  0.76438029  0.83933754  1
  Al  Al28  1  0.22243293  0.87037142  0.57682689  1
  Al  Al29  1  0.77634846  0.76630550  0.38802355  1
  Al  Al30  1  0.88770132  0.87637708  0.12435416  1
  Al  Al31  1  0.44505705  0.75921908  0.83536594  1
  Al  Al32  1  0.56601209  0.86895923  0.65045865  1
  B  B33  1  0.76810885  0.09141876  0.90117815  1
  B  B34  1  0.22298621  0.87044479  0.06703886  1
  B  B35  1  0.76936726  0.77564751  0.90217890  1
  N  N36  1  0.21941751  0.20464205  0.37888272  1
  N  N37  1  0.12062243  0.07027926  0.12486875  1
  N  N38  1  0.87977515  0.19509034  0.87432838  1
  N  N39  1  0.78030874  0.08754913  0.57816711  1
  N  N40  1  0.56155442  0.19939683  0.32549553  1
  N  N41  1  0.44412188  0.09672420  0.08045839  1
  N  N42  1  0.21420540  0.20972457  0.87865249  1
  N  N43  1  0.11322274  0.09210867  0.63556252  1
  N  N44  1  0.89322116  0.20570423  0.37778360  1
  N  N45  1  0.77021929  0.09287307  0.06033116  1
  N  N46  1  0.58453359  0.19194428  0.84103282  1
  N  N47  1  0.45024152  0.09056665  0.59882597  1
  N  N48  1  0.22036780  0.54197949  0.38326306  1
  N  N49  1  0.10885439  0.43090412  0.13149134  1
  N  N50  1  0.88039591  0.55768300  0.87398700  1
  N  N51  1  0.77776829  0.42745586  0.63191374  1
  N  N52  1  0.55596328  0.54056894  0.38239856  1
  N  N53  1  0.44093916  0.43504695  0.13178211  1
  N  N54  1  0.22434538  0.53592094  0.88400031  1
  N  N55  1  0.11275418  0.42736793  0.63083722  1
  N  N56  1  0.89142235  0.53332549  0.37995944  1
  N  N57  1  0.77823910  0.42753426  0.12861416  1
  N  N58  1  0.55867266  0.53725993  0.88538563  1
  N  N59  1  0.44400668  0.43027257  0.63416951  1
  N  N60  1  0.22186828  0.87117112  0.38751446  1
  N  N61  1  0.12695703  0.77280893  0.11961958  1
  N  N62  1  0.86298829  0.88500015  0.84957486  1
  N  N63  1  0.77765327  0.76651368  0.57826645  1
  N  N64  1  0.56075643  0.86793148  0.31903839  1
  N  N65  1  0.41554288  0.77257796  0.12159741  1
  N  N66  1  0.22303847  0.87381431  0.90492284  1
  N  N67  1  0.11321529  0.76154971  0.64550441  1
  N  N68  1  0.88509938  0.87234719  0.31635237  1
  N  N69  1  0.77218194  0.77093426  0.06122815  1
  N  N70  1  0.58410651  0.85897358  0.84511918  1
  N  N71  1  0.44161864  0.76015133  0.64210623  1
