# generated using pymatgen
data_Al11BN12
_symmetry_space_group_name_H-M   'P 1'
_cell_length_a   9.30669898
_cell_length_b   9.29536833
_cell_length_c   10.01919924
_cell_angle_alpha   89.89393981
_cell_angle_beta   89.86697117
_cell_angle_gamma   59.97344758
_symmetry_Int_Tables_number   1
_chemical_formula_structural   Al11BN12
_chemical_formula_sum   'Al33 B3 N36'
_cell_volume   750.42681633
_cell_formula_units_Z   3
loop_
 _symmetry_equiv_pos_site_id
 _symmetry_equiv_pos_as_xyz
  1  'x, y, z'
loop_
 _atom_site_type_symbol
 _atom_site_label
 _atom_site_symmetry_multiplicity
 _atom_site_fract_x
 _atom_site_fract_y
 _atom_site_fract_z
 _atom_site_occupancy
  Al  Al0  1  0.10563893  0.10171443  0.38774594  1
  Al  Al1  1  0.22270410  0.19941626  0.13836171  1
  Al  Al2  1  0.88792735  0.20107206  0.64301095  1
  Al  Al3  1  0.44648371  0.09200137  0.38657408  1
  Al  Al4  1  0.56085978  0.19791193  0.13147760  1
  Al  Al5  1  0.10696557  0.09241150  0.89277165  1
  Al  Al6  1  0.22145669  0.20626769  0.63903621  1
  Al  Al7  1  0.77984322  0.09047176  0.38424571  1
  Al  Al8  1  0.89265777  0.19782898  0.13290534  1
  Al  Al9  1  0.45504299  0.09000858  0.88849450  1
  Al  Al10  1  0.56499767  0.19563562  0.63876780  1
  Al  Al11  1  0.10688432  0.42780565  0.38588566  1
  Al  Al12  1  0.22556658  0.54402893  0.06788804  1
  Al  Al13  1  0.78398252  0.42333329  0.88740460  1
  Al  Al14  1  0.88808089  0.54449374  0.64165324  1
  Al  Al15  1  0.44229532  0.43230339  0.31699835  1
  Al  Al16  1  0.54924586  0.54379048  0.07494688  1
  Al  Al17  1  0.10409943  0.42848675  0.88834911  1
  Al  Al18  1  0.22280090  0.54536723  0.57133539  1
  Al  Al19  1  0.77785238  0.42829371  0.38664274  1
  Al  Al20  1  0.88775631  0.54045051  0.13373950  1
  Al  Al21  1  0.44754709  0.42422109  0.82686368  1
  Al  Al22  1  0.55351286  0.54208715  0.59757332  1
  Al  Al23  1  0.11654529  0.76480001  0.30913954  1
  Al  Al24  1  0.87932216  0.87678922  0.64717568  1
  Al  Al25  1  0.43455308  0.76454527  0.31176933  1
  Al  Al26  1  0.55483836  0.87525884  0.12569106  1
  Al  Al27  1  0.10970469  0.76149564  0.83195697  1
  Al  Al28  1  0.22317545  0.86849436  0.57280500  1
  Al  Al29  1  0.77754960  0.76355460  0.38260156  1
  Al  Al30  1  0.88838489  0.87548799  0.11538844  1
  Al  Al31  1  0.44726511  0.76090760  0.83413526  1
  Al  Al32  1  0.56436114  0.87275383  0.64300164  1
  B  B33  1  0.77126713  0.09102988  0.89367003  1
  B  B34  1  0.22595261  0.86698268  0.05899750  1
  B  B35  1  0.77195950  0.77120871  0.89447020  1
  N  N36  1  0.22318135  0.20530692  0.32825876  1
  N  N37  1  0.12112459  0.07394466  0.08366030  1
  N  N38  1  0.88004477  0.18768377  0.83437660  1
  N  N39  1  0.78140299  0.09045047  0.57338279  1
  N  N40  1  0.55988234  0.19857710  0.32510400  1
  N  N41  1  0.44228867  0.09692833  0.07458442  1
  N  N42  1  0.22371871  0.20168518  0.82937404  1
  N  N43  1  0.10633418  0.10146735  0.58175335  1
  N  N44  1  0.88650207  0.20559152  0.32382321  1
  N  N45  1  0.77587318  0.09664293  0.05380579  1
  N  N46  1  0.58492568  0.18664297  0.83466999  1
  N  N47  1  0.44601967  0.09293018  0.57943120  1
  N  N48  1  0.22170339  0.54636048  0.37689663  1
  N  N49  1  0.10931315  0.42403034  0.08086579  1
  N  N50  1  0.87807283  0.56321815  0.83272241  1
  N  N51  1  0.78306888  0.42534137  0.58416043  1
  N  N52  1  0.55187342  0.54417765  0.36367905  1
  N  N53  1  0.44280245  0.42910954  0.12389621  1
  N  N54  1  0.22562219  0.53712763  0.87854380  1
  N  N55  1  0.10779752  0.42733085  0.58008332  1
  N  N56  1  0.88680390  0.54136202  0.32416050  1
  N  N57  1  0.78475887  0.42272788  0.07814776  1
  N  N58  1  0.55569867  0.53739292  0.87384676  1
  N  N59  1  0.44205479  0.42784934  0.63328823  1
  N  N60  1  0.22235077  0.86967047  0.38303016  1
  N  N61  1  0.12793583  0.77351909  0.11518087  1
  N  N62  1  0.86451587  0.88309228  0.84476936  1
  N  N63  1  0.77920713  0.76293183  0.57284239  1
  N  N64  1  0.55830355  0.87345852  0.31910770  1
  N  N65  1  0.41639070  0.77577390  0.11504341  1
  N  N66  1  0.22855501  0.86132627  0.89755894  1
  N  N67  1  0.11197521  0.76280584  0.64007454  1
  N  N68  1  0.88345282  0.87449027  0.31126039  1
  N  N69  1  0.77747799  0.76012240  0.05494016  1
  N  N70  1  0.58490209  0.86159873  0.83854987  1
  N  N71  1  0.43901941  0.76636396  0.64071398  1
