# generated using pymatgen
data_Al11BN12
_symmetry_space_group_name_H-M   'P 1'
_cell_length_a   9.31468396
_cell_length_b   9.30017658
_cell_length_c   10.00077751
_cell_angle_alpha   89.97247797
_cell_angle_beta   89.93407274
_cell_angle_gamma   59.89234542
_symmetry_Int_Tables_number   1
_chemical_formula_structural   Al11BN12
_chemical_formula_sum   'Al33 B3 N36'
_cell_volume   749.46486948
_cell_formula_units_Z   3
loop_
 _symmetry_equiv_pos_site_id
 _symmetry_equiv_pos_as_xyz
  1  'x, y, z'
loop_
 _atom_site_type_symbol
 _atom_site_label
 _atom_site_symmetry_multiplicity
 _atom_site_fract_x
 _atom_site_fract_y
 _atom_site_fract_z
 _atom_site_occupancy
  Al  Al0  1  0.10418678  0.10264106  0.38801949  1
  Al  Al1  1  0.22331852  0.19882198  0.13785480  1
  Al  Al2  1  0.88621510  0.20259553  0.64184899  1
  Al  Al3  1  0.44573758  0.09303003  0.38694627  1
  Al  Al4  1  0.55975824  0.20052036  0.13178206  1
  Al  Al5  1  0.10725252  0.09176791  0.89186756  1
  Al  Al6  1  0.22119500  0.20634284  0.63868483  1
  Al  Al7  1  0.77962880  0.09062909  0.38418587  1
  Al  Al8  1  0.89326466  0.19712683  0.13169814  1
  Al  Al9  1  0.45499141  0.08952804  0.88764721  1
  Al  Al10  1  0.56093701  0.20307998  0.63982402  1
  Al  Al11  1  0.10482477  0.42808902  0.38486719  1
  Al  Al12  1  0.22280984  0.54560386  0.06933422  1
  Al  Al13  1  0.78116870  0.42540362  0.88846378  1
  Al  Al14  1  0.88579711  0.54506488  0.64059117  1
  Al  Al15  1  0.44733910  0.42665666  0.37118232  1
  Al  Al16  1  0.55619357  0.53768965  0.12779047  1
  Al  Al17  1  0.10439554  0.42845495  0.88669739  1
  Al  Al18  1  0.21850123  0.54740451  0.57296142  1
  Al  Al19  1  0.77444774  0.43046120  0.38705413  1
  Al  Al20  1  0.88802841  0.54040839  0.13266497  1
  Al  Al21  1  0.45762403  0.41653427  0.88430077  1
  Al  Al22  1  0.55689089  0.53571684  0.64175714  1
  Al  Al23  1  0.11550836  0.76539912  0.30812183  1
  Al  Al24  1  0.87772922  0.87847224  0.64701950  1
  Al  Al25  1  0.43066965  0.77133480  0.31223883  1
  Al  Al26  1  0.55510188  0.87514462  0.12424898  1
  Al  Al27  1  0.11070494  0.76052592  0.83043886  1
  Al  Al28  1  0.22348446  0.86866793  0.57322731  1
  Al  Al29  1  0.77767534  0.76391740  0.38262664  1
  Al  Al30  1  0.88835468  0.87551477  0.11453684  1
  Al  Al31  1  0.44766633  0.76173398  0.83558514  1
  Al  Al32  1  0.56325346  0.87349483  0.64176338  1
  B  B33  1  0.77308322  0.08959052  0.89309105  1
  B  B34  1  0.22756483  0.86590245  0.05813523  1
  B  B35  1  0.77248928  0.77033689  0.89411740  1
  N  N36  1  0.22261229  0.20495701  0.32820647  1
  N  N37  1  0.12151361  0.07385327  0.08317071  1
  N  N38  1  0.88053074  0.18747786  0.83426061  1
  N  N39  1  0.77943272  0.09164445  0.57352580  1
  N  N40  1  0.55776350  0.20199992  0.32256822  1
  N  N41  1  0.44294104  0.09683138  0.07452560  1
  N  N42  1  0.22374426  0.20094273  0.82921909  1
  N  N43  1  0.10498649  0.10255614  0.58156147  1
  N  N44  1  0.88535498  0.20641953  0.32335750  1
  N  N45  1  0.77657233  0.09581441  0.05361047  1
  N  N46  1  0.58365361  0.18842515  0.83350767  1
  N  N47  1  0.44584710  0.09458642  0.57987879  1
  N  N48  1  0.21640805  0.54802534  0.37175470  1
  N  N49  1  0.10958650  0.42371108  0.08046826  1
  N  N50  1  0.87780159  0.56322129  0.83262702  1
  N  N51  1  0.77761347  0.42865374  0.58036505  1
  N  N52  1  0.55666474  0.53952862  0.32214331  1
  N  N53  1  0.45158555  0.42167582  0.08112018  1
  N  N54  1  0.22493942  0.53674341  0.87400335  1
  N  N55  1  0.10596631  0.42777169  0.57967179  1
  N  N56  1  0.88478669  0.54185398  0.32348339  1
  N  N57  1  0.78243093  0.42419854  0.07637977  1
  N  N58  1  0.56301766  0.53095683  0.83481981  1
  N  N59  1  0.44841309  0.42499989  0.58553874  1
  N  N60  1  0.22106323  0.86976123  0.38315654  1
  N  N61  1  0.12855143  0.77363108  0.11500788  1
  N  N62  1  0.86472708  0.88352763  0.84465245  1
  N  N63  1  0.77892212  0.76368273  0.57269056  1
  N  N64  1  0.55805275  0.87451586  0.31944142  1
  N  N65  1  0.41659612  0.77640041  0.11310170  1
  N  N66  1  0.22939784  0.85995151  0.89719669  1
  N  N67  1  0.11064084  0.76442664  0.63898711  1
  N  N68  1  0.88228033  0.87545350  0.31064739  1
  N  N69  1  0.77819781  0.75976072  0.05479406  1
  N  N70  1  0.58554891  0.86119682  0.83868364  1
  N  N71  1  0.43809858  0.76898024  0.63776062  1
