# generated using pymatgen
data_Al11BN12
_symmetry_space_group_name_H-M   'P 1'
_cell_length_a   9.26476432
_cell_length_b   9.25973723
_cell_length_c   9.92490365
_cell_angle_alpha   89.79956907
_cell_angle_beta   89.84952458
_cell_angle_gamma   60.04562880
_symmetry_Int_Tables_number   1
_chemical_formula_structural   Al11BN12
_chemical_formula_sum   'Al33 B3 N36'
_cell_volume   737.71155729
_cell_formula_units_Z   3
loop_
 _symmetry_equiv_pos_site_id
 _symmetry_equiv_pos_as_xyz
  1  'x, y, z'
loop_
 _atom_site_type_symbol
 _atom_site_label
 _atom_site_symmetry_multiplicity
 _atom_site_fract_x
 _atom_site_fract_y
 _atom_site_fract_z
 _atom_site_occupancy
  Al  Al0  1  0.11043702  0.09365378  0.39634936  1
  Al  Al1  1  0.22362326  0.19867469  0.14812303  1
  Al  Al2  1  0.88703779  0.20187923  0.65207260  1
  Al  Al3  1  0.44551327  0.09334976  0.39823149  1
  Al  Al4  1  0.55758452  0.20353710  0.14415481  1
  Al  Al5  1  0.11042491  0.08722307  0.89769987  1
  Al  Al6  1  0.22104235  0.20627261  0.64882496  1
  Al  Al7  1  0.77948466  0.09207939  0.39468696  1
  Al  Al8  1  0.89166781  0.19766889  0.14103290  1
  Al  Al9  1  0.45481754  0.08928994  0.89851140  1
  Al  Al10  1  0.56154545  0.20243403  0.65077432  1
  Al  Al11  1  0.10995960  0.42952416  0.39633096  1
  Al  Al12  1  0.22489999  0.54182616  0.14405025  1
  Al  Al13  1  0.77693496  0.42847235  0.89768601  1
  Al  Al14  1  0.88691023  0.54514342  0.65078284  1
  Al  Al15  1  0.44494471  0.42726740  0.39733349  1
  Al  Al16  1  0.55034422  0.54252234  0.14879771  1
  Al  Al17  1  0.10730494  0.43263501  0.89892335  1
  Al  Al18  1  0.22225696  0.53873099  0.64829946  1
  Al  Al19  1  0.77955573  0.42676145  0.39705047  1
  Al  Al20  1  0.88701022  0.54133839  0.14241863  1
  Al  Al21  1  0.45241226  0.42202722  0.89860677  1
  Al  Al22  1  0.55663700  0.53884159  0.64800190  1
  Al  Al23  1  0.10929652  0.76520869  0.38524233  1
  Al  Al24  1  0.88281567  0.87510215  0.65590598  1
  Al  Al25  1  0.44389267  0.76286323  0.39659085  1
  Al  Al26  1  0.55029691  0.87309421  0.14310621  1
  Al  Al27  1  0.10875488  0.76540553  0.88918542  1
  Al  Al28  1  0.22262721  0.87264409  0.64165985  1
  Al  Al29  1  0.77855816  0.76327745  0.39410229  1
  Al  Al30  1  0.89036008  0.87454216  0.12863751  1
  Al  Al31  1  0.44619327  0.76084710  0.89775433  1
  Al  Al32  1  0.56161786  0.86910340  0.65229392  1
  B  B33  1  0.77122963  0.09400106  0.90386004  1
  B  B34  1  0.22247671  0.87084154  0.12700439  1
  B  B35  1  0.77128444  0.76764354  0.90414221  1
  N  N36  1  0.22228409  0.20599363  0.33903757  1
  N  N37  1  0.12533599  0.06527495  0.09129915  1
  N  N38  1  0.87840865  0.19040403  0.84670488  1
  N  N39  1  0.77917929  0.09211061  0.58489028  1
  N  N40  1  0.55706538  0.20457523  0.33578909  1
  N  N41  1  0.44384769  0.09497678  0.08740007  1
  N  N42  1  0.22171885  0.20492170  0.84142795  1
  N  N43  1  0.10805043  0.09778917  0.58923754  1
  N  N44  1  0.88833879  0.20497999  0.33287799  1
  N  N45  1  0.77463527  0.09640655  0.06543163  1
  N  N46  1  0.58169338  0.19213560  0.84487284  1
  N  N47  1  0.44600361  0.09349878  0.59283541  1
  N  N48  1  0.22272974  0.53935291  0.33562842  1
  N  N49  1  0.11159476  0.42657547  0.08899973  1
  N  N50  1  0.87744141  0.56500078  0.84482447  1
  N  N51  1  0.78096500  0.42617327  0.59169688  1
  N  N52  1  0.55646175  0.53920866  0.33921570  1
  N  N53  1  0.44673489  0.42613354  0.08798432  1
  N  N54  1  0.22654234  0.53567363  0.84058947  1
  N  N55  1  0.10969683  0.42893079  0.58921836  1
  N  N56  1  0.88769606  0.54132800  0.33443222  1
  N  N57  1  0.77727146  0.42704769  0.08778226  1
  N  N58  1  0.55650858  0.53913002  0.83899966  1
  N  N59  1  0.44588719  0.42577943  0.58988650  1
  N  N60  1  0.22374471  0.87349841  0.33814461  1
  N  N61  1  0.12624157  0.77378136  0.08780637  1
  N  N62  1  0.86670253  0.88266692  0.85317856  1
  N  N63  1  0.77830200  0.76354242  0.58452850  1
  N  N64  1  0.55715321  0.87188473  0.33394681  1
  N  N65  1  0.41733952  0.77382451  0.09117035  1
  N  N66  1  0.22694935  0.87120458  0.83149699  1
  N  N67  1  0.10582180  0.76289536  0.59483944  1
  N  N68  1  0.88644797  0.87399583  0.32301040  1
  N  N69  1  0.77443772  0.76173335  0.06677094  1
  N  N70  1  0.58052662  0.85886012  0.84744272  1
  N  N71  1  0.44821297  0.76137834  0.58934901  1
