# generated using pymatgen
data_Al11BN12
_symmetry_space_group_name_H-M   'P 1'
_cell_length_a   9.29238593
_cell_length_b   9.29810687
_cell_length_c   10.08747818
_cell_angle_alpha   90.07185240
_cell_angle_beta   90.07055086
_cell_angle_gamma   59.91364759
_symmetry_Int_Tables_number   1
_chemical_formula_structural   Al11BN12
_chemical_formula_sum   'Al33 B3 N36'
_cell_volume   754.14700113
_cell_formula_units_Z   3
loop_
 _symmetry_equiv_pos_site_id
 _symmetry_equiv_pos_as_xyz
  1  'x, y, z'
loop_
 _atom_site_type_symbol
 _atom_site_label
 _atom_site_symmetry_multiplicity
 _atom_site_fract_x
 _atom_site_fract_y
 _atom_site_fract_z
 _atom_site_occupancy
  Al  Al0  1  0.11336643  0.08858441  0.31732366  1
  Al  Al1  1  0.21726726  0.20360751  0.06876744  1
  Al  Al2  1  0.89592441  0.20553707  0.57187461  1
  Al  Al3  1  0.44102887  0.09397156  0.31780568  1
  Al  Al4  1  0.55910051  0.20653547  0.13166052  1
  Al  Al5  1  0.10744798  0.09054771  0.82540054  1
  Al  Al6  1  0.22885893  0.20078496  0.57313987  1
  Al  Al7  1  0.77863133  0.08692685  0.38970251  1
  Al  Al8  1  0.89341318  0.20133777  0.06451365  1
  Al  Al9  1  0.44925967  0.09438385  0.83832248  1
  Al  Al10  1  0.56963358  0.19982652  0.64446333  1
  Al  Al11  1  0.11072640  0.42773890  0.32168984  1
  Al  Al12  1  0.22240291  0.54228709  0.07093708  1
  Al  Al13  1  0.77764561  0.42692549  0.82056658  1
  Al  Al14  1  0.89381319  0.53212365  0.57221223  1
  Al  Al15  1  0.44217206  0.43333115  0.32404410  1
  Al  Al16  1  0.55020424  0.54302056  0.07111868  1
  Al  Al17  1  0.10675737  0.43277259  0.81956273  1
  Al  Al18  1  0.22074418  0.54250599  0.57548651  1
  Al  Al19  1  0.77957488  0.42665071  0.31926676  1
  Al  Al20  1  0.88932778  0.53775927  0.06278893  1
  Al  Al21  1  0.44739285  0.43074178  0.82671435  1
  Al  Al22  1  0.55526895  0.54081187  0.57339027  1
  Al  Al23  1  0.11761999  0.76120723  0.31465991  1
  Al  Al24  1  0.87979753  0.87638837  0.65447392  1
  Al  Al25  1  0.43687374  0.75917738  0.31711978  1
  Al  Al26  1  0.55324647  0.87004815  0.12418125  1
  Al  Al27  1  0.10851597  0.76408615  0.83997119  1
  Al  Al28  1  0.22218317  0.87042203  0.57702529  1
  Al  Al29  1  0.77616887  0.76617929  0.38841968  1
  Al  Al30  1  0.88707548  0.87707336  0.12515278  1
  Al  Al31  1  0.44524158  0.75889805  0.83624375  1
  Al  Al32  1  0.56877638  0.86372966  0.64925780  1
  B  B33  1  0.76667336  0.09307063  0.90191538  1
  B  B34  1  0.22245311  0.87053128  0.06737180  1
  B  B35  1  0.76686384  0.78097249  0.90312957  1
  N  N36  1  0.22400518  0.20223994  0.38131397  1
  N  N37  1  0.12027088  0.07044402  0.12509825  1
  N  N38  1  0.88000462  0.19490459  0.87493425  1
  N  N39  1  0.78200665  0.08664207  0.57807883  1
  N  N40  1  0.56264225  0.20195839  0.32862570  1
  N  N41  1  0.43653230  0.10003085  0.11906803  1
  N  N42  1  0.21721152  0.20770529  0.88161920  1
  N  N43  1  0.11485381  0.09198908  0.63601095  1
  N  N44  1  0.89408867  0.20566957  0.37822707  1
  N  N45  1  0.77012525  0.09291149  0.06020973  1
  N  N46  1  0.58510117  0.19420279  0.84315505  1
  N  N47  1  0.44459649  0.09429240  0.63919439  1
  N  N48  1  0.21977223  0.54249848  0.38363058  1
  N  N49  1  0.10815897  0.43081426  0.13185544  1
  N  N50  1  0.88194190  0.55371486  0.87416563  1
  N  N51  1  0.77817780  0.42678946  0.63205150  1
  N  N52  1  0.55616862  0.54032974  0.38294796  1
  N  N53  1  0.43985779  0.43669534  0.13242391  1
  N  N54  1  0.22392175  0.53581264  0.88443057  1
  N  N55  1  0.11445972  0.42550303  0.63117432  1
  N  N56  1  0.89226887  0.53245137  0.38096025  1
  N  N57  1  0.77767490  0.42800815  0.12909015  1
  N  N58  1  0.55867180  0.53735879  0.88575106  1
  N  N59  1  0.44379024  0.43141490  0.63422179  1
  N  N60  1  0.22156791  0.87087239  0.38788117  1
  N  N61  1  0.12626694  0.77300505  0.11962172  1
  N  N62  1  0.86150629  0.88555911  0.84954547  1
  N  N63  1  0.77902869  0.76579483  0.57825502  1
  N  N64  1  0.56269250  0.86322905  0.32091497  1
  N  N65  1  0.41475252  0.77214597  0.12170061  1
  N  N66  1  0.22269048  0.87356642  0.90518151  1
  N  N67  1  0.11345853  0.76133021  0.64641555  1
  N  N68  1  0.88452543  0.87264556  0.31639098  1
  N  N69  1  0.77242851  0.77162483  0.06035473  1
  N  N70  1  0.58415987  0.85811003  0.84777166  1
  N  N71  1  0.44199923  0.75930312  0.64229731  1
