# generated using pymatgen
data_Al11BN12
_symmetry_space_group_name_H-M   'P 1'
_cell_length_a   9.26682704
_cell_length_b   9.26447605
_cell_length_c   10.03930492
_cell_angle_alpha   90.01521691
_cell_angle_beta   89.70879096
_cell_angle_gamma   60.13595586
_symmetry_Int_Tables_number   1
_chemical_formula_structural   Al11BN12
_chemical_formula_sum   'Al33 B3 N36'
_cell_volume   747.43198099
_cell_formula_units_Z   3
loop_
 _symmetry_equiv_pos_site_id
 _symmetry_equiv_pos_as_xyz
  1  'x, y, z'
loop_
 _atom_site_type_symbol
 _atom_site_label
 _atom_site_symmetry_multiplicity
 _atom_site_fract_x
 _atom_site_fract_y
 _atom_site_fract_z
 _atom_site_occupancy
  Al  Al0  1  0.11262713  0.08843332  0.30897613  1
  Al  Al1  1  0.22285515  0.20174237  0.06093318  1
  Al  Al2  1  0.88830920  0.20177087  0.56837400  1
  Al  Al3  1  0.44502745  0.09433568  0.31026527  1
  Al  Al4  1  0.56111062  0.20422029  0.05682047  1
  Al  Al5  1  0.10916134  0.08952430  0.81685169  1
  Al  Al6  1  0.22084990  0.20451581  0.56204833  1
  Al  Al7  1  0.77624475  0.09754939  0.31089944  1
  Al  Al8  1  0.89121251  0.19766093  0.05559608  1
  Al  Al9  1  0.45465185  0.08945450  0.81085926  1
  Al  Al10  1  0.55594600  0.20513875  0.56660207  1
  Al  Al11  1  0.11133160  0.42723384  0.31128259  1
  Al  Al12  1  0.22764228  0.53962557  0.06150332  1
  Al  Al13  1  0.77611484  0.43007581  0.81132915  1
  Al  Al14  1  0.89122238  0.53307063  0.56439189  1
  Al  Al15  1  0.44664929  0.42512975  0.31308659  1
  Al  Al16  1  0.55227361  0.54180853  0.06168142  1
  Al  Al17  1  0.10801034  0.43220350  0.81142812  1
  Al  Al18  1  0.21860983  0.54376787  0.56447059  1
  Al  Al19  1  0.77998425  0.42505311  0.31032194  1
  Al  Al20  1  0.89233691  0.53586754  0.05639344  1
  Al  Al21  1  0.44979913  0.42559675  0.80983685  1
  Al  Al22  1  0.55456858  0.54053768  0.56115028  1
  Al  Al23  1  0.12202613  0.75804468  0.30639178  1
  Al  Al24  1  0.87697367  0.86938906  0.65126517  1
  Al  Al25  1  0.44018138  0.76309763  0.30715859  1
  Al  Al26  1  0.54538275  0.87772364  0.06035105  1
  Al  Al27  1  0.11128913  0.76194325  0.83104408  1
  Al  Al28  1  0.21818000  0.87115123  0.56593140  1
  Al  Al29  1  0.78310228  0.76338065  0.37989446  1
  Al  Al30  1  0.89327893  0.87329799  0.11631719  1
  Al  Al31  1  0.45008920  0.76085644  0.81733489  1
  Al  Al32  1  0.54686845  0.87508706  0.56215534  1
  B  B33  1  0.76442794  0.10923611  0.80924907  1
  B  B34  1  0.22507056  0.87094314  0.05773101  1
  B  B35  1  0.77294148  0.77820875  0.89790710  1
  N  N36  1  0.22162530  0.20359585  0.37002632  1
  N  N37  1  0.12218287  0.07053129  0.11388997  1
  N  N38  1  0.87511148  0.19208176  0.86465630  1
  N  N39  1  0.77037492  0.10315833  0.64647054  1
  N  N40  1  0.55785368  0.20274637  0.37678914  1
  N  N41  1  0.44474431  0.09794537  0.11978132  1
  N  N42  1  0.22295062  0.20489028  0.87132746  1
  N  N43  1  0.11101285  0.09250812  0.62679891  1
  N  N44  1  0.89018062  0.20185141  0.37604749  1
  N  N45  1  0.77362823  0.10359077  0.12284165  1
  N  N46  1  0.57885563  0.19598729  0.86492095  1
  N  N47  1  0.44247652  0.09506326  0.62268556  1
  N  N48  1  0.22267298  0.53949092  0.37238976  1
  N  N49  1  0.11187680  0.42892878  0.12134978  1
  N  N50  1  0.88164421  0.55458903  0.86652885  1
  N  N51  1  0.77604603  0.42709294  0.62256310  1
  N  N52  1  0.55585432  0.54019337  0.36950782  1
  N  N53  1  0.44727800  0.42487975  0.12275992  1
  N  N54  1  0.22765182  0.53350942  0.87401774  1
  N  N55  1  0.11186635  0.42693914  0.62217448  1
  N  N56  1  0.89241312  0.53100698  0.37089977  1
  N  N57  1  0.78057403  0.42589275  0.11867215  1
  N  N58  1  0.55621219  0.53880607  0.87335653  1
  N  N59  1  0.44268184  0.42958206  0.62102896  1
  N  N60  1  0.22244126  0.87086013  0.37713034  1
  N  N61  1  0.13241340  0.77068225  0.10983245  1
  N  N62  1  0.86629174  0.87526806  0.84346641  1
  N  N63  1  0.77775683  0.76519770  0.57144454  1
  N  N64  1  0.54972213  0.87351076  0.36682884  1
  N  N65  1  0.42119085  0.77364110  0.11454120  1
  N  N66  1  0.22683144  0.87219702  0.89423392  1
  N  N67  1  0.11070873  0.76198101  0.63573145  1
  N  N68  1  0.89215035  0.86504630  0.31256061  1
  N  N69  1  0.77952810  0.76781950  0.05905428  1
  N  N70  1  0.57453797  0.86525888  0.86960694  1
  N  N71  1  0.44097591  0.76184581  0.62693933  1
