# generated using pymatgen
data_Al11BN12
_symmetry_space_group_name_H-M   'P 1'
_cell_length_a   9.30569273
_cell_length_b   9.29309879
_cell_length_c   10.02123549
_cell_angle_alpha   89.89203350
_cell_angle_beta   89.86678971
_cell_angle_gamma   59.97652625
_symmetry_Int_Tables_number   1
_chemical_formula_structural   Al11BN12
_chemical_formula_sum   'Al33 B3 N36'
_cell_volume   750.33820848
_cell_formula_units_Z   3
loop_
 _symmetry_equiv_pos_site_id
 _symmetry_equiv_pos_as_xyz
  1  'x, y, z'
loop_
 _atom_site_type_symbol
 _atom_site_label
 _atom_site_symmetry_multiplicity
 _atom_site_fract_x
 _atom_site_fract_y
 _atom_site_fract_z
 _atom_site_occupancy
  Al  Al0  1  0.10568921  0.10166054  0.38778587  1
  Al  Al1  1  0.22271670  0.19939922  0.13837838  1
  Al  Al2  1  0.88784349  0.20120052  0.64305806  1
  Al  Al3  1  0.44648819  0.09196535  0.38662091  1
  Al  Al4  1  0.56083833  0.19806025  0.13155606  1
  Al  Al5  1  0.10703834  0.09235403  0.89280931  1
  Al  Al6  1  0.22146504  0.20625831  0.63906712  1
  Al  Al7  1  0.77984470  0.09042341  0.38430492  1
  Al  Al8  1  0.89263441  0.19786213  0.13285662  1
  Al  Al9  1  0.45505493  0.09002702  0.88849335  1
  Al  Al10  1  0.56497174  0.19574340  0.63879181  1
  Al  Al11  1  0.10691999  0.42780230  0.38592839  1
  Al  Al12  1  0.22572694  0.54396094  0.06797775  1
  Al  Al13  1  0.78398735  0.42334522  0.88729710  1
  Al  Al14  1  0.88798754  0.54444123  0.64170262  1
  Al  Al15  1  0.44234039  0.43239675  0.31723109  1
  Al  Al16  1  0.54884078  0.54394464  0.07283429  1
  Al  Al17  1  0.10417785  0.42848780  0.88837926  1
  Al  Al18  1  0.22276958  0.54534025  0.57144544  1
  Al  Al19  1  0.77857569  0.42790177  0.38670588  1
  Al  Al20  1  0.88773668  0.54045685  0.13367856  1
  Al  Al21  1  0.44776225  0.42463085  0.82629344  1
  Al  Al22  1  0.55267283  0.54256926  0.59195448  1
  Al  Al23  1  0.11650442  0.76481844  0.30913522  1
  Al  Al24  1  0.87929871  0.87679824  0.64721451  1
  Al  Al25  1  0.43461213  0.76431632  0.31187677  1
  Al  Al26  1  0.55483799  0.87518024  0.12573120  1
  Al  Al27  1  0.10974632  0.76147672  0.83201059  1
  Al  Al28  1  0.22316286  0.86852403  0.57290240  1
  Al  Al29  1  0.77756112  0.76358137  0.38265270  1
  Al  Al30  1  0.88834910  0.87550578  0.11537943  1
  Al  Al31  1  0.44743545  0.76041042  0.83355121  1
  Al  Al32  1  0.56434680  0.87265051  0.64301126  1
  B  B33  1  0.77122889  0.09108033  0.89366081  1
  B  B34  1  0.22598430  0.86689298  0.05910490  1
  B  B35  1  0.77193432  0.77120312  0.89445743  1
  N  N36  1  0.22318485  0.20529898  0.32824989  1
  N  N37  1  0.12117280  0.07387523  0.08368871  1
  N  N38  1  0.88005472  0.18768246  0.83441966  1
  N  N39  1  0.78139900  0.09046400  0.57338062  1
  N  N40  1  0.55989699  0.19860452  0.32515700  1
  N  N41  1  0.44231375  0.09695722  0.07460875  1
  N  N42  1  0.22371230  0.20169112  0.82938067  1
  N  N43  1  0.10633100  0.10145723  0.58175520  1
  N  N44  1  0.88649760  0.20554690  0.32375726  1
  N  N45  1  0.77581615  0.09669381  0.05380885  1
  N  N46  1  0.58488312  0.18679177  0.83466035  1
  N  N47  1  0.44602866  0.09291540  0.57943257  1
  N  N48  1  0.22169032  0.54639129  0.37695019  1
  N  N49  1  0.10936191  0.42403981  0.08088904  1
  N  N50  1  0.87808619  0.56323392  0.83276375  1
  N  N51  1  0.78323910  0.42524602  0.58421309  1
  N  N52  1  0.55115464  0.54449029  0.36796604  1
  N  N53  1  0.44297832  0.42952173  0.12458827  1
  N  N54  1  0.22586325  0.53702203  0.87862478  1
  N  N55  1  0.10777680  0.42733573  0.58008591  1
  N  N56  1  0.88678199  0.54139427  0.32408569  1
  N  N57  1  0.78464340  0.42279712  0.07837092  1
  N  N58  1  0.55534909  0.53756857  0.87555092  1
  N  N59  1  0.44219538  0.42810001  0.63321678  1
  N  N60  1  0.22236779  0.86962034  0.38307190  1
  N  N61  1  0.12789591  0.77352944  0.11520109  1
  N  N62  1  0.86449951  0.88310792  0.84478357  1
  N  N63  1  0.77920985  0.76291657  0.57283208  1
  N  N64  1  0.55833281  0.87331593  0.31913846  1
  N  N65  1  0.41656141  0.77537271  0.11553637  1
  N  N66  1  0.22877339  0.86121846  0.89762456  1
  N  N67  1  0.11193658  0.76282046  0.64014579  1
  N  N68  1  0.88343749  0.87449390  0.31124333  1
  N  N69  1  0.77744495  0.76014421  0.05493219  1
  N  N70  1  0.58485014  0.86154291  0.83852392  1
  N  N71  1  0.43922935  0.76587101  0.64058408  1
