# generated using pymatgen
data_Al11BN12
_symmetry_space_group_name_H-M   'P 1'
_cell_length_a   9.30421384
_cell_length_b   9.28239479
_cell_length_c   10.09894458
_cell_angle_alpha   89.77147824
_cell_angle_beta   90.02043797
_cell_angle_gamma   59.98143141
_symmetry_Int_Tables_number   1
_chemical_formula_structural   Al11BN12
_chemical_formula_sum   'Al33 B3 N36'
_cell_volume   755.19654093
_cell_formula_units_Z   3
loop_
 _symmetry_equiv_pos_site_id
 _symmetry_equiv_pos_as_xyz
  1  'x, y, z'
loop_
 _atom_site_type_symbol
 _atom_site_label
 _atom_site_symmetry_multiplicity
 _atom_site_fract_x
 _atom_site_fract_y
 _atom_site_fract_z
 _atom_site_occupancy
  Al  Al0  1  0.11293278  0.08657315  0.32859506  1
  Al  Al1  1  0.22671996  0.20207812  0.12825672  1
  Al  Al2  1  0.88890077  0.19300102  0.64844198  1
  Al  Al3  1  0.44576167  0.08998635  0.38975920  1
  Al  Al4  1  0.55971412  0.20153623  0.13632731  1
  Al  Al5  1  0.10856391  0.09141066  0.87369762  1
  Al  Al6  1  0.22817791  0.19664273  0.64561958  1
  Al  Al7  1  0.78146270  0.08806228  0.38695364  1
  Al  Al8  1  0.88671820  0.20164621  0.12062762  1
  Al  Al9  1  0.45775104  0.09134815  0.89104589  1
  Al  Al10  1  0.56481066  0.19579294  0.63956302  1
  Al  Al11  1  0.10802061  0.43309648  0.31850794  1
  Al  Al12  1  0.22481188  0.54405038  0.06881872  1
  Al  Al13  1  0.77290837  0.43583448  0.82505974  1
  Al  Al14  1  0.89435962  0.52668002  0.57087866  1
  Al  Al15  1  0.44271021  0.43036794  0.32363123  1
  Al  Al16  1  0.54749119  0.54659826  0.06952566  1
  Al  Al17  1  0.10514401  0.44034582  0.82109777  1
  Al  Al18  1  0.22038389  0.54153114  0.57279445  1
  Al  Al19  1  0.77498570  0.43188168  0.31524134  1
  Al  Al20  1  0.88760552  0.54380077  0.06000148  1
  Al  Al21  1  0.44805882  0.42879746  0.82243711  1
  Al  Al22  1  0.55626450  0.53893201  0.57273268  1
  Al  Al23  1  0.11691388  0.76038841  0.31177281  1
  Al  Al24  1  0.88041404  0.87213156  0.65028933  1
  Al  Al25  1  0.43701273  0.75961253  0.31648519  1
  Al  Al26  1  0.55242660  0.87711349  0.13137851  1
  Al  Al27  1  0.10989622  0.76359424  0.83454898  1
  Al  Al28  1  0.22085165  0.87139359  0.57570295  1
  Al  Al29  1  0.77722994  0.76427908  0.38645486  1
  Al  Al30  1  0.88710340  0.87950191  0.11980923  1
  Al  Al31  1  0.44624351  0.75994244  0.82988816  1
  Al  Al32  1  0.56705977  0.86769928  0.64445009  1
  B  B33  1  0.76854283  0.09875783  0.89554706  1
  B  B34  1  0.22655692  0.86673748  0.06359360  1
  B  B35  1  0.76661378  0.78422048  0.89850569  1
  N  N36  1  0.22852098  0.19910640  0.32362915  1
  N  N37  1  0.12199007  0.07290904  0.09721255  1
  N  N38  1  0.87412677  0.18832456  0.84413318  1
  N  N39  1  0.78192400  0.08757880  0.57464607  1
  N  N40  1  0.56032726  0.19642424  0.32857628  1
  N  N41  1  0.44567220  0.09813839  0.07563203  1
  N  N42  1  0.22932189  0.20268452  0.84075866  1
  N  N43  1  0.11157171  0.08983107  0.62356849  1
  N  N44  1  0.88547273  0.19803244  0.31614928  1
  N  N45  1  0.77094385  0.10023056  0.05436327  1
  N  N46  1  0.58379403  0.19049252  0.83420511  1
  N  N47  1  0.44746924  0.09021645  0.58054478  1
  N  N48  1  0.22014687  0.54142780  0.38210831  1
  N  N49  1  0.10458925  0.44092700  0.12729750  1
  N  N50  1  0.88110924  0.55757428  0.87304131  1
  N  N51  1  0.77612159  0.42747029  0.63535863  1
  N  N52  1  0.55612173  0.53912375  0.38248649  1
  N  N53  1  0.44189855  0.43456530  0.13294737  1
  N  N54  1  0.22656263  0.53665273  0.88327244  1
  N  N55  1  0.11183689  0.43004485  0.63134852  1
  N  N56  1  0.89251679  0.52878286  0.38047467  1
  N  N57  1  0.77211208  0.44097178  0.12417691  1
  N  N58  1  0.55535559  0.53903693  0.88458485  1
  N  N59  1  0.44314872  0.42932505  0.63104851  1
  N  N60  1  0.22211142  0.86796305  0.38556141  1
  N  N61  1  0.12725273  0.77470517  0.11852288  1
  N  N62  1  0.86382628  0.88301758  0.84599567  1
  N  N63  1  0.77923588  0.76276017  0.57523188  1
  N  N64  1  0.55969759  0.86940844  0.32228495  1
  N  N65  1  0.41526938  0.77516178  0.12273727  1
  N  N66  1  0.22983774  0.86273868  0.90360406  1
  N  N67  1  0.11333859  0.75990376  0.64269637  1
  N  N68  1  0.88439555  0.87106394  0.31325944  1
  N  N69  1  0.76807020  0.77791173  0.05718707  1
  N  N70  1  0.58382622  0.86274444  0.83800864  1
  N  N71  1  0.44221859  0.75948796  0.63834039  1
