# generated using pymatgen
data_Al11BN12
_symmetry_space_group_name_H-M   'P 1'
_cell_length_a   9.30067691
_cell_length_b   9.27372832
_cell_length_c   10.06685882
_cell_angle_alpha   90.09039593
_cell_angle_beta   90.13866396
_cell_angle_gamma   60.01103685
_symmetry_Int_Tables_number   1
_chemical_formula_structural   Al11BN12
_chemical_formula_sum   'Al33 B3 N36'
_cell_volume   752.03926193
_cell_formula_units_Z   3
loop_
 _symmetry_equiv_pos_site_id
 _symmetry_equiv_pos_as_xyz
  1  'x, y, z'
loop_
 _atom_site_type_symbol
 _atom_site_label
 _atom_site_symmetry_multiplicity
 _atom_site_fract_x
 _atom_site_fract_y
 _atom_site_fract_z
 _atom_site_occupancy
  Al  Al0  1  0.11359588  0.08826393  0.31301671  1
  Al  Al1  1  0.21735244  0.20648631  0.06947422  1
  Al  Al2  1  0.88658271  0.19873040  0.63524829  1
  Al  Al3  1  0.45231862  0.08728892  0.38967560  1
  Al  Al4  1  0.55973772  0.20126630  0.13881126  1
  Al  Al5  1  0.11541636  0.08768544  0.83262804  1
  Al  Al6  1  0.21673178  0.20444237  0.57213712  1
  Al  Al7  1  0.78338665  0.08996537  0.38866231  1
  Al  Al8  1  0.89168499  0.20181329  0.08236344  1
  Al  Al9  1  0.46035585  0.08933569  0.89123488  1
  Al  Al10  1  0.56355973  0.19545963  0.64144368  1
  Al  Al11  1  0.11082477  0.42639357  0.32048026  1
  Al  Al12  1  0.22505374  0.54217908  0.07097403  1
  Al  Al13  1  0.77343593  0.43737882  0.82669164  1
  Al  Al14  1  0.89189093  0.53039324  0.56984436  1
  Al  Al15  1  0.44258155  0.43152131  0.32475796  1
  Al  Al16  1  0.54800940  0.54559765  0.07093810  1
  Al  Al17  1  0.10716252  0.43451061  0.81883149  1
  Al  Al18  1  0.22004478  0.54189060  0.57387211  1
  Al  Al19  1  0.77853277  0.42623071  0.31474002  1
  Al  Al20  1  0.88913933  0.54286247  0.06326405  1
  Al  Al21  1  0.44768230  0.42875826  0.82401717  1
  Al  Al22  1  0.55499458  0.53968686  0.57258384  1
  Al  Al23  1  0.11711802  0.76150121  0.31402169  1
  Al  Al24  1  0.87996352  0.87234544  0.65275638  1
  Al  Al25  1  0.43627431  0.76042863  0.31802585  1
  Al  Al26  1  0.55160712  0.87723501  0.13256020  1
  Al  Al27  1  0.10962754  0.76392134  0.83916702  1
  Al  Al28  1  0.22084270  0.87037047  0.57593580  1
  Al  Al29  1  0.77752861  0.76490773  0.38657999  1
  Al  Al30  1  0.88724352  0.87895952  0.12371215  1
  Al  Al31  1  0.44529013  0.75993938  0.83270223  1
  Al  Al32  1  0.56558796  0.86825884  0.64645155  1
  B  B33  1  0.76766830  0.09121537  0.89742298  1
  B  B34  1  0.22556779  0.87085241  0.06654491  1
  B  B35  1  0.76874162  0.77872136  0.90058199  1
  N  N36  1  0.21868310  0.20357233  0.37843772  1
  N  N37  1  0.12654512  0.06867864  0.11846682  1
  N  N38  1  0.87824999  0.19272996  0.85829301  1
  N  N39  1  0.78123464  0.08665878  0.57856246  1
  N  N40  1  0.56108637  0.19764949  0.33020023  1
  N  N41  1  0.44697187  0.09688671  0.07936309  1
  N  N42  1  0.21837454  0.21053761  0.87850978  1
  N  N43  1  0.11624659  0.08890036  0.64130289  1
  N  N44  1  0.88920368  0.20114373  0.33836284  1
  N  N45  1  0.76925428  0.09611569  0.05565785  1
  N  N46  1  0.58395152  0.19002555  0.83537658  1
  N  N47  1  0.45088443  0.08773431  0.58319532  1
  N  N48  1  0.21964828  0.54181526  0.38266980  1
  N  N49  1  0.10871606  0.43212853  0.13074266  1
  N  N50  1  0.88125418  0.56156691  0.87387542  1
  N  N51  1  0.77543414  0.42966854  0.63646410  1
  N  N52  1  0.55666082  0.54008960  0.38223305  1
  N  N53  1  0.44230436  0.43393483  0.13344772  1
  N  N54  1  0.22555743  0.53569639  0.88390176  1
  N  N55  1  0.11196549  0.42647020  0.63061239  1
  N  N56  1  0.89138212  0.53135428  0.37860645  1
  N  N57  1  0.77525313  0.43553365  0.12189013  1
  N  N58  1  0.55517271  0.53913928  0.88529429  1
  N  N59  1  0.44305309  0.42911238  0.63199904  1
  N  N60  1  0.22096872  0.87171709  0.38725960  1
  N  N61  1  0.12709569  0.77380131  0.11891868  1
  N  N62  1  0.86294354  0.88521789  0.84810270  1
  N  N63  1  0.77813151  0.76390484  0.57676508  1
  N  N64  1  0.55973729  0.86949537  0.32287282  1
  N  N65  1  0.41604333  0.77403425  0.12315356  1
  N  N66  1  0.22617752  0.87073270  0.90495767  1
  N  N67  1  0.11288133  0.76049058  0.64526051  1
  N  N68  1  0.88465754  0.87215374  0.31590251  1
  N  N69  1  0.76913113  0.77588564  0.06025920  1
  N  N70  1  0.58388623  0.86106131  0.84017361  1
  N  N71  1  0.44093025  0.75963796  0.64000711  1
