# generated using pymatgen
data_Al11BN12
_symmetry_space_group_name_H-M   'P 1'
_cell_length_a   9.30953125
_cell_length_b   9.29044230
_cell_length_c   9.99266436
_cell_angle_alpha   89.89087788
_cell_angle_beta   89.77737341
_cell_angle_gamma   59.94172031
_symmetry_Int_Tables_number   1
_chemical_formula_structural   Al11BN12
_chemical_formula_sum   'Al33 B3 N36'
_cell_volume   748.02740965
_cell_formula_units_Z   3
loop_
 _symmetry_equiv_pos_site_id
 _symmetry_equiv_pos_as_xyz
  1  'x, y, z'
loop_
 _atom_site_type_symbol
 _atom_site_label
 _atom_site_symmetry_multiplicity
 _atom_site_fract_x
 _atom_site_fract_y
 _atom_site_fract_z
 _atom_site_occupancy
  Al  Al0  1  0.10417303  0.10298600  0.38670616  1
  Al  Al1  1  0.22349789  0.19849219  0.13726602  1
  Al  Al2  1  0.88561414  0.20313616  0.64128037  1
  Al  Al3  1  0.44536611  0.09453696  0.38773776  1
  Al  Al4  1  0.55855195  0.20257360  0.13421420  1
  Al  Al5  1  0.10593936  0.09288608  0.88983964  1
  Al  Al6  1  0.22110210  0.20606456  0.63851542  1
  Al  Al7  1  0.78053920  0.09010033  0.38367824  1
  Al  Al8  1  0.89293023  0.19733440  0.13053279  1
  Al  Al9  1  0.45468784  0.09018647  0.88771609  1
  Al  Al10  1  0.56057537  0.20367950  0.63940327  1
  Al  Al11  1  0.10548351  0.42863361  0.38408028  1
  Al  Al12  1  0.22340756  0.54452446  0.06856670  1
  Al  Al13  1  0.77972900  0.42562532  0.88757538  1
  Al  Al14  1  0.88472552  0.54548685  0.64023546  1
  Al  Al15  1  0.44987787  0.42517150  0.38540592  1
  Al  Al16  1  0.55421376  0.53852507  0.13290922  1
  Al  Al17  1  0.10430902  0.42848430  0.88561904  1
  Al  Al18  1  0.21594696  0.54877561  0.57354503  1
  Al  Al19  1  0.77687458  0.42903362  0.38722385  1
  Al  Al20  1  0.88713596  0.54073103  0.13157672  1
  Al  Al21  1  0.45951942  0.41599691  0.88686874  1
  Al  Al22  1  0.55506684  0.53999404  0.64065982  1
  Al  Al23  1  0.11741335  0.76413225  0.30581438  1
  Al  Al24  1  0.87592081  0.87930612  0.64692566  1
  Al  Al25  1  0.44147967  0.76547297  0.34969014  1
  Al  Al26  1  0.55359092  0.87438335  0.12649958  1
  Al  Al27  1  0.11002832  0.75935643  0.82874644  1
  Al  Al28  1  0.22117717  0.86982465  0.57289034  1
  Al  Al29  1  0.77923852  0.76407593  0.38292814  1
  Al  Al30  1  0.88779830  0.87592814  0.11331019  1
  Al  Al31  1  0.45424446  0.75659385  0.87683048  1
  Al  Al32  1  0.56054263  0.87137163  0.64292051  1
  B  B33  1  0.77204623  0.09090660  0.89273011  1
  B  B34  1  0.22462537  0.86686325  0.05429849  1
  B  B35  1  0.77193180  0.77098602  0.89384682  1
  N  N36  1  0.22285378  0.20537842  0.32770958  1
  N  N37  1  0.12218653  0.07276524  0.08184630  1
  N  N38  1  0.87896732  0.18839659  0.83395665  1
  N  N39  1  0.77919199  0.09209884  0.57305919  1
  N  N40  1  0.55766738  0.20389305  0.32472071  1
  N  N41  1  0.44365516  0.09686200  0.07544459  1
  N  N42  1  0.22341791  0.20120469  0.82907550  1
  N  N43  1  0.10441515  0.10297621  0.58092755  1
  N  N44  1  0.88570692  0.20652687  0.32225336  1
  N  N45  1  0.77528215  0.09675051  0.05346184  1
  N  N46  1  0.58308031  0.18949744  0.83244328  1
  N  N47  1  0.44577610  0.09488413  0.58068182  1
  N  N48  1  0.21770391  0.54789826  0.37202492  1
  N  N49  1  0.10914777  0.42366214  0.07966133  1
  N  N50  1  0.87727715  0.56329069  0.83254481  1
  N  N51  1  0.77790335  0.42801939  0.58004288  1
  N  N52  1  0.55674529  0.53823092  0.32416507  1
  N  N53  1  0.45261549  0.42178799  0.07861960  1
  N  N54  1  0.22655905  0.53516873  0.87190768  1
  N  N55  1  0.10535264  0.42767815  0.57962684  1
  N  N56  1  0.88500736  0.54224656  0.32280516  1
  N  N57  1  0.78015765  0.42516681  0.07621910  1
  N  N58  1  0.56140983  0.53262735  0.83063669  1
  N  N59  1  0.44945788  0.42517510  0.58012574  1
  N  N60  1  0.21841790  0.87172012  0.37971172  1
  N  N61  1  0.12944707  0.77303362  0.11279637  1
  N  N62  1  0.86343843  0.88335788  0.84448787  1
  N  N63  1  0.77811381  0.76439032  0.57283068  1
  N  N64  1  0.55807354  0.87481622  0.31930910  1
  N  N65  1  0.42550204  0.77052108  0.08745614  1
  N  N66  1  0.22378946  0.86278420  0.89171624  1
  N  N67  1  0.10885234  0.76524708  0.63819174  1
  N  N68  1  0.88318717  0.87526281  0.30932319  1
  N  N69  1  0.77709289  0.76039310  0.05469744  1
  N  N70  1  0.58345244  0.86074095  0.83810610  1
  N  N71  1  0.44382600  0.76513063  0.60788912  1
