# generated using pymatgen
data_Al11BN12
_symmetry_space_group_name_H-M   'P 1'
_cell_length_a   9.27103041
_cell_length_b   9.26430174
_cell_length_c   9.93584237
_cell_angle_alpha   89.76164303
_cell_angle_beta   89.80011363
_cell_angle_gamma   60.05208227
_symmetry_Int_Tables_number   1
_chemical_formula_structural   Al11BN12
_chemical_formula_sum   'Al33 B3 N36'
_cell_volume   739.43392614
_cell_formula_units_Z   3
loop_
 _symmetry_equiv_pos_site_id
 _symmetry_equiv_pos_as_xyz
  1  'x, y, z'
loop_
 _atom_site_type_symbol
 _atom_site_label
 _atom_site_symmetry_multiplicity
 _atom_site_fract_x
 _atom_site_fract_y
 _atom_site_fract_z
 _atom_site_occupancy
  Al  Al0  1  0.10988776  0.09487035  0.39842252  1
  Al  Al1  1  0.22380363  0.19821519  0.14847679  1
  Al  Al2  1  0.88682578  0.20202332  0.65243557  1
  Al  Al3  1  0.44534773  0.09330005  0.39840215  1
  Al  Al4  1  0.55774200  0.20327178  0.14452311  1
  Al  Al5  1  0.11037328  0.08754031  0.89710686  1
  Al  Al6  1  0.22094663  0.20655086  0.64934616  1
  Al  Al7  1  0.77943659  0.09227158  0.39482906  1
  Al  Al8  1  0.89160915  0.19750083  0.14113792  1
  Al  Al9  1  0.45463272  0.08945935  0.89863288  1
  Al  Al10  1  0.56129508  0.20263253  0.65074509  1
  Al  Al11  1  0.10979575  0.42967126  0.39651017  1
  Al  Al12  1  0.22591938  0.54002128  0.14208042  1
  Al  Al13  1  0.77708737  0.42840710  0.89778088  1
  Al  Al14  1  0.88698957  0.54523582  0.65072873  1
  Al  Al15  1  0.44500826  0.42741720  0.39750959  1
  Al  Al16  1  0.55035786  0.54239391  0.14898714  1
  Al  Al17  1  0.10725733  0.43219949  0.89930165  1
  Al  Al18  1  0.22276359  0.53744337  0.64910275  1
  Al  Al19  1  0.77948354  0.42677079  0.39719887  1
  Al  Al20  1  0.88689266  0.54124650  0.14261183  1
  Al  Al21  1  0.45317784  0.42137173  0.89898573  1
  Al  Al22  1  0.55680296  0.53868794  0.64844805  1
  Al  Al23  1  0.10999024  0.76606420  0.36930248  1
  Al  Al24  1  0.88078533  0.87605317  0.65621838  1
  Al  Al25  1  0.44497434  0.76240951  0.39857501  1
  Al  Al26  1  0.55002234  0.87326126  0.14342546  1
  Al  Al27  1  0.10811295  0.76510614  0.87686652  1
  Al  Al28  1  0.22291739  0.87308954  0.64024057  1
  Al  Al29  1  0.77853164  0.76323770  0.39419825  1
  Al  Al30  1  0.88959133  0.87491993  0.12609899  1
  Al  Al31  1  0.44681978  0.76066640  0.89724931  1
  Al  Al32  1  0.56164642  0.86911500  0.65269670  1
  B  B33  1  0.77072456  0.09398836  0.90397276  1
  B  B34  1  0.22251991  0.87041558  0.11833602  1
  B  B35  1  0.77071572  0.76841109  0.90435473  1
  N  N36  1  0.22214350  0.20621922  0.33909765  1
  N  N37  1  0.12571563  0.06438358  0.09102295  1
  N  N38  1  0.87832303  0.19028208  0.84689031  1
  N  N39  1  0.77878047  0.09254678  0.58473635  1
  N  N40  1  0.55698645  0.20463866  0.33595291  1
  N  N41  1  0.44384828  0.09497499  0.08753437  1
  N  N42  1  0.22179934  0.20503817  0.84176428  1
  N  N43  1  0.10728600  0.09939017  0.59066742  1
  N  N44  1  0.88853516  0.20492146  0.33284175  1
  N  N45  1  0.77427169  0.09694914  0.06536193  1
  N  N46  1  0.58167426  0.19209268  0.84483207  1
  N  N47  1  0.44589047  0.09354265  0.59296963  1
  N  N48  1  0.22322412  0.53841216  0.33449472  1
  N  N49  1  0.11131117  0.42604508  0.08914202  1
  N  N50  1  0.87766583  0.56497858  0.84474685  1
  N  N51  1  0.78090409  0.42621948  0.59169513  1
  N  N52  1  0.55643523  0.53938932  0.33917374  1
  N  N53  1  0.44768122  0.42550640  0.08807538  1
  N  N54  1  0.22838686  0.53266154  0.84194897  1
  N  N55  1  0.10977504  0.42884614  0.58902243  1
  N  N56  1  0.88770469  0.54139923  0.33448110  1
  N  N57  1  0.77734535  0.42698117  0.08785948  1
  N  N58  1  0.55679954  0.53879973  0.83933854  1
  N  N59  1  0.44590247  0.42587393  0.58974463  1
  N  N60  1  0.22473243  0.87465084  0.34925186  1
  N  N61  1  0.12681396  0.77394408  0.09143458  1
  N  N62  1  0.86447145  0.88383913  0.85413951  1
  N  N63  1  0.77790479  0.76367707  0.58430775  1
  N  N64  1  0.55723935  0.87178952  0.33399302  1
  N  N65  1  0.41675176  0.77404474  0.09091557  1
  N  N66  1  0.22860143  0.87225494  0.83193734  1
  N  N67  1  0.10489130  0.76277098  0.60999162  1
  N  N68  1  0.88482306  0.87489835  0.32150639  1
  N  N69  1  0.77404050  0.76148198  0.06680558  1
  N  N70  1  0.58062697  0.85901804  0.84775096  1
  N  N71  1  0.44964954  0.76069182  0.59071027  1
