# generated using pymatgen
data_Al11BN12
_symmetry_space_group_name_H-M   'P 1'
_cell_length_a   9.28957406
_cell_length_b   9.27312213
_cell_length_c   10.02567363
_cell_angle_alpha   89.82275032
_cell_angle_beta   89.69851584
_cell_angle_gamma   60.01516842
_symmetry_Int_Tables_number   1
_chemical_formula_structural   Al11BN12
_chemical_formula_sum   'Al33 B3 N36'
_cell_volume   748.04247994
_cell_formula_units_Z   3
loop_
 _symmetry_equiv_pos_site_id
 _symmetry_equiv_pos_as_xyz
  1  'x, y, z'
loop_
 _atom_site_type_symbol
 _atom_site_label
 _atom_site_symmetry_multiplicity
 _atom_site_fract_x
 _atom_site_fract_y
 _atom_site_fract_z
 _atom_site_occupancy
  Al  Al0  1  0.10600515  0.10138604  0.38962723  1
  Al  Al1  1  0.22318696  0.19834391  0.14082308  1
  Al  Al2  1  0.88544786  0.20332710  0.64512849  1
  Al  Al3  1  0.44598964  0.09382416  0.39127449  1
  Al  Al4  1  0.55814271  0.20292221  0.13743578  1
  Al  Al5  1  0.10458372  0.09453563  0.89231545  1
  Al  Al6  1  0.22135394  0.20672802  0.64251864  1
  Al  Al7  1  0.78170801  0.08917632  0.38683596  1
  Al  Al8  1  0.89183853  0.19824129  0.13340891  1
  Al  Al9  1  0.45429573  0.08905113  0.89208311  1
  Al  Al10  1  0.56057270  0.20305445  0.64354927  1
  Al  Al11  1  0.10617949  0.42850707  0.38678369  1
  Al  Al12  1  0.22343146  0.54463935  0.07190819  1
  Al  Al13  1  0.77691195  0.42781104  0.89118145  1
  Al  Al14  1  0.88575632  0.54487345  0.64382345  1
  Al  Al15  1  0.45101072  0.42415489  0.38895238  1
  Al  Al16  1  0.55091285  0.54325133  0.14214807  1
  Al  Al17  1  0.10372387  0.42901349  0.88994225  1
  Al  Al18  1  0.21622842  0.54852600  0.57556739  1
  Al  Al19  1  0.77884137  0.42731404  0.39045097  1
  Al  Al20  1  0.88575743  0.54142524  0.13495030  1
  Al  Al21  1  0.45931883  0.41771793  0.89057726  1
  Al  Al22  1  0.55609474  0.53899279  0.64237361  1
  Al  Al23  1  0.12073644  0.76461200  0.30737819  1
  Al  Al24  1  0.87584917  0.87905796  0.65095389  1
  Al  Al25  1  0.45094308  0.76015684  0.39105919  1
  Al  Al26  1  0.55059585  0.87307826  0.13643150  1
  Al  Al27  1  0.10940117  0.75935127  0.83276358  1
  Al  Al28  1  0.21679546  0.87127471  0.57621770  1
  Al  Al29  1  0.78125770  0.76367290  0.38629903  1
  Al  Al30  1  0.88676714  0.87590462  0.11656275  1
  Al  Al31  1  0.45543307  0.75580249  0.89331408  1
  Al  Al32  1  0.56121776  0.86997237  0.64542688  1
  B  B33  1  0.77085753  0.09161028  0.89632189  1
  B  B34  1  0.22308965  0.86844828  0.05593081  1
  B  B35  1  0.77043562  0.77043824  0.89669276  1
  N  N36  1  0.22348360  0.20535259  0.33073945  1
  N  N37  1  0.12149553  0.07321016  0.08367586  1
  N  N38  1  0.87688732  0.19043906  0.83728276  1
  N  N39  1  0.77957905  0.09163767  0.57631602  1
  N  N40  1  0.55860154  0.20313872  0.32771422  1
  N  N41  1  0.44401842  0.09507768  0.07983307  1
  N  N42  1  0.22291668  0.20253582  0.83245509  1
  N  N43  1  0.10488943  0.10300515  0.58529222  1
  N  N44  1  0.88717565  0.20562259  0.32500261  1
  N  N45  1  0.77481912  0.09684043  0.05640726  1
  N  N46  1  0.58196301  0.19024821  0.83646208  1
  N  N47  1  0.44591321  0.09393063  0.58429179  1
  N  N48  1  0.21856497  0.54811685  0.37501631  1
  N  N49  1  0.10835441  0.42386099  0.08315703  1
  N  N50  1  0.87654683  0.56410143  0.83599118  1
  N  N51  1  0.77927793  0.42716961  0.58317722  1
  N  N52  1  0.55706706  0.53966297  0.33116229  1
  N  N53  1  0.45308850  0.42325164  0.08260401  1
  N  N54  1  0.22636902  0.53555157  0.87644411  1
  N  N55  1  0.10577094  0.42739393  0.58215258  1
  N  N56  1  0.88581597  0.54192387  0.32578614  1
  N  N57  1  0.77695006  0.42709882  0.07975940  1
  N  N58  1  0.55830684  0.53756125  0.83044979  1
  N  N59  1  0.44972352  0.42428321  0.58345647  1
  N  N60  1  0.22002428  0.87113584  0.38405959  1
  N  N61  1  0.12929555  0.77382649  0.11452311  1
  N  N62  1  0.86200597  0.88367837  0.84763387  1
  N  N63  1  0.77941716  0.76353702  0.57614129  1
  N  N64  1  0.55808856  0.87232244  0.32684494  1
  N  N65  1  0.42649301  0.77002671  0.08395663  1
  N  N66  1  0.22276368  0.86475199  0.89141395  1
  N  N67  1  0.10947748  0.76370530  0.64293510  1
  N  N68  1  0.88499698  0.87464034  0.31180100  1
  N  N69  1  0.77402367  0.76140615  0.05799214  1
  N  N70  1  0.58057503  0.85977161  0.83860914  1
  N  N71  1  0.45035784  0.76070347  0.58661748  1
