# generated using pymatgen
data_Al11BN12
_symmetry_space_group_name_H-M   'P 1'
_cell_length_a   9.28710408
_cell_length_b   9.32179755
_cell_length_c   10.08114409
_cell_angle_alpha   90.04025358
_cell_angle_beta   90.06050474
_cell_angle_gamma   60.02884263
_symmetry_Int_Tables_number   1
_chemical_formula_structural   Al11BN12
_chemical_formula_sum   'Al33 B3 N36'
_cell_volume   756.04271187
_cell_formula_units_Z   3
loop_
 _symmetry_equiv_pos_site_id
 _symmetry_equiv_pos_as_xyz
  1  'x, y, z'
loop_
 _atom_site_type_symbol
 _atom_site_label
 _atom_site_symmetry_multiplicity
 _atom_site_fract_x
 _atom_site_fract_y
 _atom_site_fract_z
 _atom_site_occupancy
  Al  Al0  1  0.11352875  0.08834914  0.31710276  1
  Al  Al1  1  0.21766979  0.20374668  0.06870825  1
  Al  Al2  1  0.89610571  0.20529223  0.57093542  1
  Al  Al3  1  0.44121095  0.09390387  0.31804177  1
  Al  Al4  1  0.55853798  0.20731922  0.13212687  1
  Al  Al5  1  0.10762124  0.08943942  0.82590371  1
  Al  Al6  1  0.22886372  0.20081606  0.57249491  1
  Al  Al7  1  0.77840437  0.08704469  0.38930797  1
  Al  Al8  1  0.89319112  0.20271391  0.06554733  1
  Al  Al9  1  0.44867964  0.09666382  0.83669346  1
  Al  Al10  1  0.56949971  0.20137280  0.64379743  1
  Al  Al11  1  0.11011443  0.42790062  0.32167212  1
  Al  Al12  1  0.22190207  0.54190616  0.07108361  1
  Al  Al13  1  0.77905834  0.42069660  0.81979478  1
  Al  Al14  1  0.89376167  0.53152804  0.57434031  1
  Al  Al15  1  0.44191682  0.43357343  0.32429339  1
  Al  Al16  1  0.55054758  0.54266333  0.07117720  1
  Al  Al17  1  0.10976744  0.42606503  0.81916094  1
  Al  Al18  1  0.22010818  0.54272217  0.57562899  1
  Al  Al19  1  0.77957136  0.42705901  0.31955071  1
  Al  Al20  1  0.88951200  0.53667133  0.05708214  1
  Al  Al21  1  0.44620157  0.43199764  0.82662116  1
  Al  Al22  1  0.55509330  0.54132567  0.57353390  1
  Al  Al23  1  0.11794510  0.76087414  0.31504420  1
  Al  Al24  1  0.87914736  0.87704071  0.65386102  1
  Al  Al25  1  0.43699966  0.75896460  0.31719784  1
  Al  Al26  1  0.55292794  0.87034286  0.12501472  1
  Al  Al27  1  0.10843713  0.76254277  0.84055237  1
  Al  Al28  1  0.22220677  0.87067125  0.57778922  1
  Al  Al29  1  0.77681647  0.76513633  0.38907420  1
  Al  Al30  1  0.88773533  0.87844153  0.12612199  1
  Al  Al31  1  0.44655594  0.75843575  0.83734704  1
  Al  Al32  1  0.56860229  0.86501903  0.64844261  1
  B  B33  1  0.76686184  0.09876844  0.90225649  1
  B  B34  1  0.22261851  0.87013710  0.06701164  1
  B  B35  1  0.75478004  0.80939544  0.90692867  1
  N  N36  1  0.22391580  0.20215669  0.38082814  1
  N  N37  1  0.12046009  0.07030844  0.12472415  1
  N  N38  1  0.87877976  0.19038802  0.87488661  1
  N  N39  1  0.78200535  0.08652272  0.57782390  1
  N  N40  1  0.56215486  0.20265825  0.32914531  1
  N  N41  1  0.43709948  0.09959742  0.11978687  1
  N  N42  1  0.22173143  0.20230332  0.88159528  1
  N  N43  1  0.11479868  0.09189619  0.63610103  1
  N  N44  1  0.89403439  0.20556478  0.37737459  1
  N  N45  1  0.76978869  0.09399061  0.06135233  1
  N  N46  1  0.58452352  0.19623210  0.84306154  1
  N  N47  1  0.44519918  0.09479850  0.63810554  1
  N  N48  1  0.21938462  0.54294408  0.38363400  1
  N  N49  1  0.10743894  0.43115991  0.13193162  1
  N  N50  1  0.89295868  0.52686879  0.87369980  1
  N  N51  1  0.77750830  0.42515270  0.63085787  1
  N  N52  1  0.55562132  0.54100361  0.38297836  1
  N  N53  1  0.43951536  0.43681688  0.13249288  1
  N  N54  1  0.22286581  0.53497719  0.88430148  1
  N  N55  1  0.11577787  0.42417709  0.63036722  1
  N  N56  1  0.89218753  0.53247226  0.38220066  1
  N  N57  1  0.77710239  0.42909388  0.12973753  1
  N  N58  1  0.55893157  0.53711242  0.88552907  1
  N  N59  1  0.44310557  0.43234439  0.63402902  1
  N  N60  1  0.22167780  0.87095811  0.38819276  1
  N  N61  1  0.12644058  0.77284136  0.11953354  1
  N  N62  1  0.85842023  0.88857599  0.84975976  1
  N  N63  1  0.77931998  0.76525040  0.57894255  1
  N  N64  1  0.56311784  0.86315270  0.32107880  1
  N  N65  1  0.41512260  0.77195649  0.12131161  1
  N  N66  1  0.22286808  0.87237386  0.90506233  1
  N  N67  1  0.11267221  0.76165326  0.64715809  1
  N  N68  1  0.88450042  0.87260806  0.31681799  1
  N  N69  1  0.77243943  0.77396998  0.05723964  1
  N  N70  1  0.58418283  0.86183845  0.84800062  1
  N  N71  1  0.44267864  0.75980537  0.64334785  1
