# generated using pymatgen
data_Al11BN12
_symmetry_space_group_name_H-M   'P 1'
_cell_length_a   9.25019256
_cell_length_b   9.30504006
_cell_length_c   9.88725313
_cell_angle_alpha   90.24940758
_cell_angle_beta   90.01466495
_cell_angle_gamma   60.06020858
_symmetry_Int_Tables_number   1
_chemical_formula_structural   Al11BN12
_chemical_formula_sum   'Al33 B3 N36'
_cell_volume   737.45121606
_cell_formula_units_Z   3
loop_
 _symmetry_equiv_pos_site_id
 _symmetry_equiv_pos_as_xyz
  1  'x, y, z'
loop_
 _atom_site_type_symbol
 _atom_site_label
 _atom_site_symmetry_multiplicity
 _atom_site_fract_x
 _atom_site_fract_y
 _atom_site_fract_z
 _atom_site_occupancy
  Al  Al0  1  0.11241777  0.08930452  0.30677292  1
  Al  Al1  1  0.22439351  0.19951264  0.06044633  1
  Al  Al2  1  0.88964593  0.20673264  0.56509813  1
  Al  Al3  1  0.44663457  0.09302838  0.31113190  1
  Al  Al4  1  0.56321429  0.20238024  0.05788847  1
  Al  Al5  1  0.10907835  0.08860988  0.81634857  1
  Al  Al6  1  0.22223035  0.20454361  0.56208495  1
  Al  Al7  1  0.77966494  0.09061368  0.31322374  1
  Al  Al8  1  0.88896735  0.19659869  0.05801007  1
  Al  Al9  1  0.45929315  0.08662377  0.81081588  1
  Al  Al10  1  0.55448204  0.20761472  0.56456297  1
  Al  Al11  1  0.10943844  0.42838369  0.31189564  1
  Al  Al12  1  0.22444454  0.54103058  0.06266408  1
  Al  Al13  1  0.77372193  0.43317910  0.81090942  1
  Al  Al14  1  0.88756354  0.54263013  0.56849715  1
  Al  Al15  1  0.44501234  0.42720369  0.31169837  1
  Al  Al16  1  0.55058941  0.54281221  0.06209742  1
  Al  Al17  1  0.10962335  0.42951799  0.81190989  1
  Al  Al18  1  0.21952919  0.54290296  0.56147456  1
  Al  Al19  1  0.77911274  0.42769605  0.31157490  1
  Al  Al20  1  0.88732301  0.54242719  0.05754420  1
  Al  Al21  1  0.44739369  0.42835174  0.80948252  1
  Al  Al22  1  0.55357406  0.54286802  0.56028158  1
  Al  Al23  1  0.10886345  0.76638428  0.30964649  1
  Al  Al24  1  0.88603359  0.87561328  0.58480849  1
  Al  Al25  1  0.43924570  0.76537144  0.30730545  1
  Al  Al26  1  0.55799591  0.86992765  0.05849654  1
  Al  Al27  1  0.10735387  0.75798312  0.82060383  1
  Al  Al28  1  0.22139072  0.87247081  0.56347698  1
  Al  Al29  1  0.77895730  0.76206623  0.31654685  1
  Al  Al30  1  0.88839401  0.86951792  0.05174759  1
  Al  Al31  1  0.44630345  0.76251338  0.81826218  1
  Al  Al32  1  0.55707012  0.87043790  0.56796020  1
  B  B33  1  0.75721559  0.13486452  0.79818796  1
  B  B34  1  0.22079968  0.87220855  0.05675430  1
  B  B35  1  0.78022897  0.76162017  0.81020830  1
  N  N36  1  0.22139520  0.20427264  0.36771533  1
  N  N37  1  0.12122711  0.07023339  0.11051664  1
  N  N38  1  0.87155329  0.19703953  0.86218914  1
  N  N39  1  0.77321969  0.10447631  0.64371382  1
  N  N40  1  0.55693410  0.20545515  0.37324250  1
  N  N41  1  0.44841659  0.09333334  0.11665931  1
  N  N42  1  0.22548501  0.20202410  0.86902309  1
  N  N43  1  0.11164885  0.09313309  0.62480911  1
  N  N44  1  0.88930661  0.20461074  0.37180559  1
  N  N45  1  0.78095478  0.08737909  0.12244490  1
  N  N46  1  0.58221696  0.19822976  0.86149977  1
  N  N47  1  0.44556162  0.09449328  0.62075146  1
  N  N48  1  0.21992299  0.54247761  0.36805419  1
  N  N49  1  0.11083399  0.42651504  0.11902659  1
  N  N50  1  0.87911908  0.55537908  0.86432221  1
  N  N51  1  0.77608244  0.42935404  0.62025386  1
  N  N52  1  0.55406461  0.54262510  0.36723673  1
  N  N53  1  0.44771292  0.42362680  0.12006866  1
  N  N54  1  0.22840586  0.53171981  0.87223477  1
  N  N55  1  0.11262611  0.42718886  0.62023346  1
  N  N56  1  0.88764666  0.54079041  0.37558341  1
  N  N57  1  0.78051979  0.42418014  0.11725514  1
  N  N58  1  0.55414650  0.54061559  0.87185320  1
  N  N59  1  0.44331199  0.43048925  0.61850841  1
  N  N60  1  0.22107992  0.87317203  0.37366096  1
  N  N61  1  0.12122992  0.77388365  0.11239934  1
  N  N62  1  0.87996672  0.84654238  0.86357079  1
  N  N63  1  0.77623615  0.76094165  0.64338281  1
  N  N64  1  0.55495980  0.87163182  0.37365695  1
  N  N65  1  0.42030471  0.77516718  0.11194912  1
  N  N66  1  0.22081406  0.87099390  0.89194630  1
  N  N67  1  0.11338943  0.76202633  0.62860744  1
  N  N68  1  0.88782244  0.87405768  0.38458708  1
  N  N69  1  0.77894199  0.75974960  0.12638333  1
  N  N70  1  0.58159622  0.85916332  0.86570795  1
  N  N71  1  0.44197344  0.76282527  0.62581572  1
