# generated using pymatgen
data_Al11BN12
_symmetry_space_group_name_H-M   'P 1'
_cell_length_a   9.30909103
_cell_length_b   9.30605809
_cell_length_c   10.01586842
_cell_angle_alpha   89.90968720
_cell_angle_beta   89.88987448
_cell_angle_gamma   59.95107575
_symmetry_Int_Tables_number   1
_chemical_formula_structural   Al11BN12
_chemical_formula_sum   'Al33 B3 N36'
_cell_volume   751.06418332
_cell_formula_units_Z   3
loop_
 _symmetry_equiv_pos_site_id
 _symmetry_equiv_pos_as_xyz
  1  'x, y, z'
loop_
 _atom_site_type_symbol
 _atom_site_label
 _atom_site_symmetry_multiplicity
 _atom_site_fract_x
 _atom_site_fract_y
 _atom_site_fract_z
 _atom_site_occupancy
  Al  Al0  1  0.10522511  0.10216165  0.38781726  1
  Al  Al1  1  0.22266735  0.19950764  0.13823745  1
  Al  Al2  1  0.88769594  0.20125306  0.64253970  1
  Al  Al3  1  0.44642012  0.09221797  0.38670186  1
  Al  Al4  1  0.56104329  0.19709869  0.13087289  1
  Al  Al5  1  0.10664295  0.09263887  0.89249740  1
  Al  Al6  1  0.22145844  0.20628774  0.63889303  1
  Al  Al7  1  0.78003265  0.09050022  0.38417508  1
  Al  Al8  1  0.89291872  0.19745758  0.13280924  1
  Al  Al9  1  0.45505113  0.08986135  0.88838640  1
  Al  Al10  1  0.56479518  0.19569781  0.63834723  1
  Al  Al11  1  0.10658237  0.42781811  0.38592114  1
  Al  Al12  1  0.22509044  0.54445214  0.06713072  1
  Al  Al13  1  0.78231541  0.42407405  0.88836477  1
  Al  Al14  1  0.88789388  0.54460614  0.64117658  1
  Al  Al15  1  0.44110737  0.43093548  0.31667275  1
  Al  Al16  1  0.55355805  0.54224222  0.10540581  1
  Al  Al17  1  0.10368786  0.42849285  0.88809403  1
  Al  Al18  1  0.22323900  0.54527048  0.57126650  1
  Al  Al19  1  0.77477235  0.43001658  0.38688685  1
  Al  Al20  1  0.88805364  0.54049734  0.13368647  1
  Al  Al21  1  0.44647864  0.42196426  0.82916210  1
  Al  Al22  1  0.55848633  0.53913658  0.63345382  1
  Al  Al23  1  0.11651949  0.76479200  0.30903600  1
  Al  Al24  1  0.87933649  0.87679763  0.64705081  1
  Al  Al25  1  0.43318849  0.76778270  0.31207484  1
  Al  Al26  1  0.55488552  0.87562018  0.12521340  1
  Al  Al27  1  0.10955856  0.76157644  0.83153391  1
  Al  Al28  1  0.22347970  0.86831320  0.57278951  1
  Al  Al29  1  0.77771832  0.76344010  0.38258181  1
  Al  Al30  1  0.88857972  0.87538669  0.11529672  1
  Al  Al31  1  0.44656835  0.76319276  0.83666330  1
  Al  Al32  1  0.56408078  0.87299210  0.64269248  1
  B  B33  1  0.77144703  0.09087472  0.89356046  1
  B  B34  1  0.22601698  0.86711084  0.05840119  1
  B  B35  1  0.77207905  0.77113010  0.89438859  1
  N  N36  1  0.22316134  0.20533378  0.32822348  1
  N  N37  1  0.12094002  0.07429098  0.08345994  1
  N  N38  1  0.88002287  0.18775516  0.83422436  1
  N  N39  1  0.78145753  0.09030069  0.57333252  1
  N  N40  1  0.55993736  0.19836132  0.32485876  1
  N  N41  1  0.44220664  0.09674920  0.07445820  1
  N  N42  1  0.22377121  0.20163988  0.82931980  1
  N  N43  1  0.10602724  0.10177643  0.58162124  1
  N  N44  1  0.88626467  0.20597673  0.32382184  1
  N  N45  1  0.77619200  0.09636822  0.05377583  1
  N  N46  1  0.58510506  0.18590272  0.83470725  1
  N  N47  1  0.44600070  0.09299291  0.57934476  1
  N  N48  1  0.22164586  0.54647024  0.37673711  1
  N  N49  1  0.10918313  0.42397988  0.08067725  1
  N  N50  1  0.87798693  0.56305043  0.83258184  1
  N  N51  1  0.78020656  0.42687216  0.58223460  1
  N  N52  1  0.55672676  0.54214692  0.33413348  1
  N  N53  1  0.44190580  0.42676912  0.12021901  1
  N  N54  1  0.22466285  0.53761196  0.87815742  1
  N  N55  1  0.10759476  0.42738175  0.57995590  1
  N  N56  1  0.88668114  0.54130251  0.32419600  1
  N  N57  1  0.78428049  0.42295272  0.07663674  1
  N  N58  1  0.55970740  0.53529695  0.85156056  1
  N  N59  1  0.44155119  0.42660489  0.63175932  1
  N  N60  1  0.22203831  0.86982543  0.38300153  1
  N  N61  1  0.12822483  0.77342337  0.11518766  1
  N  N62  1  0.86460968  0.88300577  0.84475966  1
  N  N63  1  0.77922421  0.76306831  0.57283622  1
  N  N64  1  0.55829435  0.87411030  0.31902588  1
  N  N65  1  0.41553255  0.77780494  0.11270934  1
  N  N66  1  0.22782011  0.86153988  0.89742354  1
  N  N67  1  0.11203190  0.76280427  0.63977632  1
  N  N68  1  0.88343899  0.87452088  0.31123081  1
  N  N69  1  0.77768771  0.76001626  0.05498007  1
  N  N70  1  0.58512404  0.86180911  0.83873674  1
  N  N71  1  0.43811500  0.76872947  0.63961429  1
