# generated using pymatgen
data_Al11BN12
_symmetry_space_group_name_H-M   'P 1'
_cell_length_a   9.31025930
_cell_length_b   9.29130345
_cell_length_c   10.06723085
_cell_angle_alpha   89.87452764
_cell_angle_beta   89.91565448
_cell_angle_gamma   60.00101669
_symmetry_Int_Tables_number   1
_chemical_formula_structural   Al11BN12
_chemical_formula_sum   'Al33 B3 N36'
_cell_volume   754.19291288
_cell_formula_units_Z   3
loop_
 _symmetry_equiv_pos_site_id
 _symmetry_equiv_pos_as_xyz
  1  'x, y, z'
loop_
 _atom_site_type_symbol
 _atom_site_label
 _atom_site_symmetry_multiplicity
 _atom_site_fract_x
 _atom_site_fract_y
 _atom_site_fract_z
 _atom_site_occupancy
  Al  Al0  1  0.11718292  0.08366480  0.31244206  1
  Al  Al1  1  0.22318894  0.20370483  0.10842444  1
  Al  Al2  1  0.88520455  0.19529366  0.64699301  1
  Al  Al3  1  0.44489400  0.09077902  0.38927350  1
  Al  Al4  1  0.55953183  0.20141569  0.13730100  1
  Al  Al5  1  0.11018935  0.08642742  0.84284614  1
  Al  Al6  1  0.22918183  0.19910745  0.63988667  1
  Al  Al7  1  0.78237294  0.08885433  0.38603787  1
  Al  Al8  1  0.88702250  0.20096255  0.11953616  1
  Al  Al9  1  0.45969905  0.09012551  0.89069371  1
  Al  Al10  1  0.56583392  0.19550376  0.63952883  1
  Al  Al11  1  0.10992304  0.42930561  0.31758041  1
  Al  Al12  1  0.22489489  0.54419088  0.06958370  1
  Al  Al13  1  0.77265265  0.43617166  0.82607343  1
  Al  Al14  1  0.89448803  0.52761215  0.56980780  1
  Al  Al15  1  0.44238119  0.43060269  0.32426295  1
  Al  Al16  1  0.54723638  0.54636935  0.07031175  1
  Al  Al17  1  0.10429548  0.44102924  0.82291127  1
  Al  Al18  1  0.22063430  0.54172580  0.57265627  1
  Al  Al19  1  0.77583433  0.43121763  0.31543621  1
  Al  Al20  1  0.88640122  0.54467129  0.06100398  1
  Al  Al21  1  0.44784222  0.42873776  0.82275672  1
  Al  Al22  1  0.55618382  0.53919054  0.57270075  1
  Al  Al23  1  0.11640884  0.76120490  0.31278691  1
  Al  Al24  1  0.88117754  0.87161163  0.65089954  1
  Al  Al25  1  0.43641631  0.76026130  0.31779812  1
  Al  Al26  1  0.55176283  0.87723507  0.13245053  1
  Al  Al27  1  0.10962198  0.76372404  0.83669406  1
  Al  Al28  1  0.22121046  0.87108905  0.57606174  1
  Al  Al29  1  0.77735391  0.76472541  0.38595087  1
  Al  Al30  1  0.88701195  0.87954668  0.11995844  1
  Al  Al31  1  0.44568408  0.76017318  0.83166883  1
  Al  Al32  1  0.56809929  0.86636131  0.64514225  1
  B  B33  1  0.76826817  0.09937342  0.89594649  1
  B  B34  1  0.22463243  0.87004066  0.06497176  1
  B  B35  1  0.76726244  0.78220646  0.89900750  1
  N  N36  1  0.22690592  0.20030229  0.33215784  1
  N  N37  1  0.12478020  0.06678161  0.11195725  1
  N  N38  1  0.87212112  0.18947208  0.84401190  1
  N  N39  1  0.78317787  0.08652977  0.57438864  1
  N  N40  1  0.56061718  0.19691261  0.32975780  1
  N  N41  1  0.44749566  0.09690314  0.07587665  1
  N  N42  1  0.22649170  0.20587161  0.85086056  1
  N  N43  1  0.11444563  0.08566519  0.64296298  1
  N  N44  1  0.88639537  0.19879023  0.31738897  1
  N  N45  1  0.77075285  0.10003442  0.05467951  1
  N  N46  1  0.58379867  0.19070664  0.83416212  1
  N  N47  1  0.44937944  0.08885475  0.58239349  1
  N  N48  1  0.21926735  0.54197037  0.38170569  1
  N  N49  1  0.10457839  0.43960357  0.12542402  1
  N  N50  1  0.87940407  0.56008445  0.87302339  1
  N  N51  1  0.77683908  0.42772593  0.63458958  1
  N  N52  1  0.55592315  0.53962946  0.38240664  1
  N  N53  1  0.44174865  0.43405852  0.13300835  1
  N  N54  1  0.22648957  0.53711088  0.88337924  1
  N  N55  1  0.11168080  0.42999092  0.63228046  1
  N  N56  1  0.89265344  0.52985675  0.37911349  1
  N  N57  1  0.77228166  0.44008303  0.12326397  1
  N  N58  1  0.55462983  0.53934689  0.88454653  1
  N  N59  1  0.44354483  0.42879998  0.63065303  1
  N  N60  1  0.22031122  0.87100593  0.38707248  1
  N  N61  1  0.12697705  0.77423088  0.11848931  1
  N  N62  1  0.86390183  0.88264680  0.84651806  1
  N  N63  1  0.78002988  0.76261569  0.57556046  1
  N  N64  1  0.55951449  0.86951862  0.32348841  1
  N  N65  1  0.41555906  0.77459332  0.12301172  1
  N  N66  1  0.22727883  0.86731057  0.90449754  1
  N  N67  1  0.11392222  0.75980519  0.64340644  1
  N  N68  1  0.88417099  0.87182076  0.31355977  1
  N  N69  1  0.76777648  0.77785695  0.05841726  1
  N  N70  1  0.58391501  0.86187915  0.83857092  1
  N  N71  1  0.44211093  0.75952175  0.63881711  1
