# generated using pymatgen
data_Al11BN12
_symmetry_space_group_name_H-M   'P 1'
_cell_length_a   9.28957233
_cell_length_b   9.27311993
_cell_length_c   10.02566966
_cell_angle_alpha   89.82274534
_cell_angle_beta   89.69849868
_cell_angle_gamma   60.01518099
_symmetry_Int_Tables_number   1
_chemical_formula_structural   Al11BN12
_chemical_formula_sum   'Al33 B3 N36'
_cell_volume   748.04196009
_cell_formula_units_Z   3
loop_
 _symmetry_equiv_pos_site_id
 _symmetry_equiv_pos_as_xyz
  1  'x, y, z'
loop_
 _atom_site_type_symbol
 _atom_site_label
 _atom_site_symmetry_multiplicity
 _atom_site_fract_x
 _atom_site_fract_y
 _atom_site_fract_z
 _atom_site_occupancy
  Al  Al0  1  0.10599445  0.10139218  0.38777373  1
  Al  Al1  1  0.22317502  0.19835077  0.13896794  1
  Al  Al2  1  0.88543558  0.20333414  0.64327143  1
  Al  Al3  1  0.44597756  0.09383180  0.38942102  1
  Al  Al4  1  0.55813057  0.20292920  0.13557721  1
  Al  Al5  1  0.10457017  0.09454330  0.89046336  1
  Al  Al6  1  0.22134120  0.20673641  0.64066692  1
  Al  Al7  1  0.78169532  0.08918337  0.38497955  1
  Al  Al8  1  0.89182616  0.19824873  0.13155755  1
  Al  Al9  1  0.45428415  0.08905740  0.89022883  1
  Al  Al10  1  0.56056036  0.20306246  0.64169460  1
  Al  Al11  1  0.10616828  0.42851362  0.38492460  1
  Al  Al12  1  0.22341897  0.54464683  0.07005043  1
  Al  Al13  1  0.77690040  0.42781739  0.88932719  1
  Al  Al14  1  0.88574508  0.54488057  0.64196838  1
  Al  Al15  1  0.45099923  0.42416123  0.38709437  1
  Al  Al16  1  0.55090068  0.54325903  0.14029589  1
  Al  Al17  1  0.10371109  0.42902095  0.88808720  1
  Al  Al18  1  0.21621621  0.54853327  0.57370938  1
  Al  Al19  1  0.77882931  0.42732160  0.38859812  1
  Al  Al20  1  0.88574490  0.54143256  0.13309692  1
  Al  Al21  1  0.45930727  0.41772488  0.88872309  1
  Al  Al22  1  0.55608226  0.53899954  0.64052171  1
  Al  Al23  1  0.12072586  0.76461904  0.30552163  1
  Al  Al24  1  0.87583693  0.87906537  0.64909979  1
  Al  Al25  1  0.45093108  0.76016392  0.38920867  1
  Al  Al26  1  0.55058347  0.87308526  0.13457715  1
  Al  Al27  1  0.10938893  0.75935827  0.83090962  1
  Al  Al28  1  0.21678308  0.87128233  0.57436713  1
  Al  Al29  1  0.78124591  0.76368015  0.38444384  1
  Al  Al30  1  0.88675422  0.87591213  0.11470972  1
  Al  Al31  1  0.45542161  0.75580988  0.89146062  1
  Al  Al32  1  0.56120631  0.86997972  0.64356997  1
  B  B33  1  0.77084651  0.09161759  0.89446636  1
  B  B34  1  0.22307743  0.86845524  0.05407572  1
  B  B35  1  0.77042327  0.77044583  0.89483735  1
  N  N36  1  0.22347227  0.20535863  0.32888381  1
  N  N37  1  0.12148281  0.07321706  0.08182256  1
  N  N38  1  0.87687510  0.19044563  0.83542654  1
  N  N39  1  0.77956640  0.09164459  0.57445966  1
  N  N40  1  0.55858968  0.20314511  0.32585637  1
  N  N41  1  0.44400620  0.09508416  0.07797776  1
  N  N42  1  0.22290398  0.20254303  0.83060261  1
  N  N43  1  0.10487799  0.10301274  0.58343846  1
  N  N44  1  0.88716400  0.20562994  0.32315002  1
  N  N45  1  0.77480792  0.09684755  0.05455231  1
  N  N46  1  0.58195093  0.19025551  0.83460749  1
  N  N47  1  0.44590043  0.09393873  0.58243787  1
  N  N48  1  0.21855358  0.54812337  0.37315833  1
  N  N49  1  0.10834195  0.42386860  0.08130230  1
  N  N50  1  0.87653479  0.56410845  0.83413604  1
  N  N51  1  0.77926529  0.42717752  0.58132359  1
  N  N52  1  0.55705553  0.53967076  0.32930911  1
  N  N53  1  0.45307586  0.42325993  0.08074960  1
  N  N54  1  0.22635750  0.53555779  0.87458782  1
  N  N55  1  0.10575910  0.42740069  0.58029531  1
  N  N56  1  0.88580350  0.54193114  0.32393142  1
  N  N57  1  0.77693804  0.42710557  0.07790549  1
  N  N58  1  0.55829497  0.53756830  0.82859685  1
  N  N59  1  0.44971157  0.42429061  0.58159975  1
  N  N60  1  0.22001244  0.87114205  0.38220721  1
  N  N61  1  0.12928306  0.77383368  0.11266644  1
  N  N62  1  0.86199375  0.88368571  0.84577876  1
  N  N63  1  0.77940571  0.76354414  0.57428550  1
  N  N64  1  0.55807613  0.87232950  0.32499096  1
  N  N65  1  0.42648062  0.77003395  0.08210231  1
  N  N66  1  0.22275185  0.86475955  0.88955875  1
  N  N67  1  0.10946519  0.76371156  0.64108055  1
  N  N68  1  0.88498596  0.87464694  0.30994594  1
  N  N69  1  0.77401124  0.76141342  0.05613730  1
  N  N70  1  0.58056341  0.85977864  0.83675293  1
  N  N71  1  0.45034558  0.76071046  0.58476533  1
