# generated using pymatgen
data_Al11BN12
_symmetry_space_group_name_H-M   'P 1'
_cell_length_a   9.31633269
_cell_length_b   9.30534781
_cell_length_c   9.99715511
_cell_angle_alpha   89.96038598
_cell_angle_beta   89.91659575
_cell_angle_gamma   59.90137237
_symmetry_Int_Tables_number   1
_chemical_formula_structural   Al11BN12
_chemical_formula_sum   'Al33 B3 N36'
_cell_volume   749.81085706
_cell_formula_units_Z   3
loop_
 _symmetry_equiv_pos_site_id
 _symmetry_equiv_pos_as_xyz
  1  'x, y, z'
loop_
 _atom_site_type_symbol
 _atom_site_label
 _atom_site_symmetry_multiplicity
 _atom_site_fract_x
 _atom_site_fract_y
 _atom_site_fract_z
 _atom_site_occupancy
  Al  Al0  1  0.10418406  0.10269654  0.38810965  1
  Al  Al1  1  0.22321961  0.19889159  0.13785016  1
  Al  Al2  1  0.88613841  0.20261755  0.64189038  1
  Al  Al3  1  0.44569503  0.09282904  0.38719586  1
  Al  Al4  1  0.56050899  0.19906053  0.13060058  1
  Al  Al5  1  0.10720400  0.09184881  0.89183010  1
  Al  Al6  1  0.22122000  0.20652294  0.63860435  1
  Al  Al7  1  0.77971752  0.09064212  0.38442027  1
  Al  Al8  1  0.89337874  0.19708385  0.13183030  1
  Al  Al9  1  0.45501889  0.08924363  0.88769406  1
  Al  Al10  1  0.56117494  0.20234893  0.63995914  1
  Al  Al11  1  0.10473056  0.42800450  0.38523771  1
  Al  Al12  1  0.22283569  0.54572271  0.06887224  1
  Al  Al13  1  0.78161134  0.42521256  0.88868683  1
  Al  Al14  1  0.88600382  0.54505876  0.64055848  1
  Al  Al15  1  0.44492072  0.42746519  0.35504361  1
  Al  Al16  1  0.55667128  0.53873787  0.12606750  1
  Al  Al17  1  0.10423539  0.42845289  0.88689057  1
  Al  Al18  1  0.22047925  0.54630309  0.57288613  1
  Al  Al19  1  0.77434133  0.43040096  0.38734136  1
  Al  Al20  1  0.88821473  0.54035497  0.13281583  1
  Al  Al21  1  0.45601628  0.41720060  0.87708006  1
  Al  Al22  1  0.55696373  0.53600607  0.64226242  1
  Al  Al23  1  0.11526383  0.76583014  0.30830587  1
  Al  Al24  1  0.87795943  0.87822847  0.64690320  1
  Al  Al25  1  0.43063773  0.77162255  0.31230532  1
  Al  Al26  1  0.55512428  0.87515061  0.12432055  1
  Al  Al27  1  0.11052710  0.76078203  0.83028189  1
  Al  Al28  1  0.22347726  0.86856458  0.57338748  1
  Al  Al29  1  0.77765354  0.76386663  0.38270183  1
  Al  Al30  1  0.88858675  0.87530581  0.11460497  1
  Al  Al31  1  0.44758286  0.76222253  0.83587447  1
  Al  Al32  1  0.56330726  0.87339241  0.64177923  1
  B  B33  1  0.77309668  0.08932592  0.89334094  1
  B  B34  1  0.22741942  0.86604616  0.05815232  1
  B  B35  1  0.77254724  0.77035806  0.89413248  1
  N  N36  1  0.22267330  0.20506825  0.32826115  1
  N  N37  1  0.12151344  0.07386724  0.08323119  1
  N  N38  1  0.88051380  0.18759391  0.83431672  1
  N  N39  1  0.77957432  0.09146452  0.57359806  1
  N  N40  1  0.55843862  0.20050362  0.32219735  1
  N  N41  1  0.44277251  0.09652989  0.07446943  1
  N  N42  1  0.22380875  0.20109971  0.82926007  1
  N  N43  1  0.10503341  0.10253474  0.58165184  1
  N  N44  1  0.88528393  0.20648383  0.32348945  1
  N  N45  1  0.77705962  0.09551607  0.05373488  1
  N  N46  1  0.58444852  0.18719468  0.83447723  1
  N  N47  1  0.44591303  0.09419853  0.57985697  1
  N  N48  1  0.21682525  0.54795513  0.37213133  1
  N  N49  1  0.10960490  0.42366359  0.08060206  1
  N  N50  1  0.87796071  0.56320058  0.83265325  1
  N  N51  1  0.77759126  0.42867880  0.58057768  1
  N  N52  1  0.55710428  0.54031598  0.32200723  1
  N  N53  1  0.45022167  0.42230745  0.08685491  1
  N  N54  1  0.22426362  0.53740830  0.87510470  1
  N  N55  1  0.10604405  0.42789972  0.57953372  1
  N  N56  1  0.88486851  0.54184525  0.32365004  1
  N  N57  1  0.78301769  0.42388296  0.07654939  1
  N  N58  1  0.56336761  0.53210035  0.83686686  1
  N  N59  1  0.44639679  0.42542508  0.59744357  1
  N  N60  1  0.22103374  0.86990132  0.38316462  1
  N  N61  1  0.12855350  0.77365676  0.11518352  1
  N  N62  1  0.86487842  0.88335933  0.84473876  1
  N  N63  1  0.77891536  0.76363784  0.57273730  1
  N  N64  1  0.55808374  0.87453169  0.31948029  1
  N  N65  1  0.41642867  0.77681619  0.11303916  1
  N  N66  1  0.22919647  0.86014826  0.89719115  1
  N  N67  1  0.11067347  0.76412744  0.63878310  1
  N  N68  1  0.88233325  0.87539763  0.31083914  1
  N  N69  1  0.77821382  0.75972857  0.05490706  1
  N  N70  1  0.58565145  0.86123162  0.83871232  1
  N  N71  1  0.43810674  0.76906740  0.63794940  1
