# generated using pymatgen
data_Al11BN12
_symmetry_space_group_name_H-M   'P 1'
_cell_length_a   9.30221960
_cell_length_b   9.28977728
_cell_length_c   10.05839745
_cell_angle_alpha   90.09034528
_cell_angle_beta   90.04337986
_cell_angle_gamma   59.92044745
_symmetry_Int_Tables_number   1
_chemical_formula_structural   Al11BN12
_chemical_formula_sum   'Al33 B3 N36'
_cell_volume   752.14586867
_cell_formula_units_Z   3
loop_
 _symmetry_equiv_pos_site_id
 _symmetry_equiv_pos_as_xyz
  1  'x, y, z'
loop_
 _atom_site_type_symbol
 _atom_site_label
 _atom_site_symmetry_multiplicity
 _atom_site_fract_x
 _atom_site_fract_y
 _atom_site_fract_z
 _atom_site_occupancy
  Al  Al0  1  0.11252647  0.08869480  0.31697117  1
  Al  Al1  1  0.21441491  0.20502353  0.06921120  1
  Al  Al2  1  0.89423407  0.20577942  0.57255009  1
  Al  Al3  1  0.44683077  0.09073637  0.35582035  1
  Al  Al4  1  0.55856831  0.20399353  0.13141860  1
  Al  Al5  1  0.10733501  0.09103226  0.82469512  1
  Al  Al6  1  0.22518384  0.20264183  0.57487633  1
  Al  Al7  1  0.77868318  0.08685423  0.38963861  1
  Al  Al8  1  0.89358300  0.20093094  0.06427270  1
  Al  Al9  1  0.45512826  0.09135310  0.88070768  1
  Al  Al10  1  0.56707929  0.19695615  0.64675679  1
  Al  Al11  1  0.11011803  0.42872494  0.32142459  1
  Al  Al12  1  0.22326177  0.54221751  0.07064819  1
  Al  Al13  1  0.77735479  0.42781807  0.82058755  1
  Al  Al14  1  0.89231306  0.53364923  0.57226054  1
  Al  Al15  1  0.44203929  0.43337133  0.32297459  1
  Al  Al16  1  0.55076298  0.54269083  0.07094474  1
  Al  Al17  1  0.10642414  0.43378645  0.81904130  1
  Al  Al18  1  0.22137871  0.54211479  0.57562291  1
  Al  Al19  1  0.77940335  0.42662596  0.31916672  1
  Al  Al20  1  0.88975536  0.53762536  0.06390927  1
  Al  Al21  1  0.44771946  0.43013727  0.82639838  1
  Al  Al22  1  0.55475162  0.54099815  0.57394369  1
  Al  Al23  1  0.11781081  0.76124874  0.31493975  1
  Al  Al24  1  0.87940933  0.87654204  0.65392929  1
  Al  Al25  1  0.43636104  0.75967027  0.31620052  1
  Al  Al26  1  0.55274185  0.87261431  0.12461405  1
  Al  Al27  1  0.10880220  0.76441133  0.83932095  1
  Al  Al28  1  0.22248437  0.87044014  0.57697583  1
  Al  Al29  1  0.77619368  0.76649528  0.38827503  1
  Al  Al30  1  0.88786337  0.87629645  0.12450057  1
  Al  Al31  1  0.44506391  0.75899701  0.83554532  1
  Al  Al32  1  0.56610640  0.86857930  0.65116884  1
  B  B33  1  0.76813964  0.09172811  0.90149807  1
  B  B34  1  0.22291664  0.87037679  0.06699235  1
  B  B35  1  0.76948824  0.77538133  0.90251192  1
  N  N36  1  0.22012928  0.20428965  0.37898096  1
  N  N37  1  0.12067838  0.07023179  0.12506677  1
  N  N38  1  0.87994976  0.19516865  0.87438660  1
  N  N39  1  0.78017404  0.08765908  0.57828241  1
  N  N40  1  0.56197325  0.20002586  0.32514190  1
  N  N41  1  0.44338695  0.09701781  0.08423723  1
  N  N42  1  0.21359990  0.21003480  0.87949033  1
  N  N43  1  0.11328712  0.09222299  0.63532894  1
  N  N44  1  0.89317014  0.20574069  0.37782875  1
  N  N45  1  0.77098590  0.09254854  0.06056158  1
  N  N46  1  0.58507587  0.19266234  0.84252383  1
  N  N47  1  0.44797394  0.09192926  0.61204055  1
  N  N48  1  0.22038881  0.54200232  0.38324111  1
  N  N49  1  0.10892747  0.43084635  0.13172340  1
  N  N50  1  0.88056919  0.55743818  0.87403064  1
  N  N51  1  0.77777962  0.42744946  0.63188492  1
  N  N52  1  0.55598827  0.54054742  0.38238378  1
  N  N53  1  0.44077716  0.43545068  0.13169139  1
  N  N54  1  0.22427113  0.53594428  0.88397221  1
  N  N55  1  0.11278834  0.42720272  0.63057430  1
  N  N56  1  0.89133817  0.53338738  0.38001357  1
  N  N57  1  0.77824665  0.42753453  0.12864088  1
  N  N58  1  0.55875270  0.53723226  0.88539979  1
  N  N59  1  0.44409975  0.43039455  0.63422570  1
  N  N60  1  0.22190940  0.87111235  0.38749691  1
  N  N61  1  0.12696532  0.77278355  0.11967696  1
  N  N62  1  0.86292587  0.88499020  0.84960777  1
  N  N63  1  0.77744122  0.76659366  0.57837048  1
  N  N64  1  0.56130888  0.86664722  0.31840455  1
  N  N65  1  0.41541203  0.77234437  0.12146882  1
  N  N66  1  0.22293402  0.87385610  0.90490624  1
  N  N67  1  0.11315722  0.76157976  0.64542327  1
  N  N68  1  0.88499868  0.87240363  0.31655316  1
  N  N69  1  0.77298700  0.77050322  0.06144852  1
  N  N70  1  0.58453673  0.85781908  0.84672147  1
  N  N71  1  0.44171244  0.75993330  0.64218130  1
