# generated using pymatgen
data_Al11BN12
_symmetry_space_group_name_H-M   'P 1'
_cell_length_a   9.27547896
_cell_length_b   9.25652428
_cell_length_c   10.07151533
_cell_angle_alpha   90.18070998
_cell_angle_beta   89.72016731
_cell_angle_gamma   60.04852793
_symmetry_Int_Tables_number   1
_chemical_formula_structural   Al11BN12
_chemical_formula_sum   'Al33 B3 N36'
_cell_volume   749.21708885
_cell_formula_units_Z   3
loop_
 _symmetry_equiv_pos_site_id
 _symmetry_equiv_pos_as_xyz
  1  'x, y, z'
loop_
 _atom_site_type_symbol
 _atom_site_label
 _atom_site_symmetry_multiplicity
 _atom_site_fract_x
 _atom_site_fract_y
 _atom_site_fract_z
 _atom_site_occupancy
  Al  Al0  1  0.11492852  0.08873199  0.30657770  1
  Al  Al1  1  0.22201550  0.20270470  0.05997965  1
  Al  Al2  1  0.89218835  0.20267976  0.55832976  1
  Al  Al3  1  0.44322191  0.09427998  0.30840928  1
  Al  Al4  1  0.55929664  0.20527028  0.06649446  1
  Al  Al5  1  0.10906740  0.08806484  0.81739616  1
  Al  Al6  1  0.22191471  0.20355785  0.56209235  1
  Al  Al7  1  0.77947395  0.09146181  0.34644962  1
  Al  Al8  1  0.89167222  0.19748387  0.06406689  1
  Al  Al9  1  0.45540559  0.08856769  0.81140173  1
  Al  Al10  1  0.55274403  0.20582590  0.55702576  1
  Al  Al11  1  0.11149402  0.42738675  0.31216449  1
  Al  Al12  1  0.22534583  0.54246550  0.06090969  1
  Al  Al13  1  0.77553978  0.42785130  0.81152105  1
  Al  Al14  1  0.89156674  0.53185957  0.56538609  1
  Al  Al15  1  0.44450707  0.42776980  0.31044528  1
  Al  Al16  1  0.55154699  0.54294712  0.06077679  1
  Al  Al17  1  0.10786230  0.43310440  0.81032376  1
  Al  Al18  1  0.21910212  0.54320365  0.56490773  1
  Al  Al19  1  0.78000990  0.42720508  0.30729218  1
  Al  Al20  1  0.89267380  0.53795875  0.05588937  1
  Al  Al21  1  0.45227396  0.42263553  0.81075943  1
  Al  Al22  1  0.55566606  0.53831362  0.56108084  1
  Al  Al23  1  0.12236201  0.75789327  0.30689141  1
  Al  Al24  1  0.87418128  0.87993526  0.64127985  1
  Al  Al25  1  0.44049705  0.76304409  0.30805182  1
  Al  Al26  1  0.54485944  0.87771279  0.06025801  1
  Al  Al27  1  0.11201057  0.76364183  0.82879742  1
  Al  Al28  1  0.21745388  0.87126277  0.56596709  1
  Al  Al29  1  0.78339216  0.76206234  0.38326070  1
  Al  Al30  1  0.88997977  0.87718514  0.12506378  1
  Al  Al31  1  0.44991834  0.75969382  0.81621644  1
  Al  Al32  1  0.54761916  0.87440740  0.56320759  1
  B  B33  1  0.77337946  0.08951051  0.86041837  1
  B  B34  1  0.22455237  0.87182625  0.05820093  1
  B  B35  1  0.76880268  0.77736336  0.89785511  1
  N  N36  1  0.22207585  0.20336038  0.37060488  1
  N  N37  1  0.12437588  0.06999186  0.11297187  1
  N  N38  1  0.87457161  0.18507440  0.86936858  1
  N  N39  1  0.78058108  0.08663258  0.56795761  1
  N  N40  1  0.54620420  0.20935925  0.36843322  1
  N  N41  1  0.44240462  0.09738648  0.11900692  1
  N  N42  1  0.22152867  0.20588321  0.87098365  1
  N  N43  1  0.11067614  0.09305914  0.62791760  1
  N  N44  1  0.89597152  0.20786975  0.36704248  1
  N  N45  1  0.77280089  0.10415587  0.12548380  1
  N  N46  1  0.58292037  0.19112577  0.87069447  1
  N  N47  1  0.44353804  0.09522200  0.62411250  1
  N  N48  1  0.22206944  0.54070598  0.37335126  1
  N  N49  1  0.11133628  0.43006389  0.12163235  1
  N  N50  1  0.88025435  0.55831693  0.86558313  1
  N  N51  1  0.77740589  0.42417738  0.62384558  1
  N  N52  1  0.55629335  0.53976590  0.36956988  1
  N  N53  1  0.44441556  0.42913599  0.12127109  1
  N  N54  1  0.22691812  0.53458884  0.87363914  1
  N  N55  1  0.11245528  0.42633724  0.62223295  1
  N  N56  1  0.89252517  0.53105693  0.37187802  1
  N  N57  1  0.77948327  0.42975162  0.11630786  1
  N  N58  1  0.55652139  0.53793713  0.87307090  1
  N  N59  1  0.44418617  0.42699979  0.62250358  1
  N  N60  1  0.22199821  0.87159244  0.37743640  1
  N  N61  1  0.13056980  0.77301842  0.11044560  1
  N  N62  1  0.85953820  0.89522430  0.84210180  1
  N  N63  1  0.77824171  0.76282324  0.57510481  1
  N  N64  1  0.55009483  0.87363943  0.36789262  1
  N  N65  1  0.42141683  0.77385075  0.11512178  1
  N  N66  1  0.22799594  0.87132720  0.89438050  1
  N  N67  1  0.11049134  0.76154329  0.63731256  1
  N  N68  1  0.89313253  0.86089264  0.31397678  1
  N  N69  1  0.78022722  0.77105448  0.05602832  1
  N  N70  1  0.57407268  0.86400259  0.86955165  1
  N  N71  1  0.44085026  0.76105059  0.62672333  1
