# generated using pymatgen
data_Al11BN12
_symmetry_space_group_name_H-M   'P 1'
_cell_length_a   9.30208324
_cell_length_b   9.28048427
_cell_length_c   10.10333095
_cell_angle_alpha   89.75703050
_cell_angle_beta   90.02091629
_cell_angle_gamma   59.98469232
_symmetry_Int_Tables_number   1
_chemical_formula_structural   Al11BN12
_chemical_formula_sum   'Al33 B3 N36'
_cell_volume   755.21979596
_cell_formula_units_Z   3
loop_
 _symmetry_equiv_pos_site_id
 _symmetry_equiv_pos_as_xyz
  1  'x, y, z'
loop_
 _atom_site_type_symbol
 _atom_site_label
 _atom_site_symmetry_multiplicity
 _atom_site_fract_x
 _atom_site_fract_y
 _atom_site_fract_z
 _atom_site_occupancy
  Al  Al0  1  0.11175086  0.08882147  0.33843122  1
  Al  Al1  1  0.22637430  0.20161027  0.12913180  1
  Al  Al2  1  0.88967888  0.19267784  0.64836428  1
  Al  Al3  1  0.44604884  0.08986785  0.38984773  1
  Al  Al4  1  0.55964784  0.20159315  0.13615095  1
  Al  Al5  1  0.10815405  0.09225503  0.88160965  1
  Al  Al6  1  0.22777895  0.19639797  0.64540910  1
  Al  Al7  1  0.78133393  0.08794655  0.38705072  1
  Al  Al8  1  0.88725731  0.20130820  0.12158224  1
  Al  Al9  1  0.45749725  0.09136480  0.89090172  1
  Al  Al10  1  0.56482304  0.19583274  0.63960075  1
  Al  Al11  1  0.10799003  0.43332241  0.31841561  1
  Al  Al12  1  0.22478849  0.54396246  0.06872437  1
  Al  Al13  1  0.77310856  0.43561076  0.82488819  1
  Al  Al14  1  0.89441465  0.52657960  0.57092879  1
  Al  Al15  1  0.44268589  0.43042008  0.32357158  1
  Al  Al16  1  0.54756069  0.54654753  0.06943268  1
  Al  Al17  1  0.10517464  0.44005897  0.82091161  1
  Al  Al18  1  0.22035756  0.54153717  0.57276940  1
  Al  Al19  1  0.77482279  0.43209210  0.31520123  1
  Al  Al20  1  0.88762684  0.54373257  0.05998083  1
  Al  Al21  1  0.44808492  0.42879510  0.82240358  1
  Al  Al22  1  0.55633287  0.53890762  0.57272120  1
  Al  Al23  1  0.11695619  0.76045414  0.31148345  1
  Al  Al24  1  0.88032256  0.87223760  0.65026551  1
  Al  Al25  1  0.43694797  0.75965022  0.31619118  1
  Al  Al26  1  0.55238448  0.87721904  0.13128505  1
  Al  Al27  1  0.10991781  0.76350416  0.83437333  1
  Al  Al28  1  0.22116974  0.87083328  0.57551158  1
  Al  Al29  1  0.77726362  0.76422104  0.38647004  1
  Al  Al30  1  0.88705084  0.87957607  0.11973908  1
  Al  Al31  1  0.44635662  0.75981806  0.82974135  1
  Al  Al32  1  0.56706773  0.86778796  0.64444631  1
  B  B33  1  0.76882358  0.09851024  0.89538001  1
  B  B34  1  0.22686304  0.86607031  0.06314704  1
  B  B35  1  0.76659006  0.78426705  0.89848410  1
  N  N36  1  0.22864617  0.19895799  0.32345163  1
  N  N37  1  0.12115152  0.07447543  0.09238584  1
  N  N38  1  0.87519384  0.18761114  0.84344891  1
  N  N39  1  0.78186681  0.08766724  0.57463549  1
  N  N40  1  0.56035301  0.19642643  0.32841305  1
  N  N41  1  0.44527027  0.09836267  0.07553518  1
  N  N42  1  0.22888790  0.20180453  0.83977554  1
  N  N43  1  0.11060693  0.09177344  0.61508919  1
  N  N44  1  0.88572934  0.19780579  0.31609058  1
  N  N45  1  0.77108954  0.10040952  0.05431555  1
  N  N46  1  0.58384123  0.19045555  0.83420787  1
  N  N47  1  0.44747566  0.09029330  0.58049889  1
  N  N48  1  0.22014117  0.54142967  0.38208682  1
  N  N49  1  0.10461792  0.44081712  0.12740348  1
  N  N50  1  0.88119860  0.55742236  0.87311414  1
  N  N51  1  0.77606116  0.42751760  0.63542451  1
  N  N52  1  0.55614907  0.53911355  0.38247821  1
  N  N53  1  0.44184700  0.43465637  0.13296456  1
  N  N54  1  0.22655858  0.53639688  0.88326624  1
  N  N55  1  0.11186809  0.43012279  0.63138440  1
  N  N56  1  0.89261016  0.52862943  0.38054864  1
  N  N57  1  0.77211950  0.44091075  0.12435015  1
  N  N58  1  0.55558240  0.53884069  0.88459935  1
  N  N59  1  0.44311271  0.42941021  0.63107086  1
  N  N60  1  0.22264632  0.86694234  0.38529632  1
  N  N61  1  0.12722823  0.77483218  0.11837859  1
  N  N62  1  0.86381148  0.88302927  0.84598590  1
  N  N63  1  0.77924510  0.76274768  0.57516464  1
  N  N64  1  0.55972804  0.86939529  0.32216041  1
  N  N65  1  0.41512496  0.77533076  0.12258656  1
  N  N66  1  0.23027880  0.86184384  0.90301473  1
  N  N67  1  0.11327475  0.76001837  0.64272151  1
  N  N68  1  0.88439775  0.87104922  0.31316453  1
  N  N69  1  0.76804807  0.77793419  0.05713019  1
  N  N70  1  0.58387154  0.86272141  0.83797226  1
  N  N71  1  0.44221710  0.75955843  0.63837327  1
