# generated using pymatgen
data_Al11BN12
_symmetry_space_group_name_H-M   'P 1'
_cell_length_a   9.26866034
_cell_length_b   9.29361734
_cell_length_c   10.08776712
_cell_angle_alpha   89.98637059
_cell_angle_beta   89.69218004
_cell_angle_gamma   60.16811906
_symmetry_Int_Tables_number   1
_chemical_formula_structural   Al11BN12
_chemical_formula_sum   'Al33 B3 N36'
_cell_volume   753.79403128
_cell_formula_units_Z   3
loop_
 _symmetry_equiv_pos_site_id
 _symmetry_equiv_pos_as_xyz
  1  'x, y, z'
loop_
 _atom_site_type_symbol
 _atom_site_label
 _atom_site_symmetry_multiplicity
 _atom_site_fract_x
 _atom_site_fract_y
 _atom_site_fract_z
 _atom_site_occupancy
  Al  Al0  1  0.11422901  0.08882347  0.31009444  1
  Al  Al1  1  0.22321415  0.20150092  0.06280610  1
  Al  Al2  1  0.89334964  0.20524638  0.56594010  1
  Al  Al3  1  0.44390603  0.09470002  0.31292621  1
  Al  Al4  1  0.54915453  0.20971715  0.06354178  1
  Al  Al5  1  0.11049492  0.08841349  0.82062587  1
  Al  Al6  1  0.22203989  0.20421598  0.56389984  1
  Al  Al7  1  0.78282463  0.08522651  0.38177746  1
  Al  Al8  1  0.89638222  0.20223684  0.06092382  1
  Al  Al9  1  0.45558661  0.09249430  0.81243122  1
  Al  Al10  1  0.54877705  0.21057998  0.56425569  1
  Al  Al11  1  0.11039580  0.42768778  0.31462821  1
  Al  Al12  1  0.22520780  0.54057156  0.06400728  1
  Al  Al13  1  0.77952030  0.41801045  0.81299732  1
  Al  Al14  1  0.89137585  0.53359736  0.57083121  1
  Al  Al15  1  0.44414420  0.42849395  0.31504285  1
  Al  Al16  1  0.55258238  0.54125904  0.06354856  1
  Al  Al17  1  0.11351781  0.42263469  0.81327936  1
  Al  Al18  1  0.21610150  0.54629101  0.56852908  1
  Al  Al19  1  0.77910646  0.42750212  0.31205413  1
  Al  Al20  1  0.89340017  0.53331263  0.05062523  1
  Al  Al21  1  0.45065106  0.42464141  0.81377677  1
  Al  Al22  1  0.55442730  0.54086805  0.56423100  1
  Al  Al23  1  0.12094705  0.75970642  0.30856152  1
  Al  Al24  1  0.87037513  0.88197903  0.65214306  1
  Al  Al25  1  0.43958144  0.76316880  0.31144162  1
  Al  Al26  1  0.54371085  0.87698641  0.06589163  1
  Al  Al27  1  0.11172595  0.76126892  0.83381882  1
  Al  Al28  1  0.21719815  0.87185252  0.57050373  1
  Al  Al29  1  0.78358730  0.76246543  0.38439526  1
  Al  Al30  1  0.89192942  0.87616371  0.12338178  1
  Al  Al31  1  0.45284026  0.75942226  0.82069114  1
  Al  Al32  1  0.54807679  0.87505161  0.56521658  1
  B  B33  1  0.77377386  0.09352622  0.90107604  1
  B  B34  1  0.22526525  0.87016319  0.06064500  1
  B  B35  1  0.75624257  0.81376029  0.90754047  1
  N  N36  1  0.22160834  0.20391270  0.37312109  1
  N  N37  1  0.12457873  0.06886742  0.11729997  1
  N  N38  1  0.87963696  0.18773202  0.86965444  1
  N  N39  1  0.78022630  0.08741391  0.57340336  1
  N  N40  1  0.54954308  0.20880904  0.37202117  1
  N  N41  1  0.44354362  0.09551586  0.12492926  1
  N  N42  1  0.23083932  0.19739061  0.87439166  1
  N  N43  1  0.11248410  0.09287123  0.63034797  1
  N  N44  1  0.89390875  0.20618787  0.36986586  1
  N  N45  1  0.77880869  0.08969741  0.06294828  1
  N  N46  1  0.57356768  0.19925914  0.87235114  1
  N  N47  1  0.44403695  0.09498664  0.62499099  1
  N  N48  1  0.21924611  0.54339204  0.37614655  1
  N  N49  1  0.11118242  0.42867107  0.12484468  1
  N  N50  1  0.89734494  0.51863854  0.86824118  1
  N  N51  1  0.77547207  0.42545426  0.62411259  1
  N  N52  1  0.55466749  0.54146740  0.37325700  1
  N  N53  1  0.44521447  0.42770097  0.12641392  1
  N  N54  1  0.22581237  0.53339085  0.87706524  1
  N  N55  1  0.11435891  0.42506362  0.62416109  1
  N  N56  1  0.89191692  0.53243102  0.37556375  1
  N  N57  1  0.77863144  0.42824088  0.12267659  1
  N  N58  1  0.55772683  0.53780684  0.87593295  1
  N  N59  1  0.44166646  0.43085454  0.62480469  1
  N  N60  1  0.22061901  0.87203453  0.38123329  1
  N  N61  1  0.13158051  0.77079747  0.11360141  1
  N  N62  1  0.85576172  0.89286154  0.84699184  1
  N  N63  1  0.77935827  0.76491808  0.57610047  1
  N  N64  1  0.54982469  0.87375619  0.37026879  1
  N  N65  1  0.42153887  0.77228681  0.11825822  1
  N  N66  1  0.22841185  0.87007240  0.89794292  1
  N  N67  1  0.10781148  0.76404019  0.64217365  1
  N  N68  1  0.88607119  0.87199734  0.31088727  1
  N  N69  1  0.78140296  0.76905113  0.05642708  1
  N  N70  1  0.57457373  0.87032046  0.87413648  1
  N  N71  1  0.44152503  0.76253009  0.63095557  1
