# generated using pymatgen
data_Al11BN12
_symmetry_space_group_name_H-M   'P 1'
_cell_length_a   9.30368692
_cell_length_b   9.29413741
_cell_length_c   10.05512999
_cell_angle_alpha   90.09156119
_cell_angle_beta   90.04261026
_cell_angle_gamma   59.91375176
_symmetry_Int_Tables_number   1
_chemical_formula_structural   Al11BN12
_chemical_formula_sum   'Al33 B3 N36'
_cell_volume   752.32214038
_cell_formula_units_Z   3
loop_
 _symmetry_equiv_pos_site_id
 _symmetry_equiv_pos_as_xyz
  1  'x, y, z'
loop_
 _atom_site_type_symbol
 _atom_site_label
 _atom_site_symmetry_multiplicity
 _atom_site_fract_x
 _atom_site_fract_y
 _atom_site_fract_z
 _atom_site_occupancy
  Al  Al0  1  0.11248844  0.08859708  0.31718014  1
  Al  Al1  1  0.21456437  0.20493721  0.06908701  1
  Al  Al2  1  0.89436174  0.20578034  0.57259303  1
  Al  Al3  1  0.44448682  0.09205530  0.34043132  1
  Al  Al4  1  0.55914988  0.20485982  0.13035029  1
  Al  Al5  1  0.10730150  0.09104945  0.82469063  1
  Al  Al6  1  0.22688048  0.20180220  0.57490316  1
  Al  Al7  1  0.77851402  0.08686534  0.38973202  1
  Al  Al8  1  0.89380218  0.20090737  0.06434140  1
  Al  Al9  1  0.45361863  0.09200672  0.87169933  1
  Al  Al10  1  0.56732876  0.19735077  0.64702096  1
  Al  Al11  1  0.11007601  0.42883302  0.32165947  1
  Al  Al12  1  0.22312596  0.54226823  0.07070006  1
  Al  Al13  1  0.77741196  0.42778502  0.82062470  1
  Al  Al14  1  0.89241355  0.53355417  0.57229648  1
  Al  Al15  1  0.44208147  0.43343269  0.32307371  1
  Al  Al16  1  0.55077279  0.54270115  0.07093676  1
  Al  Al17  1  0.10639044  0.43379999  0.81902698  1
  Al  Al18  1  0.22136057  0.54208016  0.57568431  1
  Al  Al19  1  0.77941233  0.42663548  0.31924255  1
  Al  Al20  1  0.88993748  0.53745779  0.06397835  1
  Al  Al21  1  0.44774187  0.43027751  0.82660280  1
  Al  Al22  1  0.55478827  0.54097047  0.57395100  1
  Al  Al23  1  0.11778075  0.76125950  0.31500983  1
  Al  Al24  1  0.87936757  0.87656824  0.65398123  1
  Al  Al25  1  0.43642713  0.75952494  0.31625500  1
  Al  Al26  1  0.55329878  0.87120113  0.12331990  1
  Al  Al27  1  0.10872068  0.76443411  0.83935163  1
  Al  Al28  1  0.22246434  0.87049773  0.57703045  1
  Al  Al29  1  0.77595660  0.76668386  0.38834825  1
  Al  Al30  1  0.88796963  0.87624405  0.12466568  1
  Al  Al31  1  0.44504503  0.75882705  0.83574714  1
  Al  Al32  1  0.56635936  0.86792288  0.65147370  1
  B  B33  1  0.76814430  0.09189321  0.90178593  1
  B  B34  1  0.22286385  0.87034375  0.06700073  1
  B  B35  1  0.76955775  0.77528192  0.90281284  1
  N  N36  1  0.22132170  0.20369784  0.37939765  1
  N  N37  1  0.12067892  0.07021740  0.12519967  1
  N  N38  1  0.88008152  0.19524799  0.87443779  1
  N  N39  1  0.78012467  0.08767101  0.57837044  1
  N  N40  1  0.56225759  0.20053889  0.32537320  1
  N  N41  1  0.44212618  0.09753833  0.09118990  1
  N  N42  1  0.21338184  0.21015660  0.88033506  1
  N  N43  1  0.11342560  0.09229841  0.63523128  1
  N  N44  1  0.89321394  0.20574686  0.37789581  1
  N  N45  1  0.77152161  0.09228270  0.06068650  1
  N  N46  1  0.58550186  0.19323807  0.84371910  1
  N  N47  1  0.44595526  0.09312847  0.62408341  1
  N  N48  1  0.22038953  0.54204955  0.38324037  1
  N  N49  1  0.10893672  0.43081602  0.13188716  1
  N  N50  1  0.88069417  0.55723633  0.87406831  1
  N  N51  1  0.77778915  0.42744488  0.63187754  1
  N  N52  1  0.55599821  0.54051777  0.38239732  1
  N  N53  1  0.44065077  0.43578686  0.13161974  1
  N  N54  1  0.22421389  0.53596734  0.88395895  1
  N  N55  1  0.11290376  0.42700349  0.63045823  1
  N  N56  1  0.89136380  0.53337290  0.38008739  1
  N  N57  1  0.77823345  0.42754271  0.12866059  1
  N  N58  1  0.55880671  0.53722057  0.88540283  1
  N  N59  1  0.44414035  0.43047473  0.63426721  1
  N  N60  1  0.22192077  0.87104868  0.38750149  1
  N  N61  1  0.12695911  0.77276945  0.11968149  1
  N  N62  1  0.86283772  0.88500306  0.84961826  1
  N  N63  1  0.77731199  0.76668853  0.57844345  1
  N  N64  1  0.56172485  0.86561246  0.31839702  1
  N  N65  1  0.41529315  0.77215968  0.12135853  1
  N  N66  1  0.22284795  0.87389274  0.90487872  1
  N  N67  1  0.11314125  0.76158655  0.64539844  1
  N  N68  1  0.88495743  0.87242834  0.31670152  1
  N  N69  1  0.77354851  0.77024200  0.06156691  1
  N  N70  1  0.58484611  0.85694390  0.84802382  1
  N  N71  1  0.44176641  0.75980446  0.64222075  1
