# generated using pymatgen
data_Al11BN12
_symmetry_space_group_name_H-M   'P 1'
_cell_length_a   9.28957588
_cell_length_b   9.27312207
_cell_length_c   10.02565841
_cell_angle_alpha   89.82274277
_cell_angle_beta   89.69847135
_cell_angle_gamma   60.01518106
_symmetry_Int_Tables_number   1
_chemical_formula_structural   Al11BN12
_chemical_formula_sum   'Al33 B3 N36'
_cell_volume   748.04157823
_cell_formula_units_Z   3
loop_
 _symmetry_equiv_pos_site_id
 _symmetry_equiv_pos_as_xyz
  1  'x, y, z'
loop_
 _atom_site_type_symbol
 _atom_site_label
 _atom_site_symmetry_multiplicity
 _atom_site_fract_x
 _atom_site_fract_y
 _atom_site_fract_z
 _atom_site_occupancy
  Al  Al0  1  0.10603108  0.10137013  0.39334008  1
  Al  Al1  1  0.22321155  0.19833074  0.14453587  1
  Al  Al2  1  0.88547289  0.20331336  0.64884834  1
  Al  Al3  1  0.44601322  0.09381088  0.39499441  1
  Al  Al4  1  0.55816709  0.20290779  0.14115457  1
  Al  Al5  1  0.10460799  0.09452125  0.89603671  1
  Al  Al6  1  0.22137726  0.20671473  0.64623835  1
  Al  Al7  1  0.78173296  0.08916131  0.39056027  1
  Al  Al8  1  0.89186114  0.19822804  0.13712783  1
  Al  Al9  1  0.45432106  0.08903587  0.89580125  1
  Al  Al10  1  0.56059483  0.20304303  0.64727120  1
  Al  Al11  1  0.10620452  0.42849067  0.39050061  1
  Al  Al12  1  0.22345526  0.54462504  0.07562550  1
  Al  Al13  1  0.77693700  0.42779691  0.89489704  1
  Al  Al14  1  0.88578116  0.54485919  0.64754565  1
  Al  Al15  1  0.45103584  0.42413970  0.39266400  1
  Al  Al16  1  0.55093777  0.54323683  0.14586564  1
  Al  Al17  1  0.10374820  0.42900080  0.89365672  1
  Al  Al18  1  0.21625223  0.54851398  0.57927746  1
  Al  Al19  1  0.77886615  0.42729902  0.39416853  1
  Al  Al20  1  0.88578165  0.54141128  0.13867295  1
  Al  Al21  1  0.45934287  0.41770459  0.89429332  1
  Al  Al22  1  0.55611770  0.53897949  0.64609131  1
  Al  Al23  1  0.12076179  0.76459760  0.31109210  1
  Al  Al24  1  0.87587174  0.87904540  0.65467876  1
  Al  Al25  1  0.45096757  0.76014181  0.39477980  1
  Al  Al26  1  0.55062003  0.87306457  0.14015723  1
  Al  Al27  1  0.10942853  0.75933612  0.83647904  1
  Al  Al28  1  0.21681827  0.87126274  0.57993711  1
  Al  Al29  1  0.78128351  0.76365849  0.39002611  1
  Al  Al30  1  0.88678937  0.87589111  0.12028487  1
  Al  Al31  1  0.45545894  0.75578820  0.89703838  1
  Al  Al32  1  0.56124046  0.86995874  0.64914763  1
  B  B33  1  0.77088297  0.09159529  0.90004210  1
  B  B34  1  0.22311266  0.86843443  0.05964987  1
  B  B35  1  0.77045956  0.77042447  0.90041398  1
  N  N36  1  0.22350901  0.20533773  0.33445397  1
  N  N37  1  0.12151914  0.07319530  0.08739612  1
  N  N38  1  0.87691283  0.19042460  0.84100235  1
  N  N39  1  0.77960205  0.09162443  0.58003940  1
  N  N40  1  0.55862780  0.20312218  0.33143289  1
  N  N41  1  0.44404422  0.09506192  0.08355165  1
  N  N42  1  0.22294068  0.20252152  0.83617506  1
  N  N43  1  0.10491333  0.10299245  0.58900847  1
  N  N44  1  0.88719923  0.20560783  0.32872184  1
  N  N45  1  0.77484335  0.09682611  0.06012699  1
  N  N46  1  0.58198761  0.19023419  0.84018243  1
  N  N47  1  0.44593681  0.09391760  0.58801295  1
  N  N48  1  0.21858978  0.54810113  0.37872882  1
  N  N49  1  0.10837733  0.42384819  0.08687315  1
  N  N50  1  0.87657118  0.56408772  0.83971131  1
  N  N51  1  0.77930206  0.42715619  0.58689675  1
  N  N52  1  0.55709261  0.53964873  0.33487997  1
  N  N53  1  0.45311235  0.42323758  0.08632202  1
  N  N54  1  0.22639404  0.53553784  0.88016156  1
  N  N55  1  0.10579557  0.42738091  0.58587024  1
  N  N56  1  0.88584002  0.54191040  0.32950818  1
  N  N57  1  0.77697483  0.42708511  0.08347679  1
  N  N58  1  0.55833104  0.53754827  0.83416859  1
  N  N59  1  0.44974700  0.42427008  0.58717110  1
  N  N60  1  0.22004927  0.87111986  0.38777730  1
  N  N61  1  0.12931832  0.77381285  0.11823937  1
  N  N62  1  0.86203184  0.88366417  0.85135561  1
  N  N63  1  0.77944106  0.76352353  0.57986629  1
  N  N64  1  0.55811450  0.87230765  0.33056951  1
  N  N65  1  0.42651588  0.77001403  0.08767941  1
  N  N66  1  0.22278958  0.86473765  0.89513234  1
  N  N67  1  0.10950040  0.76369168  0.64665095  1
  N  N68  1  0.88502256  0.87462516  0.31552374  1
  N  N69  1  0.77404685  0.76139228  0.06171356  1
  N  N70  1  0.58059993  0.85975690  0.84232960  1
  N  N71  1  0.45038032  0.76069068  0.59033748  1
