# generated using pymatgen
data_Al11BN12
_symmetry_space_group_name_H-M   'P 1'
_cell_length_a   9.26846017
_cell_length_b   9.25389403
_cell_length_c   10.05502790
_cell_angle_alpha   90.08443399
_cell_angle_beta   89.70878312
_cell_angle_gamma   60.10234886
_symmetry_Int_Tables_number   1
_chemical_formula_structural   Al11BN12
_chemical_formula_sum   'Al33 B3 N36'
_cell_volume   747.62317046
_cell_formula_units_Z   3
loop_
 _symmetry_equiv_pos_site_id
 _symmetry_equiv_pos_as_xyz
  1  'x, y, z'
loop_
 _atom_site_type_symbol
 _atom_site_label
 _atom_site_symmetry_multiplicity
 _atom_site_fract_x
 _atom_site_fract_y
 _atom_site_fract_z
 _atom_site_occupancy
  Al  Al0  1  0.11329839  0.08867645  0.30838418  1
  Al  Al1  1  0.22239085  0.20225590  0.06056768  1
  Al  Al2  1  0.88876679  0.20131218  0.56555880  1
  Al  Al3  1  0.44432305  0.09440223  0.30992806  1
  Al  Al4  1  0.56050382  0.20431254  0.05907597  1
  Al  Al5  1  0.10888096  0.08896711  0.81684188  1
  Al  Al6  1  0.22109117  0.20413501  0.56211112  1
  Al  Al7  1  0.77583547  0.09827095  0.31344131  1
  Al  Al8  1  0.89148725  0.19742923  0.05747536  1
  Al  Al9  1  0.45442990  0.08935694  0.81074520  1
  Al  Al10  1  0.55625688  0.20456077  0.56402837  1
  Al  Al11  1  0.11122341  0.42762218  0.31144980  1
  Al  Al12  1  0.22693954  0.54062407  0.06108589  1
  Al  Al13  1  0.77656769  0.42793102  0.81116615  1
  Al  Al14  1  0.89144469  0.53237231  0.56479629  1
  Al  Al15  1  0.44573317  0.42635623  0.31231214  1
  Al  Al16  1  0.55211555  0.54209865  0.06115751  1
  Al  Al17  1  0.10792828  0.43253945  0.81093670  1
  Al  Al18  1  0.21925185  0.54301518  0.56470231  1
  Al  Al19  1  0.77990948  0.42629925  0.30934532  1
  Al  Al20  1  0.89231069  0.53694219  0.05570176  1
  Al  Al21  1  0.45152286  0.42316363  0.80987494  1
  Al  Al22  1  0.55516196  0.53939290  0.56127433  1
  Al  Al23  1  0.12202789  0.75835945  0.30691211  1
  Al  Al24  1  0.87698541  0.87176289  0.64751823  1
  Al  Al25  1  0.44039331  0.76318063  0.30756251  1
  Al  Al26  1  0.54485275  0.87795458  0.06016856  1
  Al  Al27  1  0.11170994  0.76275264  0.82990893  1
  Al  Al28  1  0.21817112  0.87110932  0.56600574  1
  Al  Al29  1  0.78307903  0.76350261  0.38156025  1
  Al  Al30  1  0.89267669  0.87405101  0.11905594  1
  Al  Al31  1  0.45039404  0.75985741  0.81686572  1
  Al  Al32  1  0.54698392  0.87486203  0.56276766  1
  B  B33  1  0.76916473  0.09727734  0.81961403  1
  B  B34  1  0.22494127  0.87138928  0.05799747  1
  B  B35  1  0.77085203  0.77967793  0.89759411  1
  N  N36  1  0.22155617  0.20387354  0.37025658  1
  N  N37  1  0.12279741  0.07044518  0.11393889  1
  N  N38  1  0.87581596  0.18850791  0.86666844  1
  N  N39  1  0.77185828  0.10078878  0.63472749  1
  N  N40  1  0.55542387  0.20434961  0.37458748  1
  N  N41  1  0.44378536  0.09797185  0.11997095  1
  N  N42  1  0.22222673  0.20522833  0.87127949  1
  N  N43  1  0.11082428  0.09268427  0.62691047  1
  N  N44  1  0.89114701  0.20338526  0.37357767  1
  N  N45  1  0.77303849  0.10439558  0.12505191  1
  N  N46  1  0.58029443  0.19308905  0.86706953  1
  N  N47  1  0.44250380  0.09524053  0.62290134  1
  N  N48  1  0.22237948  0.54003082  0.37279189  1
  N  N49  1  0.11142388  0.42975198  0.12144379  1
  N  N50  1  0.88108044  0.55642429  0.86588399  1
  N  N51  1  0.77668752  0.42609744  0.62278351  1
  N  N52  1  0.55603950  0.54010690  0.36959771  1
  N  N53  1  0.44635456  0.42619139  0.12239520  1
  N  N54  1  0.22751592  0.53393554  0.87377872  1
  N  N55  1  0.11204607  0.42673344  0.62221176  1
  N  N56  1  0.89248712  0.53133540  0.37127093  1
  N  N57  1  0.78032417  0.42730552  0.11793756  1
  N  N58  1  0.55675269  0.53776230  0.87319395  1
  N  N59  1  0.44311181  0.42857915  0.62132505  1
  N  N60  1  0.22242753  0.87122890  0.37737817  1
  N  N61  1  0.13165458  0.77163356  0.11032078  1
  N  N62  1  0.86293013  0.88452366  0.84249722  1
  N  N63  1  0.77784941  0.76426131  0.57275165  1
  N  N64  1  0.54988078  0.87366400  0.36748323  1
  N  N65  1  0.42125299  0.77372462  0.11487605  1
  N  N66  1  0.22766616  0.87161700  0.89440037  1
  N  N67  1  0.11119808  0.76128760  0.63607977  1
  N  N68  1  0.89200057  0.86498340  0.31370561  1
  N  N69  1  0.77950278  0.76965385  0.05765060  1
  N  N70  1  0.57418887  0.86493180  0.86955728  1
  N  N71  1  0.44103565  0.76134901  0.62694072  1
