# generated using pymatgen
data_Al11BN12
_symmetry_space_group_name_H-M   'P 1'
_cell_length_a   9.26888006
_cell_length_b   9.29614656
_cell_length_c   10.08702928
_cell_angle_alpha   89.98550942
_cell_angle_beta   89.69347961
_cell_angle_gamma   60.17531429
_symmetry_Int_Tables_number   1
_chemical_formula_structural   Al11BN12
_chemical_formula_sum   'Al33 B3 N36'
_cell_volume   754.01634407
_cell_formula_units_Z   3
loop_
 _symmetry_equiv_pos_site_id
 _symmetry_equiv_pos_as_xyz
  1  'x, y, z'
loop_
 _atom_site_type_symbol
 _atom_site_label
 _atom_site_symmetry_multiplicity
 _atom_site_fract_x
 _atom_site_fract_y
 _atom_site_fract_z
 _atom_site_occupancy
  Al  Al0  1  0.11426734  0.08879950  0.31567108  1
  Al  Al1  1  0.22328984  0.20150239  0.06841088  1
  Al  Al2  1  0.89340405  0.20517505  0.57143037  1
  Al  Al3  1  0.44395199  0.09469775  0.31859262  1
  Al  Al4  1  0.54913787  0.20979799  0.06924046  1
  Al  Al5  1  0.11055611  0.08839735  0.82631668  1
  Al  Al6  1  0.22209286  0.20416305  0.56946208  1
  Al  Al7  1  0.78280882  0.08523162  0.38727765  1
  Al  Al8  1  0.89634827  0.20238153  0.06660082  1
  Al  Al9  1  0.45567240  0.09265835  0.81791976  1
  Al  Al10  1  0.54879613  0.21067721  0.56980902  1
  Al  Al11  1  0.11037286  0.42768375  0.32028415  1
  Al  Al12  1  0.22515011  0.54057016  0.06965510  1
  Al  Al13  1  0.77959408  0.41730060  0.81852833  1
  Al  Al14  1  0.89140658  0.53349255  0.57672113  1
  Al  Al15  1  0.44410896  0.42856254  0.32066632  1
  Al  Al16  1  0.55261607  0.54124861  0.06919187  1
  Al  Al17  1  0.11395429  0.42194905  0.81886820  1
  Al  Al18  1  0.21607028  0.54629751  0.57419027  1
  Al  Al19  1  0.77910819  0.42754229  0.31774266  1
  Al  Al20  1  0.89349305  0.53309580  0.05586241  1
  Al  Al21  1  0.45053959  0.42477569  0.81944326  1
  Al  Al22  1  0.55440438  0.54089475  0.56987456  1
  Al  Al23  1  0.12099136  0.75968269  0.31423022  1
  Al  Al24  1  0.87033800  0.88207307  0.65772324  1
  Al  Al25  1  0.43961603  0.76316627  0.31712106  1
  Al  Al26  1  0.54367316  0.87699708  0.07166389  1
  Al  Al27  1  0.11177649  0.76120916  0.83949127  1
  Al  Al28  1  0.21720629  0.87187643  0.57619742  1
  Al  Al29  1  0.78371502  0.76232810  0.39015426  1
  Al  Al30  1  0.89203037  0.87622934  0.12906159  1
  Al  Al31  1  0.45299688  0.75940099  0.82636356  1
  Al  Al32  1  0.54813599  0.87505677  0.57085222  1
  B  B33  1  0.77381416  0.09377563  0.90673223  1
  B  B34  1  0.22529167  0.87015968  0.06623103  1
  B  B35  1  0.75539216  0.81575596  0.91351046  1
  N  N36  1  0.22163567  0.20388322  0.37869822  1
  N  N37  1  0.12461574  0.06887291  0.12286120  1
  N  N38  1  0.87962186  0.18736127  0.87528590  1
  N  N39  1  0.78023929  0.08738850  0.57892051  1
  N  N40  1  0.54953439  0.20889759  0.37757943  1
  N  N41  1  0.44363566  0.09547158  0.13060645  1
  N  N42  1  0.23141578  0.19686889  0.88001444  1
  N  N43  1  0.11250002  0.09286738  0.63598163  1
  N  N44  1  0.89393002  0.20615645  0.37537761  1
  N  N45  1  0.77878409  0.08978493  0.06873663  1
  N  N46  1  0.57353771  0.19945179  0.87802302  1
  N  N47  1  0.44414333  0.09498634  0.63049048  1
  N  N48  1  0.21922682  0.54342876  0.38178712  1
  N  N49  1  0.11117697  0.42867397  0.13050151  1
  N  N50  1  0.89846853  0.51603362  0.87394302  1
  N  N51  1  0.77542791  0.42527133  0.62963256  1
  N  N52  1  0.55462200  0.54153077  0.37890254  1
  N  N53  1  0.44516365  0.42776651  0.13202904  1
  N  N54  1  0.22568990  0.53337126  0.88268580  1
  N  N55  1  0.11452583  0.42490831  0.62973614  1
  N  N56  1  0.89195252  0.53238462  0.38135278  1
  N  N57  1  0.77855635  0.42835480  0.12839977  1
  N  N58  1  0.55776941  0.53781227  0.88154241  1
  N  N59  1  0.44163641  0.43089193  0.63043885  1
  N  N60  1  0.22063299  0.87205606  0.38688122  1
  N  N61  1  0.13161514  0.77080983  0.11921495  1
  N  N62  1  0.85551190  0.89337345  0.85261345  1
  N  N63  1  0.77941432  0.76481896  0.58188624  1
  N  N64  1  0.54992764  0.87373474  0.37588680  1
  N  N65  1  0.42157991  0.77227001  0.12388440  1
  N  N66  1  0.22850575  0.86999195  0.90355792  1
  N  N67  1  0.10776798  0.76406170  0.64785608  1
  N  N68  1  0.88609668  0.87192799  0.31655259  1
  N  N69  1  0.78156302  0.76912276  0.06168966  1
  N  N70  1  0.57460914  0.87067473  0.87977684  1
  N  N71  1  0.44158367  0.76255611  0.63662756  1
