# generated using pymatgen
data_Al11BN12
_symmetry_space_group_name_H-M   'P 1'
_cell_length_a   9.29004852
_cell_length_b   9.27137692
_cell_length_c   10.01317589
_cell_angle_alpha   89.70432613
_cell_angle_beta   89.61321737
_cell_angle_gamma   60.00402314
_symmetry_Int_Tables_number   1
_chemical_formula_structural   Al11BN12
_chemical_formula_sum   'Al33 B3 N36'
_cell_volume   746.91551724
_cell_formula_units_Z   3
loop_
 _symmetry_equiv_pos_site_id
 _symmetry_equiv_pos_as_xyz
  1  'x, y, z'
loop_
 _atom_site_type_symbol
 _atom_site_label
 _atom_site_symmetry_multiplicity
 _atom_site_fract_x
 _atom_site_fract_y
 _atom_site_fract_z
 _atom_site_occupancy
  Al  Al0  1  0.10655254  0.09912660  0.40009364  1
  Al  Al1  1  0.22430518  0.19834641  0.14719936  1
  Al  Al2  1  0.88514873  0.20322421  0.65276623  1
  Al  Al3  1  0.44566096  0.09281150  0.39796083  1
  Al  Al4  1  0.55850825  0.20269904  0.14426021  1
  Al  Al5  1  0.10868579  0.08891662  0.89458897  1
  Al  Al6  1  0.22077871  0.20723087  0.65019824  1
  Al  Al7  1  0.78201554  0.08868409  0.39372443  1
  Al  Al8  1  0.89177510  0.19774166  0.13964008  1
  Al  Al9  1  0.45433979  0.08974268  0.89825738  1
  Al  Al10  1  0.55994599  0.20341990  0.65001841  1
  Al  Al11  1  0.10601631  0.42644843  0.39234371  1
  Al  Al12  1  0.22424834  0.54570428  0.07998310  1
  Al  Al13  1  0.77746797  0.42820989  0.89764794  1
  Al  Al14  1  0.88566058  0.54474974  0.65001092  1
  Al  Al15  1  0.45173148  0.42327041  0.39465896  1
  Al  Al16  1  0.55101511  0.54293162  0.14849490  1
  Al  Al17  1  0.10386018  0.43105499  0.89693126  1
  Al  Al18  1  0.21563661  0.54719918  0.57891031  1
  Al  Al19  1  0.77881621  0.42652792  0.39714507  1
  Al  Al20  1  0.88592566  0.54150160  0.14201935  1
  Al  Al21  1  0.45925460  0.41847098  0.89744501  1
  Al  Al22  1  0.55635428  0.53838390  0.64971256  1
  Al  Al23  1  0.11972989  0.76451427  0.31990106  1
  Al  Al24  1  0.87438465  0.87860852  0.65620368  1
  Al  Al25  1  0.44962941  0.75989983  0.40078705  1
  Al  Al26  1  0.55061744  0.87370981  0.14242410  1
  Al  Al27  1  0.11117249  0.76030519  0.83352944  1
  Al  Al28  1  0.21867420  0.87151939  0.59835276  1
  Al  Al29  1  0.77998931  0.76305035  0.39293988  1
  Al  Al30  1  0.88665370  0.87662930  0.12387445  1
  Al  Al31  1  0.44905839  0.75972268  0.89535641  1
  Al  Al32  1  0.56095027  0.86963441  0.65295662  1
  B  B33  1  0.77178020  0.09183709  0.90256146  1
  B  B34  1  0.22474877  0.87162105  0.08918793  1
  B  B35  1  0.77064808  0.77081140  0.90296123  1
  N  N36  1  0.22322088  0.20322878  0.33672512  1
  N  N37  1  0.12568421  0.06643453  0.08961504  1
  N  N38  1  0.87709498  0.19092631  0.84558371  1
  N  N39  1  0.77890484  0.09220706  0.58309449  1
  N  N40  1  0.55903783  0.20191171  0.33444855  1
  N  N41  1  0.44438197  0.09531933  0.08630906  1
  N  N42  1  0.22254635  0.20526469  0.84064240  1
  N  N43  1  0.10385202  0.10468043  0.59287171  1
  N  N44  1  0.88846688  0.20433241  0.33108234  1
  N  N45  1  0.77503765  0.09688138  0.06340003  1
  N  N46  1  0.58189501  0.19110722  0.84312301  1
  N  N47  1  0.44542336  0.09381089  0.59130909  1
  N  N48  1  0.21962465  0.54469987  0.37831304  1
  N  N49  1  0.10864368  0.42440784  0.09059365  1
  N  N50  1  0.87695667  0.56493491  0.84259358  1
  N  N51  1  0.77914609  0.42659161  0.59006200  1
  N  N52  1  0.55691066  0.53995842  0.33710578  1
  N  N53  1  0.45352534  0.42316922  0.08981806  1
  N  N54  1  0.22590696  0.53877819  0.88521214  1
  N  N55  1  0.10538750  0.42648797  0.58750089  1
  N  N56  1  0.88546417  0.54143370  0.33248378  1
  N  N57  1  0.77747835  0.42720834  0.08655826  1
  N  N58  1  0.55887171  0.53785128  0.83843938  1
  N  N59  1  0.44909475  0.42469339  0.58947712  1
  N  N60  1  0.21985629  0.86996609  0.39506150  1
  N  N61  1  0.13145292  0.77692237  0.12313784  1
  N  N62  1  0.86270420  0.88477010  0.85406311  1
  N  N63  1  0.77764675  0.76353681  0.58243599  1
  N  N64  1  0.55708419  0.87136530  0.33260844  1
  N  N65  1  0.41962743  0.77392561  0.08979059  1
  N  N66  1  0.22782620  0.86972521  0.85470801  1
  N  N67  1  0.10472853  0.76028129  0.64299498  1
  N  N68  1  0.88479215  0.87373601  0.31864657  1
  N  N69  1  0.77450600  0.76145232  0.06495020  1
  N  N70  1  0.58112943  0.85983489  0.84658513  1
  N  N71  1  0.45321487  0.75880385  0.59317864  1
