# generated using pymatgen
data_Al11BN12
_symmetry_space_group_name_H-M   'P 1'
_cell_length_a   9.29932256
_cell_length_b   9.33753544
_cell_length_c   10.04188411
_cell_angle_alpha   90.12965969
_cell_angle_beta   89.98696632
_cell_angle_gamma   60.03986597
_symmetry_Int_Tables_number   1
_chemical_formula_structural   Al11BN12
_chemical_formula_sum   'Al33 B3 N36'
_cell_volume   755.44367610
_cell_formula_units_Z   3
loop_
 _symmetry_equiv_pos_site_id
 _symmetry_equiv_pos_as_xyz
  1  'x, y, z'
loop_
 _atom_site_type_symbol
 _atom_site_label
 _atom_site_symmetry_multiplicity
 _atom_site_fract_x
 _atom_site_fract_y
 _atom_site_fract_z
 _atom_site_occupancy
  Al  Al0  1  0.11449654  0.08811895  0.31702321  1
  Al  Al1  1  0.21901297  0.20305697  0.06896843  1
  Al  Al2  1  0.89586900  0.20535601  0.57099587  1
  Al  Al3  1  0.44281487  0.09647539  0.31836766  1
  Al  Al4  1  0.55152868  0.21089372  0.09079289  1
  Al  Al5  1  0.10788352  0.08931974  0.82708747  1
  Al  Al6  1  0.22687432  0.20094722  0.57151218  1
  Al  Al7  1  0.78109110  0.08602724  0.38718177  1
  Al  Al8  1  0.89476385  0.20354477  0.06781536  1
  Al  Al9  1  0.45061156  0.09944360  0.83124518  1
  Al  Al10  1  0.55703110  0.20711616  0.59682615  1
  Al  Al11  1  0.10984998  0.42796436  0.32214962  1
  Al  Al12  1  0.22217801  0.54158308  0.07156685  1
  Al  Al13  1  0.77902815  0.41649085  0.81966214  1
  Al  Al14  1  0.89369646  0.53157393  0.57654207  1
  Al  Al15  1  0.44335061  0.43003264  0.32419949  1
  Al  Al16  1  0.55096655  0.54216961  0.07153568  1
  Al  Al17  1  0.11269456  0.42177531  0.81946664  1
  Al  Al18  1  0.21796337  0.54462629  0.57568054  1
  Al  Al19  1  0.77924445  0.42773564  0.32014800  1
  Al  Al20  1  0.88985237  0.53573232  0.05493111  1
  Al  Al21  1  0.44844936  0.42758743  0.82480161  1
  Al  Al22  1  0.55492810  0.54228709  0.57331400  1
  Al  Al23  1  0.11898141  0.76015337  0.31598031  1
  Al  Al24  1  0.87724852  0.88009371  0.65545713  1
  Al  Al25  1  0.43728282  0.75915165  0.31805799  1
  Al  Al26  1  0.55326249  0.87037113  0.12696754  1
  Al  Al27  1  0.10913042  0.76164830  0.84159373  1
  Al  Al28  1  0.22160204  0.87111125  0.57863745  1
  Al  Al29  1  0.77712652  0.76458262  0.39019403  1
  Al  Al30  1  0.88976354  0.87658842  0.12822059  1
  Al  Al31  1  0.44735767  0.75821358  0.83839449  1
  Al  Al32  1  0.56890885  0.86476622  0.64764142  1
  B  B33  1  0.76984393  0.09791900  0.90626458  1
  B  B34  1  0.22329207  0.87004183  0.06677694  1
  B  B35  1  0.74828063  0.82248078  0.90902221  1
  N  N36  1  0.22344763  0.20207330  0.38011984  1
  N  N37  1  0.12235192  0.06988619  0.12429383  1
  N  N38  1  0.87800073  0.18815107  0.87579127  1
  N  N39  1  0.78373887  0.08664922  0.57949147  1
  N  N40  1  0.55484767  0.20623437  0.36148824  1
  N  N41  1  0.43799466  0.10027278  0.12443040  1
  N  N42  1  0.22673821  0.19822042  0.88123837  1
  N  N43  1  0.11426441  0.09232378  0.63650060  1
  N  N44  1  0.89442795  0.20558575  0.37609757  1
  N  N45  1  0.77738507  0.09100635  0.06864170  1
  N  N46  1  0.57641432  0.20065291  0.87239781  1
  N  N47  1  0.44530901  0.09527389  0.63654618  1
  N  N48  1  0.21914922  0.54335764  0.38336446  1
  N  N49  1  0.10740845  0.43127831  0.13166538  1
  N  N50  1  0.89928080  0.51197095  0.87377187  1
  N  N51  1  0.77671246  0.42497376  0.63009474  1
  N  N52  1  0.55483250  0.54136318  0.38237191  1
  N  N53  1  0.44123592  0.43360907  0.13395536  1
  N  N54  1  0.22347875  0.53388511  0.88387486  1
  N  N55  1  0.11667490  0.42345658  0.62996236  1
  N  N56  1  0.89203288  0.53253788  0.38327623  1
  N  N57  1  0.77671832  0.43035543  0.13010135  1
  N  N58  1  0.55837315  0.53648791  0.88476888  1
  N  N59  1  0.44261774  0.43247153  0.63354289  1
  N  N60  1  0.22161861  0.87124481  0.38857106  1
  N  N61  1  0.12791753  0.77177986  0.11974390  1
  N  N62  1  0.85559359  0.89355711  0.85141041  1
  N  N63  1  0.78016159  0.76537128  0.58064075  1
  N  N64  1  0.56317972  0.86373417  0.32248299  1
  N  N65  1  0.41583871  0.77176182  0.12105277  1
  N  N66  1  0.22320128  0.87183183  0.90502780  1
  N  N67  1  0.11128968  0.76275344  0.64810035  1
  N  N68  1  0.88555692  0.87093426  0.31814268  1
  N  N69  1  0.77217530  0.77516609  0.05585852  1
  N  N70  1  0.58413750  0.86429859  0.84735707  1
  N  N71  1  0.44248015  0.76056926  0.64363983  1
