# generated using pymatgen
data_Sc2Al34N35
_symmetry_space_group_name_H-M   'P 1'
_cell_length_a   9.44605272
_cell_length_b   9.44233008
_cell_length_c   10.00501820
_cell_angle_alpha   89.96270574
_cell_angle_beta   90.00000248
_cell_angle_gamma   59.98696058
_symmetry_Int_Tables_number   1
_chemical_formula_structural   Sc2Al34N35
_chemical_formula_sum   'Sc2 Al34 N35'
_cell_volume   772.71769330
_cell_formula_units_Z   1
loop_
 _symmetry_equiv_pos_site_id
 _symmetry_equiv_pos_as_xyz
  1  'x, y, z'
loop_
 _atom_site_type_symbol
 _atom_site_label
 _atom_site_symmetry_multiplicity
 _atom_site_fract_x
 _atom_site_fract_y
 _atom_site_fract_z
 _atom_site_occupancy
  Al  Al0  1  0.11041676  0.09592781  0.41308262  1
  Al  Al1  1  0.22230390  0.20817732  0.15829057  1
  Al  Al2  1  0.77332734  0.09589691  0.90564957  1
  Al  Al3  1  0.88178233  0.20882344  0.65273409  1
  Al  Al4  1  0.44610247  0.09449119  0.40515790  1
  Al  Al5  1  0.55528681  0.20618774  0.15484876  1
  Al  Al6  1  0.22615555  0.20882341  0.65273408  1
  Al  Al7  1  0.77616766  0.09449120  0.40515789  1
  Al  Al8  1  0.88628013  0.20817731  0.15829057  1
  Al  Al9  1  0.44753711  0.09589691  0.90564956  1
  Al  Al10  1  0.55565467  0.20545196  0.65620280  1
  Al  Al11  1  0.11625588  0.42669072  0.40588781  1
  Al  Al12  1  0.22188727  0.53671388  0.15474262  1
  Al  Al13  1  0.77312306  0.43042704  0.90549912  1
  Al  Al14  1  0.88880236  0.53915660  0.65642742  1
  Al  Al15  1  0.44472181  0.42731770  0.40567382  1
  Al  Al16  1  0.55816020  0.53671387  0.15474263  1
  Al  Al17  1  0.11321123  0.43042705  0.90549911  1
  Al  Al18  1  0.22273774  0.53832328  0.65602956  1
  Al  Al19  1  0.77381476  0.42669072  0.40588782  1
  Al  Al20  1  0.88903103  0.53869931  0.14584452  1
  Al  Al21  1  0.44448979  0.42778175  0.90430786  1
  Al  Al22  1  0.55570030  0.53832329  0.65602957  1
  Al  Al23  1  0.10987642  0.76049489  0.41023704  1
  Al  Al24  1  0.77733582  0.76208967  0.90495623  1
  Al  Al25  1  0.88794889  0.87313006  0.65582306  1
  Al  Al26  1  0.44639004  0.76049488  0.41023705  1
  Al  Al27  1  0.55857839  0.87133274  0.15459215  1
  Al  Al28  1  0.10960394  0.75533243  0.90223123  1
  Al  Al29  1  0.22528894  0.86618344  0.65413082  1
  Al  Al30  1  0.77483347  0.76709439  0.40680180  1
  Al  Al31  1  0.88685024  0.87133269  0.15459215  1
  Al  Al32  1  0.45182493  0.75533241  0.90223126  1
  Al  Al33  1  0.55568236  0.87313006  0.65582311  1
  Sc  Sc34  1  0.10895226  0.09885693  0.89204811  1
  Sc  Sc35  1  0.22356939  0.86962256  0.15345944  1
  N  N36  1  0.22148917  0.20640094  0.35037360  1
  N  N37  1  0.10178937  0.11318264  0.10162616  1
  N  N38  1  0.86460845  0.21787638  0.84003770  1
  N  N39  1  0.77644265  0.09359894  0.59451992  1
  N  N40  1  0.55521948  0.20632238  0.34575628  1
  N  N41  1  0.44416773  0.09437685  0.09816549  1
  N  N42  1  0.23427655  0.21787637  0.84003767  1
  N  N43  1  0.11029432  0.09617266  0.60760312  1
  N  N44  1  0.88887126  0.20640091  0.35037358  1
  N  N45  1  0.77821678  0.09437683  0.09816553  1
  N  N46  1  0.55538574  0.20598982  0.84705893  1
  N  N47  1  0.44671971  0.09359892  0.59451990  1
  N  N48  1  0.22159810  0.54014924  0.34635433  1
  N  N49  1  0.11112143  0.42743808  0.09908212  1
  N  N50  1  0.88922648  0.53830839  0.84868910  1
  N  N51  1  0.77756016  0.43092779  0.59373084  1
  N  N52  1  0.55501397  0.54014923  0.34635431  1
  N  N53  1  0.44409727  0.42856679  0.09680613  1
  N  N54  1  0.22329346  0.53701467  0.84539698  1
  N  N55  1  0.10827334  0.43092776  0.59373079  1
  N  N56  1  0.77820183  0.42743810  0.09908214  1
  N  N57  1  0.55645320  0.53701469  0.84539699  1
  N  N58  1  0.44452522  0.42771086  0.59625984  1
  N  N59  1  0.22202498  0.87271139  0.36460564  1
  N  N60  1  0.10070829  0.75079748  0.09107540  1
  N  N61  1  0.88668200  0.87369002  0.84609296  1
  N  N62  1  0.77848077  0.75979975  0.59570144  1
  N  N63  1  0.55620047  0.87107695  0.34639615  1
  N  N64  1  0.46525551  0.75079752  0.09107545  1
  N  N65  1  0.23293026  0.85090082  0.84586983  1
  N  N66  1  0.10923528  0.75966948  0.59923834  1
  N  N67  1  0.88948391  0.87107696  0.34639616  1
  N  N68  1  0.77811154  0.76053824  0.09791535  1
  N  N69  1  0.55638927  0.87369001  0.84609294  1
  N  N70  1  0.44785658  0.75966948  0.59923836  1
