# generated using pymatgen
data_Sc2Al34N35
_symmetry_space_group_name_H-M   'P 1'
_cell_length_a   9.54786335
_cell_length_b   9.54396358
_cell_length_c   9.71505761
_cell_angle_alpha   89.98165234
_cell_angle_beta   89.99996633
_cell_angle_gamma   59.98650380
_symmetry_Int_Tables_number   1
_chemical_formula_structural   Sc2Al34N35
_chemical_formula_sum   'Sc2 Al34 N35'
_cell_volume   766.57009277
_cell_formula_units_Z   1
loop_
 _symmetry_equiv_pos_site_id
 _symmetry_equiv_pos_as_xyz
  1  'x, y, z'
loop_
 _atom_site_type_symbol
 _atom_site_label
 _atom_site_symmetry_multiplicity
 _atom_site_fract_x
 _atom_site_fract_y
 _atom_site_fract_z
 _atom_site_occupancy
  Al  Al0  1  0.11122312  0.09431332  0.38812170  1
  Al  Al1  1  0.22215513  0.20741835  0.13415593  1
  Al  Al2  1  0.77343581  0.09603909  0.88148032  1
  Al  Al3  1  0.87978167  0.21045326  0.62633439  1
  Al  Al4  1  0.44666249  0.09448299  0.38030203  1
  Al  Al5  1  0.55504772  0.20666418  0.12958284  1
  Al  Al6  1  0.22652466  0.21045326  0.62633440  1
  Al  Al7  1  0.77561407  0.09448300  0.38030205  1
  Al  Al8  1  0.88718614  0.20741832  0.13415593  1
  Al  Al9  1  0.44728461  0.09603910  0.88148033  1
  Al  Al10  1  0.55570235  0.20535487  0.63275296  1
  Al  Al11  1  0.11489763  0.42735914  0.37832187  1
  Al  Al12  1  0.22251212  0.53695382  0.13182482  1
  Al  Al13  1  0.77247248  0.43051467  0.88355348  1
  Al  Al14  1  0.88880121  0.53915718  0.63409562  1
  Al  Al15  1  0.44499273  0.42677410  0.38198524  1
  Al  Al16  1  0.55729367  0.53695381  0.13182484  1
  Al  Al17  1  0.11377242  0.43051466  0.88355347  1
  Al  Al18  1  0.22205736  0.53823380  0.63037394  1
  Al  Al19  1  0.77450284  0.42735916  0.37832182  1
  Al  Al20  1  0.88879621  0.53916720  0.12279719  1
  Al  Al21  1  0.44418712  0.42838532  0.87934177  1
  Al  Al22  1  0.55646847  0.53823378  0.63037391  1
  Al  Al23  1  0.11056030  0.76113029  0.38439595  1
  Al  Al24  1  0.77695849  0.76284261  0.88208354  1
  Al  Al25  1  0.88753509  0.87294525  0.63025135  1
  Al  Al26  1  0.44506904  0.76113027  0.38439595  1
  Al  Al27  1  0.55827982  0.87169043  0.13143213  1
  Al  Al28  1  0.10825018  0.75468949  0.87779819  1
  Al  Al29  1  0.22584171  0.86507621  0.63152764  1
  Al  Al30  1  0.77556603  0.76562752  0.38042484  1
  Al  Al31  1  0.88678939  0.87169042  0.13143214  1
  Al  Al32  1  0.45381997  0.75468946  0.87779817  1
  Al  Al33  1  0.55627929  0.87294528  0.63025134  1
  Sc  Sc34  1  0.10748250  0.10179444  0.86057135  1
  Sc  Sc35  1  0.22302068  0.87071835  0.11947232  1
  N  N36  1  0.22185210  0.20543440  0.33139657  1
  N  N37  1  0.10059022  0.11557915  0.07784287  1
  N  N38  1  0.86233744  0.21967937  0.81949836  1
  N  N39  1  0.77571661  0.09370590  0.57441452  1
  N  N40  1  0.55507761  0.20660441  0.32516647  1
  N  N41  1  0.44396173  0.09423475  0.07873200  1
  N  N42  1  0.23474278  0.21967932  0.81949838  1
  N  N43  1  0.11059598  0.09556760  0.58991616  1
  N  N44  1  0.88947316  0.20543437  0.33139657  1
  N  N45  1  0.77856310  0.09423474  0.07873199  1
  N  N46  1  0.55536521  0.20602916  0.82833731  1
  N  N47  1  0.44733703  0.09370591  0.57441451  1
  N  N48  1  0.22249819  0.53994216  0.32762647  1
  N  N49  1  0.11119012  0.42768844  0.08228960  1
  N  N50  1  0.88927030  0.53821907  0.83170316  1
  N  N51  1  0.77818127  0.43226415  0.57159969  1
  N  N52  1  0.55431931  0.53994215  0.32762648  1
  N  N53  1  0.44377764  0.42920431  0.07658564  1
  N  N54  1  0.22279436  0.53698033  0.82495443  1
  N  N55  1  0.10631419  0.43226415  0.57159974  1
  N  N56  1  0.77788104  0.42768841  0.08228960  1
  N  N57  1  0.55698498  0.53698031  0.82495440  1
  N  N58  1  0.44472570  0.42730817  0.57720716  1
  N  N59  1  0.22195622  0.87284729  0.33928951  1
  N  N60  1  0.09953741  0.74978154  0.07198411  1
  N  N61  1  0.88593031  0.87388205  0.82569593  1
  N  N62  1  0.77927699  0.75820563  0.57462420  1
  N  N63  1  0.55603776  0.87130684  0.32746281  1
  N  N64  1  0.46744072  0.74978150  0.07198409  1
  N  N65  1  0.23281986  0.85112001  0.83125619  1
  N  N66  1  0.10958872  0.76025251  0.57929755  1
  N  N67  1  0.88941510  0.87130684  0.32746282  1
  N  N68  1  0.77791815  0.76092333  0.08001473  1
  N  N69  1  0.55694734  0.87388205  0.82569593  1
  N  N70  1  0.44691840  0.76025250  0.57929755  1
