# generated using pymatgen
data_Sc2Al34N35
_symmetry_space_group_name_H-M   'P 1'
_cell_length_a   9.54793963
_cell_length_b   9.54355699
_cell_length_c   9.72152451
_cell_angle_alpha   90.02755622
_cell_angle_beta   90.00003232
_cell_angle_gamma   59.98482882
_symmetry_Int_Tables_number   1
_chemical_formula_structural   Sc2Al34N35
_chemical_formula_sum   'Sc2 Al34 N35'
_cell_volume   767.04079648
_cell_formula_units_Z   1
loop_
 _symmetry_equiv_pos_site_id
 _symmetry_equiv_pos_as_xyz
  1  'x, y, z'
loop_
 _atom_site_type_symbol
 _atom_site_label
 _atom_site_symmetry_multiplicity
 _atom_site_fract_x
 _atom_site_fract_y
 _atom_site_fract_z
 _atom_site_occupancy
  Al  Al0  1  0.10800962  0.10074030  0.32659890  1
  Al  Al1  1  0.22422164  0.21267720  0.08005351  1
  Al  Al2  1  0.77282816  0.09656237  0.82720835  1
  Al  Al3  1  0.88812594  0.20461464  0.57498593  1
  Al  Al4  1  0.44650556  0.09424550  0.32717541  1
  Al  Al5  1  0.55568094  0.20539766  0.07680362  1
  Al  Al6  1  0.22401897  0.20461470  0.57498593  1
  Al  Al7  1  0.77600846  0.09424552  0.32717538  1
  Al  Al8  1  0.87986073  0.21267717  0.08005351  1
  Al  Al9  1  0.44736898  0.09656239  0.82720832  1
  Al  Al10  1  0.55500764  0.20674432  0.57738318  1
  Al  Al11  1  0.11773376  0.42593369  0.32960217  1
  Al  Al12  1  0.21969641  0.53668400  0.07603600  1
  Al  Al13  1  0.77359417  0.43136106  0.82462663  1
  Al  Al14  1  0.88867510  0.53940935  0.58034240  1
  Al  Al15  1  0.44473191  0.42729568  0.32568467  1
  Al  Al16  1  0.56037920  0.53668397  0.07603603  1
  Al  Al17  1  0.11180430  0.43136108  0.82462662  1
  Al  Al18  1  0.22444369  0.53850565  0.57850141  1
  Al  Al19  1  0.77309212  0.42593370  0.32960222  1
  Al  Al20  1  0.88892205  0.53891547  0.07630886  1
  Al  Al21  1  0.44443239  0.42789475  0.82936589  1
  Al  Al22  1  0.55381026  0.53850559  0.57850140  1
  Al  Al23  1  0.10686127  0.75730929  0.33054122  1
  Al  Al24  1  0.77783438  0.76109088  0.82602995  1
  Al  Al25  1  0.88816145  0.87370240  0.57893157  1
  Al  Al26  1  0.45258910  0.75730925  0.33054125  1
  Al  Al27  1  0.55967111  0.87101400  0.07616932  1
  Al  Al28  1  0.11164624  0.75786053  0.82456879  1
  Al  Al29  1  0.22252639  0.87170695  0.57195721  1
  Al  Al30  1  0.77415484  0.76844993  0.32751090  1
  Al  Al31  1  0.88607454  0.87101398  0.07616933  1
  Al  Al32  1  0.44725291  0.75786048  0.82456879  1
  Al  Al33  1  0.55489586  0.87370240  0.57893160  1
  Sc  Sc34  1  0.11001632  0.09672684  0.83801136  1
  Sc  Sc35  1  0.22565364  0.86545249  0.09573587  1
  N  N36  1  0.22358938  0.20612895  0.37969576  1
  N  N37  1  0.10035766  0.11604420  0.12723999  1
  N  N38  1  0.86525587  0.21870304  0.88594022  1
  N  N39  1  0.77698199  0.09531660  0.63094105  1
  N  N40  1  0.55506518  0.20662925  0.38136292  1
  N  N41  1  0.44645291  0.09301487  0.13245908  1
  N  N42  1  0.23280068  0.21870303  0.88594021  1
  N  N43  1  0.11119736  0.09436488  0.61885759  1
  N  N44  1  0.88704129  0.20612894  0.37969577  1
  N  N45  1  0.77729174  0.09301486  0.13245906  1
  N  N46  1  0.55530381  0.20615199  0.88190023  1
  N  N47  1  0.44446097  0.09531662  0.63094103  1
  N  N48  1  0.22435385  0.53715998  0.38412603  1
  N  N49  1  0.10732782  0.43109183  0.13677072  1
  N  N50  1  0.88919024  0.53837915  0.87912678  1
  N  N51  1  0.77833131  0.42835900  0.62647593  1
  N  N52  1  0.55524582  0.53715994  0.38412603  1
  N  N53  1  0.44376698  0.42922557  0.12962621  1
  N  N54  1  0.22111638  0.53928617  0.87994319  1
  N  N55  1  0.11006922  0.42835905  0.62647592  1
  N  N56  1  0.77833994  0.43109180  0.13677077  1
  N  N57  1  0.55635709  0.53928613  0.87994321  1
  N  N58  1  0.44460108  0.42755738  0.63323788  1
  N  N59  1  0.22259650  0.87156675  0.36898244  1
  N  N60  1  0.09783219  0.74873718  0.13809969  1
  N  N61  1  0.88822814  0.87254687  0.87921475  1
  N  N62  1  0.77837055  0.76001858  0.62880155  1
  N  N63  1  0.55684786  0.87319580  0.38433960  1
  N  N64  1  0.47019035  0.74873713  0.13809972  1
  N  N65  1  0.23239399  0.85197182  0.87934477  1
  N  N66  1  0.11095327  0.76138322  0.62726396  1
  N  N67  1  0.88671606  0.87319581  0.38433957  1
  N  N68  1  0.77882144  0.75911673  0.13352988  1
  N  N69  1  0.55598472  0.87254688  0.87921473  1
  N  N70  1  0.44442320  0.76138317  0.62726395  1
