# generated using pymatgen
data_Sc2Al34N35
_symmetry_space_group_name_H-M   'P 1'
_cell_length_a   9.88156455
_cell_length_b   9.87817189
_cell_length_c   8.68186934
_cell_angle_alpha   90.03255067
_cell_angle_beta   90.00000419
_cell_angle_gamma   59.98866987
_symmetry_Int_Tables_number   1
_chemical_formula_structural   Sc2Al34N35
_chemical_formula_sum   'Sc2 Al34 N35'
_cell_volume   733.83171985
_cell_formula_units_Z   1
loop_
 _symmetry_equiv_pos_site_id
 _symmetry_equiv_pos_as_xyz
  1  'x, y, z'
loop_
 _atom_site_type_symbol
 _atom_site_label
 _atom_site_symmetry_multiplicity
 _atom_site_fract_x
 _atom_site_fract_y
 _atom_site_fract_z
 _atom_site_occupancy
  Al  Al0  1  0.10938169  0.09799630  0.35143597  1
  Al  Al1  1  0.22268751  0.21234012  0.10085873  1
  Al  Al2  1  0.77311417  0.09610356  0.84345017  1
  Al  Al3  1  0.88578752  0.20531419  0.58874545  1
  Al  Al4  1  0.44699670  0.09401794  0.34282763  1
  Al  Al5  1  0.55575339  0.20525284  0.09286570  1
  Al  Al6  1  0.22565787  0.20531424  0.58874548  1
  Al  Al7  1  0.77574494  0.09401787  0.34282768  1
  Al  Al8  1  0.88173210  0.21233996  0.10085876  1
  Al  Al9  1  0.44754173  0.09610365  0.84345020  1
  Al  Al10  1  0.55481531  0.20712892  0.59258929  1
  Al  Al11  1  0.11090527  0.42961723  0.35050313  1
  Al  Al12  1  0.21946118  0.53632654  0.09461428  1
  Al  Al13  1  0.77239633  0.43028234  0.83611365  1
  Al  Al14  1  0.88842893  0.53990154  0.60641934  1
  Al  Al15  1  0.44475379  0.42725193  0.33994196  1
  Al  Al16  1  0.56097183  0.53632645  0.09461431  1
  Al  Al17  1  0.11408069  0.43028242  0.83611358  1
  Al  Al18  1  0.22526242  0.53861003  0.59160047  1
  Al  Al19  1  0.77623711  0.42961717  0.35050307  1
  Al  Al20  1  0.88893511  0.53888925  0.08145295  1
  Al  Al21  1  0.44460111  0.42755725  0.84619380  1
  Al  Al22  1  0.55288715  0.53860999  0.59160043  1
  Al  Al23  1  0.10799346  0.75841318  0.34893035  1
  Al  Al24  1  0.77640521  0.76394929  0.83921577  1
  Al  Al25  1  0.88789793  0.87408447  0.59242649  1
  Al  Al26  1  0.45035313  0.75841314  0.34893024  1
  Al  Al27  1  0.56026665  0.87078881  0.09478599  1
  Al  Al28  1  0.10962742  0.75699123  0.84068840  1
  Al  Al29  1  0.22381870  0.86912247  0.59724126  1
  Al  Al30  1  0.77820993  0.76033974  0.34854253  1
  Al  Al31  1  0.88570433  0.87078872  0.09478605  1
  Al  Al32  1  0.45014111  0.75699119  0.84068850  1
  Al  Al33  1  0.55477725  0.87408449  0.59242653  1
  Sc  Sc34  1  0.10833625  0.10008706  0.85144475  1
  Sc  Sc35  1  0.22504612  0.86666755  0.10610729  1
  N  N36  1  0.22443085  0.20676274  0.36246246  1
  N  N37  1  0.10213327  0.11249310  0.11492889  1
  N  N38  1  0.86695498  0.21829852  0.86682268  1
  N  N39  1  0.77650895  0.09490296  0.61421300  1
  N  N40  1  0.55484089  0.20707786  0.36472751  1
  N  N41  1  0.44618544  0.09310368  0.11601518  1
  N  N42  1  0.23150604  0.21829861  0.86682266  1
  N  N43  1  0.10999042  0.09677870  0.60014039  1
  N  N44  1  0.88556614  0.20676266  0.36246243  1
  N  N45  1  0.77747042  0.09310359  0.11601522  1
  N  N46  1  0.55538528  0.20598907  0.86591461  1
  N  N47  1  0.44534755  0.09490298  0.61421306  1
  N  N48  1  0.22483758  0.53683219  0.36644456  1
  N  N49  1  0.10358548  0.43279854  0.12427787  1
  N  N50  1  0.88926092  0.53823768  0.85555551  1
  N  N51  1  0.77821189  0.42970167  0.60566945  1
  N  N52  1  0.55508989  0.53683215  0.36644449  1
  N  N53  1  0.44388139  0.42899660  0.11217254  1
  N  N54  1  0.22121490  0.53821960  0.86401476  1
  N  N55  1  0.10884580  0.42970176  0.60566939  1
  N  N56  1  0.78037548  0.43279842  0.12427782  1
  N  N57  1  0.55732507  0.53821956  0.86401482  1
  N  N58  1  0.44456561  0.42762827  0.61824313  1
  N  N59  1  0.22325194  0.87025604  0.36494852  1
  N  N60  1  0.10028375  0.75106146  0.11851458  1
  N  N61  1  0.88695492  0.87261676  0.86308057  1
  N  N62  1  0.77864231  0.75947497  0.60969263  1
  N  N63  1  0.55737796  0.87295455  0.36674417  1
  N  N64  1  0.46541453  0.75106141  0.11851451  1
  N  N65  1  0.23087923  0.85500137  0.85233555  1
  N  N66  1  0.10921448  0.75990451  0.61067191  1
  N  N67  1  0.88642729  0.87295446  0.36674416  1
  N  N68  1  0.78064414  0.75547133  0.11942737  1
  N  N69  1  0.55718808  0.87261682  0.86308057  1
  N  N70  1  0.44764075  0.75990441  0.61067197  1
