# generated using pymatgen
data_Sc2Al34N35
_symmetry_space_group_name_H-M   'P 1'
_cell_length_a   9.83978632
_cell_length_b   9.83697477
_cell_length_c   8.80727127
_cell_angle_alpha   90.00167824
_cell_angle_beta   89.99999022
_cell_angle_gamma   59.99056593
_symmetry_Int_Tables_number   1
_chemical_formula_structural   Sc2Al34N35
_chemical_formula_sum   'Sc2 Al34 N35'
_cell_volume   738.20662066
_cell_formula_units_Z   1
loop_
 _symmetry_equiv_pos_site_id
 _symmetry_equiv_pos_as_xyz
  1  'x, y, z'
loop_
 _atom_site_type_symbol
 _atom_site_label
 _atom_site_symmetry_multiplicity
 _atom_site_fract_x
 _atom_site_fract_y
 _atom_site_fract_z
 _atom_site_occupancy
  Al  Al0  1  0.11030606  0.09614754  0.36668087  1
  Al  Al1  1  0.22405684  0.20730100  0.12495402  1
  Al  Al2  1  0.77441161  0.09541455  0.86806513  1
  Al  Al3  1  0.88168684  0.21055108  0.60805111  1
  Al  Al4  1  0.44770643  0.09461047  0.36833062  1
  Al  Al5  1  0.55485909  0.20704141  0.11537966  1
  Al  Al6  1  0.22452171  0.21055113  0.60805114  1
  Al  Al7  1  0.77444264  0.09461043  0.36833061  1
  Al  Al8  1  0.88540188  0.20730093  0.12495404  1
  Al  Al9  1  0.44693333  0.09541461  0.86806514  1
  Al  Al10  1  0.55569844  0.20536267  0.62164135  1
  Al  Al11  1  0.10887220  0.43082314  0.36123155  1
  Al  Al12  1  0.22346668  0.53731526  0.12209110  1
  Al  Al13  1  0.77160254  0.42937059  0.87354592  1
  Al  Al14  1  0.88879968  0.53916014  0.62987375  1
  Al  Al15  1  0.44534593  0.42606761  0.37090232  1
  Al  Al16  1  0.55597768  0.53731521  0.12209118  1
  Al  Al17  1  0.11578630  0.42937065  0.87354588  1
  Al  Al18  1  0.22130444  0.53760991  0.61495115  1
  Al  Al19  1  0.77706428  0.43082305  0.36123152  1
  Al  Al20  1  0.88849838  0.53976278  0.10059172  1
  Al  Al21  1  0.44398170  0.42879615  0.86543620  1
  Al  Al22  1  0.55784528  0.53760981  0.61495109  1
  Al  Al23  1  0.10939275  0.75989074  0.37241579  1
  Al  Al24  1  0.77555002  0.76565965  0.87123373  1
  Al  Al25  1  0.88660178  0.87248423  0.61496176  1
  Al  Al26  1  0.44747617  0.75989073  0.37241580  1
  Al  Al27  1  0.55734320  0.87232376  0.12130697  1
  Al  Al28  1  0.10847726  0.75567160  0.86155973  1
  Al  Al29  1  0.22440825  0.86794333  0.60985310  1
  Al  Al30  1  0.77901368  0.75873221  0.36331174  1
  Al  Al31  1  0.88709275  0.87232377  0.12130700  1
  Al  Al32  1  0.45261088  0.75567154  0.86155973  1
  Al  Al33  1  0.55767366  0.87248423  0.61496180  1
  Sc  Sc34  1  0.10774096  0.10127764  0.85115667  1
  Sc  Sc35  1  0.22461705  0.86752571  0.10727259  1
  N  N36  1  0.22371679  0.20670817  0.34705171  1
  N  N37  1  0.10195326  0.11285314  0.10113574  1
  N  N38  1  0.86592574  0.21849976  0.83316432  1
  N  N39  1  0.77515017  0.09412375  0.58793735  1
  N  N40  1  0.55487505  0.20700948  0.33629367  1
  N  N41  1  0.44414651  0.09373332  0.09189410  1
  N  N42  1  0.23233406  0.21849981  0.83316433  1
  N  N43  1  0.11009837  0.09656285  0.59311716  1
  N  N44  1  0.88633474  0.20670807  0.34705173  1
  N  N45  1  0.77887974  0.09373331  0.09189413  1
  N  N46  1  0.55537376  0.20601208  0.84340740  1
  N  N47  1  0.44748558  0.09412375  0.58793737  1
  N  N48  1  0.22346103  0.53887910  0.34299487  1
  N  N49  1  0.11024777  0.42848834  0.10011100  1
  N  N50  1  0.88916675  0.53842603  0.85235067  1
  N  N51  1  0.78011696  0.43400386  0.58137596  1
  N  N52  1  0.55441948  0.53887906  0.34299491  1
  N  N53  1  0.44341944  0.42992063  0.08863798  1
  N  N54  1  0.22250935  0.53650874  0.83664024  1
  N  N55  1  0.10263868  0.43400392  0.58137602  1
  N  N56  1  0.77802345  0.42848826  0.10011102  1
  N  N57  1  0.55774151  0.53650871  0.83664018  1
  N  N58  1  0.44502062  0.42671823  0.59140094  1
  N  N59  1  0.22312556  0.87050865  0.35553364  1
  N  N60  1  0.10024212  0.75034705  0.08693822  1
  N  N61  1  0.88532424  0.87363642  0.83750115  1
  N  N62  1  0.78101500  0.75472960  0.58530009  1
  N  N63  1  0.55658531  0.87179596  0.34258752  1
  N  N64  1  0.46617059  0.75034694  0.08693820  1
  N  N65  1  0.23117462  0.85441057  0.84198232  1
  N  N66  1  0.10889709  0.76004396  0.59338888  1
  N  N67  1  0.88837844  0.87179590  0.34258755  1
  N  N68  1  0.77802408  0.76071151  0.09659018  1
  N  N69  1  0.55779906  0.87363645  0.83750118  1
  N  N70  1  0.44781867  0.76004387  0.59338888  1
