# generated using pymatgen
data_Sc2Al34N35
_symmetry_space_group_name_H-M   'P 1'
_cell_length_a   9.44616816
_cell_length_b   9.44255443
_cell_length_c   10.00593723
_cell_angle_alpha   89.98763595
_cell_angle_beta   90.00000105
_cell_angle_gamma   59.98733303
_symmetry_Int_Tables_number   1
_chemical_formula_structural   Sc2Al34N35
_chemical_formula_sum   'Sc2 Al34 N35'
_cell_volume   772.81957527
_cell_formula_units_Z   1
loop_
 _symmetry_equiv_pos_site_id
 _symmetry_equiv_pos_as_xyz
  1  'x, y, z'
loop_
 _atom_site_type_symbol
 _atom_site_label
 _atom_site_symmetry_multiplicity
 _atom_site_fract_x
 _atom_site_fract_y
 _atom_site_fract_z
 _atom_site_occupancy
  Al  Al0  1  0.10833268  0.10009279  0.30770015  1
  Al  Al1  1  0.22368748  0.21119515  0.05917417  1
  Al  Al2  1  0.77325363  0.09640935  0.80686703  1
  Al  Al3  1  0.88667686  0.20594479  0.55280617  1
  Al  Al4  1  0.44621790  0.09461205  0.30606656  1
  Al  Al5  1  0.55545904  0.20584006  0.05605521  1
  Al  Al6  1  0.22413652  0.20594482  0.55280617  1
  Al  Al7  1  0.77592820  0.09461205  0.30606655  1
  Al  Al8  1  0.88187550  0.21119516  0.05917414  1
  Al  Al9  1  0.44709522  0.09640938  0.80686706  1
  Al  Al10  1  0.55522072  0.20631673  0.55686568  1
  Al  Al11  1  0.11751133  0.42628121  0.30521314  1
  Al  Al12  1  0.22068725  0.53713616  0.05543122  1
  Al  Al13  1  0.77353662  0.43100950  0.80698973  1
  Al  Al14  1  0.88884425  0.53906967  0.56424148  1
  Al  Al15  1  0.44464728  0.42746356  0.30598885  1
  Al  Al16  1  0.55893471  0.53713619  0.05543124  1
  Al  Al17  1  0.11221207  0.43100950  0.80698974  1
  Al  Al18  1  0.22349969  0.53839377  0.55755726  1
  Al  Al19  1  0.77296558  0.42628117  0.30521312  1
  Al  Al20  1  0.88873088  0.53929635  0.05654930  1
  Al  Al21  1  0.44433329  0.42809160  0.80764522  1
  Al  Al22  1  0.55486471  0.53839376  0.55755725  1
  Al  Al23  1  0.10757166  0.75803179  0.30878331  1
  Al  Al24  1  0.77756823  0.76162169  0.80695803  1
  Al  Al25  1  0.88816880  0.87336504  0.55769014  1
  Al  Al26  1  0.45115471  0.75803180  0.30878328  1
  Al  Al27  1  0.55879464  0.87165143  0.05563336  1
  Al  Al28  1  0.11137082  0.75790100  0.80320722  1
  Al  Al29  1  0.22315878  0.87044060  0.55004252  1
  Al  Al30  1  0.77409119  0.76857578  0.30468854  1
  Al  Al31  1  0.88631207  0.87165141  0.05563335  1
  Al  Al32  1  0.44748637  0.75790098  0.80320724  1
  Al  Al33  1  0.55522432  0.87336505  0.55769015  1
  Sc  Sc34  1  0.10969799  0.09736223  0.80773613  1
  Sc  Sc35  1  0.22431350  0.86813125  0.06900947  1
  N  N36  1  0.22326340  0.20772574  0.36309646  1
  N  N37  1  0.10025868  0.11624082  0.11627919  1
  N  N38  1  0.86789051  0.21672307  0.87064015  1
  N  N39  1  0.77741903  0.09516332  0.61502287  1
  N  N40  1  0.55520230  0.20635351  0.36547497  1
  N  N41  1  0.44616011  0.09339911  0.11614540  1
  N  N42  1  0.23214462  0.21672310  0.87064017  1
  N  N43  1  0.11109661  0.09456501  0.59682789  1
  N  N44  1  0.88576899  0.20772572  0.36309646  1
  N  N45  1  0.77719896  0.09339910  0.11614538  1
  N  N46  1  0.55514965  0.20645891  0.86562416  1
  N  N47  1  0.44417585  0.09516333  0.61502289  1
  N  N48  1  0.22302052  0.53754288  0.36756731  1
  N  N49  1  0.10856219  0.43065019  0.11770746  1
  N  N50  1  0.88898770  0.53878275  0.86425868  1
  N  N51  1  0.77830250  0.42775804  0.61344787  1
  N  N52  1  0.55619472  0.53754288  0.36756730  1
  N  N53  1  0.44384770  0.42906275  0.11458787  1
  N  N54  1  0.22180523  0.53967004  0.86436488  1
  N  N55  1  0.11069767  0.42775805  0.61344789  1
  N  N56  1  0.77754576  0.43065019  0.11770745  1
  N  N57  1  0.55528291  0.53967003  0.86436488  1
  N  N58  1  0.44449784  0.42776252  0.61609735  1
  N  N59  1  0.22288891  0.87098032  0.35454553  1
  N  N60  1  0.09868930  0.74966573  0.12174546  1
  N  N61  1  0.88867137  0.87268375  0.86366980  1
  N  N62  1  0.77807750  0.76060319  0.61429659  1
  N  N63  1  0.55705238  0.87277740  0.36751214  1
  N  N64  1  0.46840306  0.74966578  0.12174544  1
  N  N65  1  0.23130657  0.85414503  0.85988857  1
  N  N66  1  0.11080514  0.76109452  0.61124785  1
  N  N67  1  0.88692835  0.87277740  0.36751213  1
  N  N68  1  0.77822528  0.76030761  0.11588352  1
  N  N69  1  0.55540302  0.87268378  0.86366981  1
  N  N70  1  0.44485854  0.76109451  0.61124787  1
