# generated using pymatgen
data_Sc2Al34N35
_symmetry_space_group_name_H-M   'P 1'
_cell_length_a   9.79618681
_cell_length_b   9.79229955
_cell_length_c   8.95607032
_cell_angle_alpha   90.03565948
_cell_angle_beta   90.00001617
_cell_angle_gamma   59.98689711
_symmetry_Int_Tables_number   1
_chemical_formula_structural   Sc2Al34N35
_chemical_formula_sum   'Sc2 Al34 N35'
_cell_volume   743.93057178
_cell_formula_units_Z   1
loop_
 _symmetry_equiv_pos_site_id
 _symmetry_equiv_pos_as_xyz
  1  'x, y, z'
loop_
 _atom_site_type_symbol
 _atom_site_label
 _atom_site_symmetry_multiplicity
 _atom_site_fract_x
 _atom_site_fract_y
 _atom_site_fract_z
 _atom_site_occupancy
  Al  Al0  1  0.10912978  0.09850005  0.34431831  1
  Al  Al1  1  0.22296761  0.21314750  0.09389341  1
  Al  Al2  1  0.77297615  0.09642021  0.83726128  1
  Al  Al3  1  0.88676732  0.20439024  0.58295727  1
  Al  Al4  1  0.44720581  0.09387814  0.33647439  1
  Al  Al5  1  0.55589616  0.20496730  0.08644567  1
  Al  Al6  1  0.22560197  0.20439028  0.58295727  1
  Al  Al7  1  0.77567563  0.09387809  0.33647439  1
  Al  Al8  1  0.88064454  0.21314743  0.09389340  1
  Al  Al9  1  0.44736309  0.09642030  0.83726126  1
  Al  Al10  1  0.55473139  0.20729680  0.58676437  1
  Al  Al11  1  0.11245680  0.42892562  0.34536584  1
  Al  Al12  1  0.21881155  0.53647918  0.08748711  1
  Al  Al13  1  0.77255703  0.43030379  0.83009244  1
  Al  Al14  1  0.88840145  0.53995656  0.59861246  1
  Al  Al15  1  0.44477368  0.42721220  0.33331136  1
  Al  Al16  1  0.56146884  0.53647911  0.08748715  1
  Al  Al17  1  0.11389860  0.43030385  0.83009240  1
  Al  Al18  1  0.22583235  0.53850757  0.58630933  1
  Al  Al19  1  0.77537720  0.42892559  0.34536581  1
  Al  Al20  1  0.88897998  0.53879958  0.07875790  1
  Al  Al21  1  0.44456452  0.42763049  0.84093675  1
  Al  Al22  1  0.55241967  0.53850752  0.58630929  1
  Al  Al23  1  0.10751133  0.75792580  0.34252909  1
  Al  Al24  1  0.77666901  0.76342169  0.83321206  1
  Al  Al25  1  0.88788429  0.87438501  0.58711044  1
  Al  Al26  1  0.45132262  0.75792576  0.34252902  1
  Al  Al27  1  0.56045832  0.87051914  0.08744057  1
  Al  Al28  1  0.11021671  0.75724129  0.83406041  1
  Al  Al29  1  0.22329685  0.87016613  0.58985995  1
  Al  Al30  1  0.77727662  0.76220641  0.34230531  1
  Al  Al31  1  0.88578228  0.87051907  0.08744061  1
  Al  Al32  1  0.44930173  0.75724126  0.83406049  1
  Al  Al33  1  0.55449039  0.87438501  0.58711047  1
  Sc  Sc34  1  0.10866927  0.09942093  0.84987480  1
  Sc  Sc35  1  0.22540269  0.86595436  0.10425544  1
  N  N36  1  0.22459367  0.20617315  0.36801168  1
  N  N37  1  0.10166966  0.11342023  0.11736151  1
  N  N38  1  0.86576721  0.21902803  0.87463217  1
  N  N39  1  0.77660210  0.09518040  0.62078944  1
  N  N40  1  0.55480908  0.20714148  0.37107648  1
  N  N41  1  0.44657626  0.09285424  0.12202319  1
  N  N42  1  0.23196429  0.21902808  0.87463216  1
  N  N43  1  0.11027146  0.09621658  0.60616703  1
  N  N44  1  0.88599286  0.20617310  0.36801168  1
  N  N45  1  0.77732904  0.09285418  0.12202318  1
  N  N46  1  0.55546104  0.20583757  0.87188382  1
  N  N47  1  0.44497696  0.09518043  0.62078944  1
  N  N48  1  0.22540077  0.53673293  0.37304766  1
  N  N49  1  0.10382763  0.43291087  0.13047981  1
  N  N50  1  0.88932592  0.53810771  0.86131799  1
  N  N51  1  0.77797155  0.42889427  0.61139523  1
  N  N52  1  0.55462598  0.53673291  0.37304762  1
  N  N53  1  0.44386172  0.42903597  0.11757687  1
  N  N54  1  0.22071321  0.53867514  0.87005598  1
  N  N55  1  0.10989358  0.42889434  0.61139518  1
  N  N56  1  0.78002103  0.43291081  0.13047978  1
  N  N57  1  0.55737128  0.53867509  0.87005603  1
  N  N58  1  0.44461216  0.42753518  0.62502291  1
  N  N59  1  0.22310126  0.87055735  0.36568397  1
  N  N60  1  0.09940172  0.75032313  0.12637257  1
  N  N61  1  0.88735128  0.87246326  0.86909804  1
  N  N62  1  0.77823590  0.76028782  0.61597454  1
  N  N63  1  0.55708501  0.87331889  0.37356037  1
  N  N64  1  0.46703484  0.75032309  0.12637252  1
  N  N65  1  0.23131415  0.85413151  0.86068993  1
  N  N66  1  0.10967921  0.76025508  0.61633166  1
  N  N67  1  0.88635587  0.87331884  0.37356034  1
  N  N68  1  0.78039341  0.75597280  0.12552946  1
  N  N69  1  0.55694524  0.87246331  0.86909803  1
  N  N70  1  0.44682543  0.76025500  0.61633171  1
