# generated using pymatgen
data_Sc2Al34N35
_symmetry_space_group_name_H-M   'P 1'
_cell_length_a   9.44955118
_cell_length_b   9.44591273
_cell_length_c   9.99678956
_cell_angle_alpha   89.99287055
_cell_angle_beta   89.99999580
_cell_angle_gamma   59.98727013
_symmetry_Int_Tables_number   1
_chemical_formula_structural   Sc2Al34N35
_chemical_formula_sum   'Sc2 Al34 N35'
_cell_volume   772.66379742
_cell_formula_units_Z   1
loop_
 _symmetry_equiv_pos_site_id
 _symmetry_equiv_pos_as_xyz
  1  'x, y, z'
loop_
 _atom_site_type_symbol
 _atom_site_label
 _atom_site_symmetry_multiplicity
 _atom_site_fract_x
 _atom_site_fract_y
 _atom_site_fract_z
 _atom_site_occupancy
  Al  Al0  1  0.10835503  0.10004930  0.32363853  1
  Al  Al1  1  0.22378700  0.21114829  0.07523808  1
  Al  Al2  1  0.77327220  0.09631713  0.82293786  1
  Al  Al3  1  0.88682954  0.20577918  0.56904040  1
  Al  Al4  1  0.44626322  0.09449635  0.32220260  1
  Al  Al5  1  0.55552285  0.20571370  0.07216735  1
  Al  Al6  1  0.22415067  0.20577920  0.56904041  1
  Al  Al7  1  0.77599981  0.09449636  0.32220258  1
  Al  Al8  1  0.88182409  0.21114828  0.07523805  1
  Al  Al9  1  0.44717008  0.09631716  0.82293790  1
  Al  Al10  1  0.55525659  0.20624623  0.57294628  1
  Al  Al11  1  0.11765192  0.42610415  0.32147000  1
  Al  Al12  1  0.22069244  0.53698348  0.07150856  1
  Al  Al13  1  0.77362607  0.43093824  0.82292604  1
  Al  Al14  1  0.88888283  0.53899374  0.57991377  1
  Al  Al15  1  0.44469733  0.42736469  0.32205027  1
  Al  Al16  1  0.55908351  0.53698345  0.07150857  1
  Al  Al17  1  0.11219507  0.43093826  0.82292605  1
  Al  Al18  1  0.22358214  0.53830900  0.57369978  1
  Al  Al19  1  0.77300332  0.42610413  0.32147001  1
  Al  Al20  1  0.88879966  0.53916009  0.07266583  1
  Al  Al21  1  0.44439497  0.42796944  0.82378801  1
  Al  Al22  1  0.55486826  0.53830898  0.57369977  1
  Al  Al23  1  0.10756810  0.75787380  0.32494241  1
  Al  Al24  1  0.77765342  0.76145257  0.82297264  1
  Al  Al25  1  0.88821956  0.87327939  0.57384815  1
  Al  Al26  1  0.45131753  0.75787378  0.32494243  1
  Al  Al27  1  0.55889223  0.87151646  0.07170919  1
  Al  Al28  1  0.11146095  0.75778078  0.81938395  1
  Al  Al29  1  0.22316499  0.87042941  0.56616634  1
  Al  Al30  1  0.77409700  0.76856543  0.32085421  1
  Al  Al31  1  0.88635080  0.87151646  0.07170919  1
  Al  Al32  1  0.44751769  0.75778074  0.81938396  1
  Al  Al33  1  0.55526047  0.87327939  0.57384817  1
  Sc  Sc34  1  0.10982476  0.09710990  0.82438376  1
  Sc  Sc35  1  0.22447190  0.86781570  0.08553802  1
  N  N36  1  0.22331367  0.20752337  0.37913569  1
  N  N37  1  0.10030961  0.11614009  0.13197047  1
  N  N38  1  0.86779651  0.21672877  0.88655088  1
  N  N39  1  0.77743369  0.09508438  0.63098327  1
  N  N40  1  0.55524429  0.20627083  0.38142221  1
  N  N41  1  0.44622139  0.09327480  0.13213272  1
  N  N42  1  0.23223414  0.21672882  0.88655091  1
  N  N43  1  0.11116589  0.09442759  0.61321083  1
  N  N44  1  0.88592235  0.20752337  0.37913569  1
  N  N45  1  0.77726315  0.09327482  0.13213272  1
  N  N46  1  0.55520939  0.20634071  0.88161392  1
  N  N47  1  0.44424128  0.09508440  0.63098330  1
  N  N48  1  0.22313455  0.53742124  0.38358423  1
  N  N49  1  0.10859128  0.43052431  0.13381737  1
  N  N50  1  0.88904738  0.53866466  0.88023826  1
  N  N51  1  0.77836422  0.42771783  0.62926728  1
  N  N52  1  0.55620361  0.53742122  0.38358422  1
  N  N53  1  0.44389047  0.42897841  0.13051174  1
  N  N54  1  0.22182118  0.53952294  0.88029812  1
  N  N55  1  0.11067732  0.42771784  0.62926728  1
  N  N56  1  0.77764380  0.43052426  0.13381738  1
  N  N57  1  0.55541531  0.53952290  0.88029813  1
  N  N58  1  0.44455111  0.42765712  0.63211496  1
  N  N59  1  0.22291801  0.87092340  0.37037614  1
  N  N60  1  0.09865706  0.74946147  0.13775741  1
  N  N61  1  0.88870071  0.87257678  0.87960224  1
  N  N62  1  0.77815416  0.76045110  0.63018513  1
  N  N63  1  0.55708729  0.87270599  0.38354220  1
  N  N64  1  0.46864103  0.74946140  0.13775744  1
  N  N65  1  0.23146802  0.85382336  0.87621716  1
  N  N66  1  0.11087600  0.76103554  0.62724619  1
  N  N67  1  0.88696616  0.87270600  0.38354216  1
  N  N68  1  0.77829388  0.76017171  0.13191634  1
  N  N69  1  0.55548194  0.87257678  0.87960223  1
  N  N70  1  0.44484783  0.76103554  0.62724621  1
