# generated using pymatgen
data_Sc2Al34N35
_symmetry_space_group_name_H-M   'P 1'
_cell_length_a   9.44615789
_cell_length_b   9.44252935
_cell_length_c   10.00596633
_cell_angle_alpha   89.98768667
_cell_angle_beta   89.99999713
_cell_angle_gamma   59.98730197
_symmetry_Int_Tables_number   1
_chemical_formula_structural   Sc2Al34N35
_chemical_formula_sum   'Sc2 Al34 N35'
_cell_volume   772.81868837
_cell_formula_units_Z   1
loop_
 _symmetry_equiv_pos_site_id
 _symmetry_equiv_pos_as_xyz
  1  'x, y, z'
loop_
 _atom_site_type_symbol
 _atom_site_label
 _atom_site_symmetry_multiplicity
 _atom_site_fract_x
 _atom_site_fract_y
 _atom_site_fract_z
 _atom_site_occupancy
  Al  Al0  1  0.10831788  0.10012211  0.30405385  1
  Al  Al1  1  0.22367442  0.21122223  0.05552876  1
  Al  Al2  1  0.77324061  0.09643592  0.80321302  1
  Al  Al3  1  0.88666435  0.20597032  0.54916143  1
  Al  Al4  1  0.44620439  0.09463789  0.30241293  1
  Al  Al5  1  0.55544594  0.20586600  0.05239839  1
  Al  Al6  1  0.22412324  0.20597033  0.54916144  1
  Al  Al7  1  0.77591558  0.09463789  0.30241293  1
  Al  Al8  1  0.88186122  0.21122223  0.05552876  1
  Al  Al9  1  0.44708135  0.09643595  0.80321304  1
  Al  Al10  1  0.55520770  0.20634250  0.55320880  1
  Al  Al11  1  0.11749774  0.42630760  0.30156027  1
  Al  Al12  1  0.22067362  0.53716351  0.05177825  1
  Al  Al13  1  0.77352351  0.43103462  0.80333685  1
  Al  Al14  1  0.88883155  0.53909482  0.56059223  1
  Al  Al15  1  0.44463403  0.42748979  0.30233313  1
  Al  Al16  1  0.55892073  0.53716355  0.05177825  1
  Al  Al17  1  0.11219974  0.43103462  0.80333687  1
  Al  Al18  1  0.22348706  0.53842009  0.55390720  1
  Al  Al19  1  0.77295256  0.42630759  0.30156027  1
  Al  Al20  1  0.88871750  0.53932289  0.05289331  1
  Al  Al21  1  0.44432028  0.42811730  0.80399167  1
  Al  Al22  1  0.55485077  0.53842008  0.55390718  1
  Al  Al23  1  0.10755746  0.75805701  0.30513948  1
  Al  Al24  1  0.77755482  0.76164823  0.80330304  1
  Al  Al25  1  0.88815664  0.87339042  0.55404009  1
  Al  Al26  1  0.45114341  0.75805702  0.30513948  1
  Al  Al27  1  0.55878132  0.87167712  0.05198039  1
  Al  Al28  1  0.11135872  0.75792808  0.79956476  1
  Al  Al29  1  0.22314533  0.87046728  0.54639547  1
  Al  Al30  1  0.77407848  0.76860095  0.30103466  1
  Al  Al31  1  0.88629946  0.87167712  0.05198038  1
  Al  Al32  1  0.44747110  0.75792806  0.79956477  1
  Al  Al33  1  0.55521085  0.87339043  0.55404010  1
  Sc  Sc34  1  0.10968597  0.09738595  0.80409581  1
  Sc  Sc35  1  0.22429972  0.86815838  0.06537489  1
  N  N36  1  0.22325045  0.20775252  0.35945086  1
  N  N37  1  0.10024348  0.11627088  0.11263488  1
  N  N38  1  0.86787595  0.21674952  0.86699404  1
  N  N39  1  0.77740492  0.09518930  0.61137153  1
  N  N40  1  0.55518920  0.20637950  0.36182056  1
  N  N41  1  0.44614755  0.09342516  0.11249394  1
  N  N42  1  0.23213242  0.21674951  0.86699404  1
  N  N43  1  0.11108356  0.09459075  0.59318627  1
  N  N44  1  0.88575494  0.20775251  0.35945086  1
  N  N45  1  0.77718513  0.09342516  0.11249395  1
  N  N46  1  0.55513672  0.20648450  0.86197022  1
  N  N47  1  0.44416365  0.09518931  0.61137154  1
  N  N48  1  0.22300830  0.53756763  0.36391822  1
  N  N49  1  0.10854814  0.43067811  0.11405614  1
  N  N50  1  0.88897450  0.53880891  0.86060495  1
  N  N51  1  0.77828862  0.42778440  0.60979850  1
  N  N52  1  0.55618199  0.53756762  0.36391819  1
  N  N53  1  0.44383445  0.42908895  0.11093450  1
  N  N54  1  0.22179258  0.53969520  0.86071441  1
  N  N55  1  0.11068486  0.42778441  0.60979854  1
  N  N56  1  0.77753160  0.43067812  0.11405614  1
  N  N57  1  0.55527013  0.53969518  0.86071440  1
  N  N58  1  0.44448526  0.42778737  0.61244581  1
  N  N59  1  0.22287530  0.87100733  0.35089865  1
  N  N60  1  0.09867417  0.74969091  0.11810081  1
  N  N61  1  0.88865742  0.87271016  0.86001909  1
  N  N62  1  0.77806441  0.76062907  0.61064498  1
  N  N63  1  0.55704033  0.87280352  0.36386323  1
  N  N64  1  0.46839272  0.74969096  0.11810077  1
  N  N65  1  0.23129403  0.85416985  0.85625401  1
  N  N66  1  0.11079271  0.76112104  0.60760364  1
  N  N67  1  0.88691408  0.87280352  0.36386323  1
  N  N68  1  0.77821190  0.76033406  0.11223080  1
  N  N69  1  0.55539032  0.87271018  0.86001908  1
  N  N70  1  0.44484413  0.76112103  0.60760364  1
