# generated using pymatgen
data_Sc2Al34N35
_symmetry_space_group_name_H-M   'P 1'
_cell_length_a   9.70331902
_cell_length_b   9.69900456
_cell_length_c   9.25180490
_cell_angle_alpha   90.03682329
_cell_angle_beta   90.00002676
_cell_angle_gamma   59.98530950
_symmetry_Int_Tables_number   1
_chemical_formula_structural   Sc2Al34N35
_chemical_formula_sum   'Sc2 Al34 N35'
_cell_volume   753.94582941
_cell_formula_units_Z   1
loop_
 _symmetry_equiv_pos_site_id
 _symmetry_equiv_pos_as_xyz
  1  'x, y, z'
loop_
 _atom_site_type_symbol
 _atom_site_label
 _atom_site_symmetry_multiplicity
 _atom_site_fract_x
 _atom_site_fract_y
 _atom_site_fract_z
 _atom_site_occupancy
  Al  Al0  1  0.10860314  0.09955328  0.33566548  1
  Al  Al1  1  0.22354126  0.21348046  0.08744330  1
  Al  Al2  1  0.77286002  0.09658610  0.83244658  1
  Al  Al3  1  0.88773216  0.20398467  0.57913379  1
  Al  Al4  1  0.44710154  0.09393019  0.33198741  1
  Al  Al5  1  0.55587880  0.20500197  0.08176581  1
  Al  Al6  1  0.22504268  0.20398473  0.57913378  1
  Al  Al7  1  0.77572783  0.09393017  0.33198739  1
  Al  Al8  1  0.87973790  0.21348043  0.08744329  1
  Al  Al9  1  0.44731334  0.09658616  0.83244655  1
  Al  Al10  1  0.55478458  0.20719042  0.58231596  1
  Al  Al11  1  0.11465163  0.42772760  0.33923884  1
  Al  Al12  1  0.21880185  0.53657596  0.08194917  1
  Al  Al13  1  0.77298651  0.43072239  0.82662572  1
  Al  Al14  1  0.88846321  0.53983309  0.58941698  1
  Al  Al15  1  0.44478617  0.42718721  0.32921959  1
  Al  Al16  1  0.56138177  0.53657590  0.08194921  1
  Al  Al17  1  0.11305059  0.43072241  0.82662571  1
  Al  Al18  1  0.22564297  0.53850348  0.58259604  1
  Al  Al19  1  0.77438036  0.42772758  0.33923886  1
  Al  Al20  1  0.88898058  0.53879841  0.07732087  1
  Al  Al21  1  0.44450239  0.42775476  0.83592787  1
  Al  Al22  1  0.55261311  0.53850342  0.58259602  1
  Al  Al23  1  0.10703961  0.75748165  0.33704256  1
  Al  Al24  1  0.77719970  0.76236029  0.82931840  1
  Al  Al25  1  0.88797785  0.87431140  0.58330494  1
  Al  Al26  1  0.45223847  0.75748161  0.33704254  1
  Al  Al27  1  0.56035436  0.87051974  0.08191015  1
  Al  Al28  1  0.11091651  0.75756785  0.82940353  1
  Al  Al29  1  0.22278109  0.87119762  0.58146673  1
  Al  Al30  1  0.77598402  0.76479161  0.33603679  1
  Al  Al31  1  0.88588559  0.87051969  0.08191018  1
  Al  Al32  1  0.44827534  0.75756783  0.82940357  1
  Al  Al33  1  0.55447047  0.87431140  0.58330497  1
  Sc  Sc34  1  0.10922179  0.09831588  0.84689738  1
  Sc  Sc35  1  0.22575026  0.86525924  0.10168705  1
  N  N36  1  0.22437293  0.20580463  0.37331005  1
  N  N37  1  0.10109860  0.11456233  0.12048425  1
  N  N38  1  0.86490184  0.21938735  0.88011856  1
  N  N39  1  0.77671516  0.09532542  0.62557848  1
  N  N40  1  0.55487326  0.20701312  0.37589234  1
  N  N41  1  0.44667522  0.09279619  0.12686183  1
  N  N42  1  0.23247036  0.21938736  0.88011856  1
  N  N43  1  0.11066569  0.09542815  0.61297001  1
  N  N44  1  0.88658209  0.20580459  0.37331005  1
  N  N45  1  0.77728812  0.09279616  0.12686181  1
  N  N46  1  0.55544152  0.20587656  0.87652000  1
  N  N47  1  0.44471890  0.09532545  0.62557846  1
  N  N48  1  0.22536474  0.53684097  0.37830561  1
  N  N49  1  0.10490525  0.43242825  0.13433993  1
  N  N50  1  0.88932411  0.53811138  0.86891193  1
  N  N51  1  0.77800585  0.42852015  0.61749457  1
  N  N52  1  0.55455395  0.53684094  0.37830558  1
  N  N53  1  0.44381427  0.42913091  0.12273220  1
  N  N54  1  0.22062451  0.53898749  0.87457426  1
  N  N55  1  0.11023344  0.42852021  0.61749455  1
  N  N56  1  0.77942607  0.43242822  0.13433996  1
  N  N57  1  0.55714763  0.53898745  0.87457429  1
  N  N58  1  0.44463501  0.42748946  0.62929186  1
  N  N59  1  0.22284258  0.87107466  0.36644568  1
  N  N60  1  0.09853483  0.74950962  0.13209908  1
  N  N61  1  0.88769284  0.87243362  0.87369583  1
  N  N62  1  0.77818373  0.76039221  0.62157662  1
  N  N63  1  0.55688403  0.87343496  0.37878664  1
  N  N64  1  0.46871525  0.74950957  0.13209906  1
  N  N65  1  0.23189001  0.85297978  0.86984524  1
  N  N66  1  0.11028086  0.76079203  0.62125270  1
  N  N67  1  0.88644078  0.87343494  0.37878662  1
  N  N68  1  0.77986200  0.75703564  0.12979472  1
  N  N69  1  0.55663331  0.87243366  0.87369581  1
  N  N70  1  0.44568684  0.76079196  0.62125273  1
