# generated using pymatgen
data_Sc2Al34N35
_symmetry_space_group_name_H-M   'P 1'
_cell_length_a   9.74958840
_cell_length_b   9.74632974
_cell_length_c   9.09429108
_cell_angle_alpha   89.99606852
_cell_angle_beta   89.99997871
_cell_angle_gamma   59.98896264
_symmetry_Int_Tables_number   1
_chemical_formula_structural   Sc2Al34N35
_chemical_formula_sum   'Sc2 Al34 N35'
_cell_volume   748.30483238
_cell_formula_units_Z   1
loop_
 _symmetry_equiv_pos_site_id
 _symmetry_equiv_pos_as_xyz
  1  'x, y, z'
loop_
 _atom_site_type_symbol
 _atom_site_label
 _atom_site_symmetry_multiplicity
 _atom_site_fract_x
 _atom_site_fract_y
 _atom_site_fract_z
 _atom_site_occupancy
  Al  Al0  1  0.11089758  0.09496446  0.37534869  1
  Al  Al1  1  0.22354260  0.20674182  0.12985568  1
  Al  Al2  1  0.77433139  0.09565307  0.87389104  1
  Al  Al3  1  0.88042913  0.21108507  0.61442574  1
  Al  Al4  1  0.44776840  0.09452047  0.37337761  1
  Al  Al5  1  0.55484339  0.20707285  0.12063774  1
  Al  Al6  1  0.22524540  0.21108511  0.61442577  1
  Al  Al7  1  0.77447069  0.09452042  0.37337762  1
  Al  Al8  1  0.88647519  0.20674179  0.12985570  1
  Al  Al9  1  0.44677502  0.09565313  0.87389106  1
  Al  Al10  1  0.55576965  0.20522029  0.62710791  1
  Al  Al11  1  0.11005575  0.43025932  0.36645433  1
  Al  Al12  1  0.22342253  0.53747572  0.12684563  1
  Al  Al13  1  0.77156855  0.42925345  0.87893524  1
  Al  Al14  1  0.88879797  0.53916364  0.63253572  1
  Al  Al15  1  0.44534990  0.42605973  0.37595317  1
  Al  Al16  1  0.55586140  0.53747567  0.12684570  1
  Al  Al17  1  0.11593746  0.42925351  0.87893523  1
  Al  Al18  1  0.22132881  0.53756332  0.62096845  1
  Al  Al19  1  0.77644457  0.43025926  0.36645429  1
  Al  Al20  1  0.88855971  0.53964015  0.10679610  1
  Al  Al21  1  0.44394968  0.42886021  0.87101182  1
  Al  Al22  1  0.55786752  0.53756326  0.62096839  1
  Al  Al23  1  0.10991715  0.76044647  0.37773331  1
  Al  Al24  1  0.77565496  0.76544973  0.87670615  1
  Al  Al25  1  0.88656484  0.87259112  0.62102478  1
  Al  Al26  1  0.44639603  0.76044647  0.37773330  1
  Al  Al27  1  0.55728442  0.87221422  0.12616681  1
  Al  Al28  1  0.10812337  0.75507381  0.86798393  1
  Al  Al29  1  0.22495206  0.86685566  0.61817398  1
  Al  Al30  1  0.77825540  0.76024881  0.36905953  1
  Al  Al31  1  0.88726105  0.87221423  0.12616683  1
  Al  Al32  1  0.45356251  0.75507374  0.86798393  1
  Al  Al33  1  0.55760369  0.87259114  0.62102480  1
  Sc  Sc34  1  0.10736804  0.10202342  0.85295722  1
  Sc  Sc35  1  0.22406709  0.86862558  0.10937968  1
  N  N36  1  0.22319445  0.20599010  0.34169823  1
  N  N37  1  0.10135126  0.11405704  0.09152918  1
  N  N38  1  0.86421753  0.21925970  0.82650790  1
  N  N39  1  0.77497490  0.09396128  0.58224044  1
  N  N40  1  0.55488444  0.20699074  0.33096545  1
  N  N41  1  0.44382804  0.09388726  0.08648065  1
  N  N42  1  0.23328231  0.21925973  0.82650793  1
  N  N43  1  0.11033209  0.09609539  0.59268652  1
  N  N44  1  0.88757513  0.20599001  0.34169825  1
  N  N45  1  0.77904426  0.09388724  0.08648065  1
  N  N46  1  0.55541771  0.20592417  0.83791060  1
  N  N47  1  0.44782332  0.09396131  0.58224045  1
  N  N48  1  0.22334418  0.53943724  0.33709039  1
  N  N49  1  0.11131063  0.42776138  0.09422019  1
  N  N50  1  0.88922452  0.53831050  0.84678601  1
  N  N51  1  0.77967331  0.43398706  0.57631403  1
  N  N52  1  0.55397824  0.53943721  0.33709044  1
  N  N53  1  0.44340864  0.42994229  0.08329199  1
  N  N54  1  0.22257543  0.53642655  0.83138879  1
  N  N55  1  0.10309920  0.43398710  0.57631409  1
  N  N56  1  0.77768757  0.42776132  0.09422020  1
  N  N57  1  0.55775766  0.53642651  0.83138873  1
  N  N58  1  0.44505379  0.42665194  0.58587267  1
  N  N59  1  0.22277640  0.87120694  0.34879680  1
  N  N60  1  0.09969423  0.74983281  0.08024821  1
  N  N61  1  0.88522423  0.87385868  0.83222969  1
  N  N62  1  0.78070928  0.75534105  0.58019304  1
  N  N63  1  0.55620320  0.87162359  0.33665749  1
  N  N64  1  0.46723269  0.74983273  0.08024821  1
  N  N65  1  0.23172893  0.85330192  0.83927704  1
  N  N66  1  0.10907839  0.76014359  0.58806558  1
  N  N67  1  0.88893293  0.87162355  0.33665750  1
  N  N68  1  0.77762575  0.76150816  0.09061090  1
  N  N69  1  0.55767679  0.87385869  0.83222972  1
  N  N70  1  0.44753771  0.76014353  0.58806557  1
