# generated using pymatgen
data_Sc2Al34N35
_symmetry_space_group_name_H-M   'P 1'
_cell_length_a   9.75071433
_cell_length_b   9.74660803
_cell_length_c   9.10172166
_cell_angle_alpha   90.03666220
_cell_angle_beta   90.00002169
_cell_angle_gamma   59.98608952
_symmetry_Int_Tables_number   1
_chemical_formula_structural   Sc2Al34N35
_chemical_formula_sum   'Sc2 Al34 N35'
_cell_volume   749.00221940
_cell_formula_units_Z   1
loop_
 _symmetry_equiv_pos_site_id
 _symmetry_equiv_pos_as_xyz
  1  'x, y, z'
loop_
 _atom_site_type_symbol
 _atom_site_label
 _atom_site_symmetry_multiplicity
 _atom_site_fract_x
 _atom_site_fract_y
 _atom_site_fract_z
 _atom_site_occupancy
  Al  Al0  1  0.10888321  0.09899315  0.33997845  1
  Al  Al1  1  0.22323544  0.21338079  0.09055333  1
  Al  Al2  1  0.77291530  0.09652177  0.83470970  1
  Al  Al3  1  0.88727105  0.20411606  0.58084941  1
  Al  Al4  1  0.44719205  0.09388314  0.33405092  1
  Al  Al5  1  0.55590363  0.20495233  0.08393462  1
  Al  Al6  1  0.22537241  0.20411611  0.58084940  1
  Al  Al7  1  0.77568438  0.09388310  0.33405091  1
  Al  Al8  1  0.88014340  0.21338074  0.09055332  1
  Al  Al9  1  0.44732239  0.09652184  0.83470968  1
  Al  Al10  1  0.55474509  0.20726940  0.58440184  1
  Al  Al11  1  0.11349938  0.42837269  0.34237867  1
  Al  Al12  1  0.21873600  0.53653523  0.08454240  1
  Al  Al13  1  0.77275198  0.43047471  0.82810287  1
  Al  Al14  1  0.88842187  0.53991574  0.59400997  1
  Al  Al15  1  0.44478268  0.42719419  0.33102965  1
  Al  Al16  1  0.56148833  0.53653517  0.08454244  1
  Al  Al17  1  0.11353276  0.43047475  0.82810285  1
  Al  Al18  1  0.22581964  0.53849795  0.58430491  1
  Al  Al19  1  0.77488753  0.42837266  0.34237867  1
  Al  Al20  1  0.88898533  0.53878890  0.07790823  1
  Al  Al21  1  0.44453434  0.42769086  0.83839094  1
  Al  Al22  1  0.55244199  0.53849789  0.58430488  1
  Al  Al23  1  0.10726052  0.75768554  0.33966497  1
  Al  Al24  1  0.77691534  0.76292903  0.83105566  1
  Al  Al25  1  0.88792035  0.87439228  0.58506932  1
  Al  Al26  1  0.45181368  0.75768550  0.33966492  1
  Al  Al27  1  0.56043958  0.87048608  0.08447871  1
  Al  Al28  1  0.11056684  0.75740257  0.83153000  1
  Al  Al29  1  0.22302693  0.87070596  0.58559417  1
  Al  Al30  1  0.77665969  0.76344027  0.33913743  1
  Al  Al31  1  0.88583404  0.87048602  0.08447874  1
  Al  Al32  1  0.44879032  0.75740255  0.83153007  1
  Al  Al33  1  0.55444708  0.87439228  0.58506935  1
  Sc  Sc34  1  0.10893225  0.09889499  0.84857908  1
  Sc  Sc35  1  0.22559090  0.86557795  0.10305565  1
  N  N36  1  0.22453135  0.20595705  0.37072983  1
  N  N37  1  0.10138973  0.11398008  0.11885223  1
  N  N38  1  0.86527273  0.21926243  0.87761376  1
  N  N39  1  0.77665571  0.09526812  0.62335794  1
  N  N40  1  0.55483219  0.20709526  0.37363731  1
  N  N41  1  0.44665834  0.09280131  0.12456633  1
  N  N42  1  0.23222437  0.21926247  0.87761377  1
  N  N43  1  0.11045785  0.09584383  0.60962867  1
  N  N44  1  0.88627126  0.20595701  0.37072984  1
  N  N45  1  0.77729988  0.09280127  0.12456631  1
  N  N46  1  0.55546135  0.20583693  0.87433241  1
  N  N47  1  0.44483565  0.09526815  0.62335792  1
  N  N48  1  0.22545076  0.53676931  0.37582747  1
  N  N49  1  0.10428504  0.43273058  0.13266465  1
  N  N50  1  0.88933295  0.53809367  0.86502901  1
  N  N51  1  0.77795517  0.42865817  0.61443214  1
  N  N52  1  0.55453960  0.53676929  0.37582744  1
  N  N53  1  0.44383977  0.42907989  0.12019628  1
  N  N54  1  0.22062325  0.53884606  0.87245652  1
  N  N55  1  0.11014607  0.42865823  0.61443211  1
  N  N56  1  0.77974394  0.43273053  0.13266465  1
  N  N57  1  0.55729032  0.53884602  0.87245656  1
  N  N58  1  0.44462732  0.42750485  0.62739170  1
  N  N59  1  0.22298066  0.87079853  0.36604161  1
  N  N60  1  0.09895308  0.74991252  0.12945855  1
  N  N61  1  0.88752619  0.87243526  0.87153125  1
  N  N62  1  0.77816982  0.76042001  0.61886645  1
  N  N63  1  0.55697042  0.87340601  0.37634640  1
  N  N64  1  0.46789410  0.74991247  0.12945851  1
  N  N65  1  0.23159591  0.85356798  0.86536146  1
  N  N66  1  0.10997411  0.76051266  0.61889076  1
  N  N67  1  0.88638333  0.87340598  0.37634638  1
  N  N68  1  0.78015382  0.75645200  0.12786509  1
  N  N69  1  0.55679833  0.87243531  0.87153123  1
  N  N70  1  0.44627296  0.76051259  0.61889081  1
