# generated using pymatgen
data_Sc2Al34N35
_symmetry_space_group_name_H-M   'P 1'
_cell_length_a   9.70198341
_cell_length_b   9.69849838
_cell_length_c   9.24475944
_cell_angle_alpha   89.99293375
_cell_angle_beta   89.99997326
_cell_angle_gamma   59.98813288
_symmetry_Int_Tables_number   1
_chemical_formula_structural   Sc2Al34N35
_chemical_formula_sum   'Sc2 Al34 N35'
_cell_volume   753.25031462
_cell_formula_units_Z   1
loop_
 _symmetry_equiv_pos_site_id
 _symmetry_equiv_pos_as_xyz
  1  'x, y, z'
loop_
 _atom_site_type_symbol
 _atom_site_label
 _atom_site_symmetry_multiplicity
 _atom_site_fract_x
 _atom_site_fract_y
 _atom_site_fract_z
 _atom_site_occupancy
  Al  Al0  1  0.11112790  0.09450381  0.37937264  1
  Al  Al1  1  0.22317558  0.20667737  0.13141653  1
  Al  Al2  1  0.77415574  0.09578234  0.87622715  1
  Al  Al3  1  0.87994406  0.21116138  0.61764329  1
  Al  Al4  1  0.44760508  0.09448781  0.37540085  1
  Al  Al5  1  0.55487253  0.20701456  0.12311725  1
  Al  Al6  1  0.22565415  0.21116142  0.61764331  1
  Al  Al7  1  0.77466666  0.09448778  0.37540087  1
  Al  Al8  1  0.88690664  0.20667736  0.13141654  1
  Al  Al9  1  0.44682140  0.09578238  0.87622717  1
  Al  Al10  1  0.55577020  0.20521918  0.62900099  1
  Al  Al11  1  0.11105436  0.42967874  0.36936042  1
  Al  Al12  1  0.22327208  0.53742492  0.12855006  1
  Al  Al13  1  0.77170988  0.42944006  0.88073268  1
  Al  Al14  1  0.88879760  0.53916440  0.63334728  1
  Al  Al15  1  0.44529314  0.42617327  0.37784690  1
  Al  Al16  1  0.55606264  0.53742488  0.12855011  1
  Al  Al17  1  0.11560955  0.42944011  0.88073268  1
  Al  Al18  1  0.22144530  0.53766165  0.62361556  1
  Al  Al19  1  0.77602654  0.42967870  0.36936038  1
  Al  Al20  1  0.88860999  0.53953962  0.11087485  1
  Al  Al21  1  0.44398410  0.42879135  0.87343351  1
  Al  Al22  1  0.55765270  0.53766160  0.62361549  1
  Al  Al23  1  0.11018207  0.76072616  0.37969141  1
  Al  Al24  1  0.77589573  0.76496817  0.87861023  1
  Al  Al25  1  0.88671005  0.87266244  0.62364577  1
  Al  Al26  1  0.44585142  0.76072616  0.37969140  1
  Al  Al27  1  0.55742856  0.87211794  0.12793187  1
  Al  Al28  1  0.10799811  0.75482308  0.87089111  1
  Al  Al29  1  0.22527345  0.86621281  0.62247646  1
  Al  Al30  1  0.77767860  0.76140242  0.37201177  1
  Al  Al31  1  0.88721318  0.87211794  0.12793188  1
  Al  Al32  1  0.45393850  0.75482301  0.87089109  1
  Al  Al33  1  0.55738714  0.87266247  0.62364579  1
  Sc  Sc34  1  0.10723870  0.10228208  0.85424046  1
  Sc  Sc35  1  0.22375365  0.86925242  0.11096162  1
  N  N36  1  0.22285176  0.20569481  0.33896105  1
  N  N37  1  0.10104200  0.11467556  0.08699496  1
  N  N38  1  0.86345387  0.21954962  0.82415561  1
  N  N39  1  0.77504958  0.09388315  0.57990141  1
  N  N40  1  0.55491670  0.20692623  0.32909168  1
  N  N41  1  0.44378402  0.09397388  0.08425160  1
  N  N42  1  0.23375605  0.21954964  0.82415564  1
  N  N43  1  0.11044944  0.09586068  0.59239053  1
  N  N44  1  0.88821310  0.20569474  0.33896106  1
  N  N45  1  0.77900165  0.09397387  0.08425158  1
  N  N46  1  0.55541833  0.20592292  0.83531022  1
  N  N47  1  0.44782678  0.09388318  0.57990142  1
  N  N48  1  0.22320314  0.53963098  0.33445684  1
  N  N49  1  0.11154957  0.42757722  0.09116992  1
  N  N50  1  0.88924724  0.53826509  0.84315239  1
  N  N51  1  0.77935489  0.43373245  0.57456909  1
  N  N52  1  0.55392555  0.53963094  0.33445688  1
  N  N53  1  0.44346301  0.42983356  0.08124443  1
  N  N54  1  0.22262003  0.53649336  0.82938439  1
  N  N55  1  0.10367226  0.43373247  0.57456915  1
  N  N56  1  0.77763279  0.42757718  0.09116992  1
  N  N57  1  0.55764626  0.53649332  0.82938434  1
  N  N58  1  0.44500694  0.42674567  0.58343039  1
  N  N59  1  0.22255374  0.87165228  0.34542429  1
  N  N60  1  0.09949350  0.74966346  0.07773048  1
  N  N61  1  0.88530207  0.87391343  0.83020062  1
  N  N62  1  0.78043487  0.75588986  0.57832516  1
  N  N63  1  0.55609816  0.87153830  0.33406942  1
  N  N64  1  0.46760275  0.74966339  0.07773048  1
  N  N65  1  0.23203262  0.85269452  0.83772881  1
  N  N66  1  0.10922624  0.76020937  0.58557615  1
  N  N67  1  0.88912326  0.87153827  0.33406943  1
  N  N68  1  0.77757465  0.76161037  0.08775188  1
  N  N69  1  0.55754419  0.87391344  0.83020063  1
  N  N70  1  0.44732407  0.76020932  0.58557614  1
