# generated using pymatgen
data_Sc2Al34N35
_symmetry_space_group_name_H-M   'P 1'
_cell_length_a   9.95885736
_cell_length_b   9.95585634
_cell_length_c   8.44617922
_cell_angle_alpha   90.02648517
_cell_angle_beta   89.99999614
_cell_angle_gamma   59.99005501
_symmetry_Int_Tables_number   1
_chemical_formula_structural   Sc2Al34N35
_chemical_formula_sum   'Sc2 Al34 N35'
_cell_volume   725.16271359
_cell_formula_units_Z   1
loop_
 _symmetry_equiv_pos_site_id
 _symmetry_equiv_pos_as_xyz
  1  'x, y, z'
loop_
 _atom_site_type_symbol
 _atom_site_label
 _atom_site_symmetry_multiplicity
 _atom_site_fract_x
 _atom_site_fract_y
 _atom_site_fract_z
 _atom_site_occupancy
  Al  Al0  1  0.10918636  0.09838704  0.35550937  1
  Al  Al1  1  0.22309163  0.21091622  0.10718694  1
  Al  Al2  1  0.77327231  0.09569751  0.85132897  1
  Al  Al3  1  0.88460035  0.20693945  0.59645516  1
  Al  Al4  1  0.44661036  0.09433308  0.35148146  1
  Al  Al5  1  0.55540467  0.20595030  0.10169581  1
  Al  Al6  1  0.22521980  0.20693957  0.59645520  1
  Al  Al7  1  0.77581617  0.09433295  0.35148148  1
  Al  Al8  1  0.88275200  0.21091597  0.10718700  1
  Al  Al9  1  0.44778969  0.09569764  0.85132901  1
  Al  Al10  1  0.55511775  0.20652406  0.60060903  1
  Al  Al11  1  0.11023810  0.42970367  0.35399062  1
  Al  Al12  1  0.22097056  0.53630107  0.10345403  1
  Al  Al13  1  0.77254728  0.43052396  0.84685564  1
  Al  Al14  1  0.88856367  0.53963197  0.61326870  1
  Al  Al15  1  0.44476205  0.42723530  0.35062930  1
  Al  Al16  1  0.55948795  0.53630097  0.10345403  1
  Al  Al17  1  0.11368803  0.43052411  0.84685561  1
  Al  Al18  1  0.22371693  0.53875734  0.59926198  1
  Al  Al19  1  0.77681776  0.42970352  0.35399059  1
  Al  Al20  1  0.88879553  0.53916827  0.08683574  1
  Al  Al21  1  0.44458218  0.42759502  0.85188836  1
  Al  Al22  1  0.55428528  0.53875727  0.59926197  1
  Al  Al23  1  0.10826104  0.75873302  0.35572544  1
  Al  Al24  1  0.77642383  0.76391198  0.84858506  1
  Al  Al25  1  0.88791675  0.87337271  0.59982583  1
  Al  Al26  1  0.44976577  0.75873295  0.35572536  1
  Al  Al27  1  0.55953567  0.87138744  0.10364412  1
  Al  Al28  1  0.10923243  0.75672871  0.84885507  1
  Al  Al29  1  0.22427403  0.86821183  0.60145356  1
  Al  Al30  1  0.77851285  0.75973387  0.35374973  1
  Al  Al31  1  0.88583676  0.87138731  0.10364414  1
  Al  Al32  1  0.45079863  0.75672868  0.84885514  1
  Al  Al33  1  0.55547017  0.87337277  0.59982586  1
  Sc  Sc34  1  0.10838247  0.09999467  0.85154249  1
  Sc  Sc35  1  0.22481619  0.86712747  0.10701346  1
  N  N36  1  0.22411154  0.20762067  0.35714578  1
  N  N37  1  0.10242084  0.11191808  0.11322158  1
  N  N38  1  0.86810377  0.21730551  0.85647413  1
  N  N39  1  0.77644763  0.09444049  0.60550639  1
  N  N40  1  0.55500915  0.20674133  0.35631618  1
  N  N41  1  0.44562584  0.09345940  0.10835111  1
  N  N42  1  0.23135030  0.21730565  0.85647411  1
  N  N43  1  0.10976793  0.09722376  0.59589736  1
  N  N44  1  0.88502759  0.20762048  0.35714576  1
  N  N45  1  0.77767439  0.09345926  0.10835114  1
  N  N46  1  0.55521060  0.20633849  0.85781801  1
  N  N47  1  0.44587136  0.09444056  0.60550643  1
  N  N48  1  0.22368741  0.53722605  0.35834472  1
  N  N49  1  0.10488400  0.43182633  0.11454610  1
  N  N50  1  0.88908506  0.53858927  0.85336237  1
  N  N51  1  0.77879422  0.43107171  0.60039912  1
  N  N52  1  0.55584613  0.53722597  0.35834469  1
  N  N53  1  0.44386365  0.42903210  0.10622123  1
  N  N54  1  0.22220891  0.53757471  0.85565293  1
  N  N55  1  0.10689335  0.43107186  0.60039912  1
  N  N56  1  0.78004918  0.43182612  0.11454610  1
  N  N57  1  0.55697590  0.53757464  0.85565295  1
  N  N58  1  0.44450408  0.42775126  0.60784224  1
  N  N59  1  0.22338214  0.86999567  0.36405294  1
  N  N60  1  0.10093402  0.75151029  0.10835218  1
  N  N61  1  0.88645370  0.87291926  0.85522756  1
  N  N62  1  0.77945967  0.75784024  0.60285323  1
  N  N63  1  0.55758856  0.87246969  0.35828971  1
  N  N64  1  0.46431552  0.75151022  0.10835214  1
  N  N65  1  0.23068088  0.85539806  0.84679109  1
  N  N66  1  0.10884396  0.75975187  0.60482796  1
  N  N67  1  0.88670157  0.87246956  0.35828971  1
  N  N68  1  0.78027897  0.75620170  0.11110619  1
  N  N69  1  0.55738676  0.87291938  0.85522758  1
  N  N70  1  0.44816394  0.75975176  0.60482800  1
