# generated using pymatgen
data_Sc2Al34N35
_symmetry_space_group_name_H-M   'P 1'
_cell_length_a   9.44616466
_cell_length_b   9.44254919
_cell_length_c   10.00594673
_cell_angle_alpha   89.98761714
_cell_angle_beta   89.99999106
_cell_angle_gamma   59.98732640
_symmetry_Int_Tables_number   1
_chemical_formula_structural   Sc2Al34N35
_chemical_formula_sum   'Sc2 Al34 N35'
_cell_volume   772.81954195
_cell_formula_units_Z   1
loop_
 _symmetry_equiv_pos_site_id
 _symmetry_equiv_pos_as_xyz
  1  'x, y, z'
loop_
 _atom_site_type_symbol
 _atom_site_label
 _atom_site_symmetry_multiplicity
 _atom_site_fract_x
 _atom_site_fract_y
 _atom_site_fract_z
 _atom_site_occupancy
  Al  Al0  1  0.10830587  0.10014589  0.30049857  1
  Al  Al1  1  0.22366104  0.21124752  0.05197102  1
  Al  Al2  1  0.77322748  0.09646031  0.79966423  1
  Al  Al3  1  0.88665034  0.20599625  0.54560610  1
  Al  Al4  1  0.44619137  0.09466387  0.29886388  1
  Al  Al5  1  0.55543284  0.20589191  0.04885220  1
  Al  Al6  1  0.22411103  0.20599627  0.54560610  1
  Al  Al7  1  0.77590236  0.09466386  0.29886387  1
  Al  Al8  1  0.88184904  0.21124752  0.05197101  1
  Al  Al9  1  0.44706988  0.09646034  0.79966424  1
  Al  Al10  1  0.55519515  0.20636730  0.54966224  1
  Al  Al11  1  0.11748487  0.42633239  0.29801084  1
  Al  Al12  1  0.22066193  0.53718766  0.04823021  1
  Al  Al13  1  0.77350946  0.43106166  0.79978798  1
  Al  Al14  1  0.88881853  0.53912054  0.55704187  1
  Al  Al15  1  0.44462167  0.42751424  0.29878680  1
  Al  Al16  1  0.55890800  0.53718767  0.04823024  1
  Al  Al17  1  0.11218650  0.43106167  0.79978797  1
  Al  Al18  1  0.22347341  0.53844568  0.55035317  1
  Al  Al19  1  0.77294033  0.42633236  0.29801082  1
  Al  Al20  1  0.88870458  0.53934839  0.04934668  1
  Al  Al21  1  0.44430712  0.42814341  0.80044080  1
  Al  Al22  1  0.55483852  0.53844568  0.55035316  1
  Al  Al23  1  0.10754587  0.75808331  0.30157975  1
  Al  Al24  1  0.77754181  0.76167393  0.79975505  1
  Al  Al25  1  0.88814380  0.87341578  0.55048610  1
  Al  Al26  1  0.45112843  0.75808333  0.30157976  1
  Al  Al27  1  0.55876925  0.87170311  0.04843275  1
  Al  Al28  1  0.11134466  0.75795271  0.79600781  1
  Al  Al29  1  0.22313319  0.87049123  0.54283944  1
  Al  Al30  1  0.77406634  0.76862492  0.29748858  1
  Al  Al31  1  0.88628524  0.87170308  0.04843276  1
  Al  Al32  1  0.44746030  0.75795266  0.79600782  1
  Al  Al33  1  0.55519800  0.87341580  0.55048610  1
  Sc  Sc34  1  0.10967198  0.09741374  0.80053234  1
  Sc  Sc35  1  0.22428617  0.86818549  0.06180887  1
  N  N36  1  0.22323757  0.20777766  0.35589627  1
  N  N37  1  0.10023121  0.11629521  0.10907798  1
  N  N38  1  0.86786429  0.21677456  0.86343715  1
  N  N39  1  0.77739320  0.09521367  0.60782082  1
  N  N40  1  0.55517666  0.20640425  0.35827256  1
  N  N41  1  0.44613358  0.09345131  0.10894300  1
  N  N42  1  0.23211880  0.21677459  0.86343715  1
  N  N43  1  0.11107086  0.09461590  0.58962487  1
  N  N44  1  0.88574233  0.20777767  0.35589627  1
  N  N45  1  0.77717271  0.09345133  0.10894302  1
  N  N46  1  0.55512344  0.20651081  0.85842111  1
  N  N47  1  0.44415075  0.09521367  0.60782077  1
  N  N48  1  0.22299424  0.53759451  0.36036399  1
  N  N49  1  0.10853593  0.43070226  0.11050500  1
  N  N50  1  0.88896139  0.53883479  0.85705597  1
  N  N51  1  0.77827576  0.42780970  0.60624681  1
  N  N52  1  0.55616882  0.53759453  0.36036397  1
  N  N53  1  0.44382194  0.42911373  0.10738644  1
  N  N54  1  0.22177994  0.53972141  0.85716367  1
  N  N55  1  0.11067214  0.42780971  0.60624680  1
  N  N56  1  0.77751936  0.43070227  0.11050498  1
  N  N57  1  0.55525628  0.53972137  0.85716374  1
  N  N58  1  0.44447194  0.42781378  0.60889349  1
  N  N59  1  0.22286280  0.87103201  0.34734274  1
  N  N60  1  0.09866322  0.74971773  0.11454242  1
  N  N61  1  0.88864471  0.87273523  0.85646892  1
  N  N62  1  0.77805136  0.76065487  0.60709381  1
  N  N63  1  0.55702614  0.87282860  0.36030893  1
  N  N64  1  0.46837670  0.74971772  0.11454243  1
  N  N65  1  0.23128004  0.85419757  0.85268838  1
  N  N66  1  0.11077939  0.76114575  0.60404722  1
  N  N67  1  0.88690281  0.87282860  0.36030895  1
  N  N68  1  0.77819945  0.76035861  0.10868336  1
  N  N69  1  0.55537762  0.87273523  0.85646893  1
  N  N70  1  0.44483249  0.76114573  0.60404721  1
