# generated using pymatgen
data_Sc2Al34N35
_symmetry_space_group_name_H-M   'P 1'
_cell_length_a   9.65372833
_cell_length_b   9.64929711
_cell_length_c   9.40566823
_cell_angle_alpha   90.03576427
_cell_angle_beta   90.00003043
_cell_angle_gamma   59.98483161
_symmetry_Int_Tables_number   1
_chemical_formula_structural   Sc2Al34N35
_chemical_formula_sum   'Sc2 Al34 N35'
_cell_volume   758.65535120
_cell_formula_units_Z   1
loop_
 _symmetry_equiv_pos_site_id
 _symmetry_equiv_pos_as_xyz
  1  'x, y, z'
loop_
 _atom_site_type_symbol
 _atom_site_label
 _atom_site_symmetry_multiplicity
 _atom_site_fract_x
 _atom_site_fract_y
 _atom_site_fract_z
 _atom_site_occupancy
  Al  Al0  1  0.10833174  0.10009606  0.33179952  1
  Al  Al1  1  0.22384434  0.21342281  0.08461892  1
  Al  Al2  1  0.77281436  0.09661492  0.83044064  1
  Al  Al3  1  0.88808220  0.20401471  0.57768102  1
  Al  Al4  1  0.44694428  0.09401005  0.33019508  1
  Al  Al5  1  0.55582919  0.20510118  0.07987620  1
  Al  Al6  1  0.22466261  0.20401478  0.57768101  1
  Al  Al7  1  0.77580521  0.09401005  0.33019505  1
  Al  Al8  1  0.87949244  0.21342279  0.08461891  1
  Al  Al9  1  0.44733020  0.09661497  0.83044060  1
  Al  Al10  1  0.55484300  0.20707359  0.58046265  1
  Al  Al11  1  0.11583408  0.42704464  0.33602757  1
  Al  Al12  1  0.21899002  0.53660766  0.07966897  1
  Al  Al13  1  0.77322555  0.43099781  0.82556782  1
  Al  Al14  1  0.88852130  0.53971693  0.58529716  1
  Al  Al15  1  0.44478035  0.42719883  0.32776652  1
  Al  Al16  1  0.56116191  0.53660760  0.07966900  1
  Al  Al17  1  0.11253616  0.43099781  0.82556782  1
  Al  Al18  1  0.22533272  0.53851449  0.58110037  1
  Al  Al19  1  0.77388086  0.42704464  0.33602760  1
  Al  Al20  1  0.88896768  0.53882421  0.07692601  1
  Al  Al21  1  0.44447328  0.42781298  0.83357968  1
  Al  Al22  1  0.55291236  0.53851443  0.58110035  1
  Al  Al23  1  0.10687674  0.75733417  0.33465228  1
  Al  Al24  1  0.77747947  0.76180074  0.82791728  1
  Al  Al25  1  0.88804425  0.87415635  0.58173606  1
  Al  Al26  1  0.45254879  0.75733413  0.33465228  1
  Al  Al27  1  0.56020251  0.87061972  0.07967970  1
  Al  Al28  1  0.11123446  0.75771356  0.82758402  1
  Al  Al29  1  0.22258972  0.87158034  0.57774666  1
  Al  Al30  1  0.77529377  0.76617207  0.33304550  1
  Al  Al31  1  0.88593743  0.87061969  0.07967973  1
  Al  Al32  1  0.44781168  0.75771353  0.82758404  1
  Al  Al33  1  0.55455912  0.87415634  0.58173609  1
  Sc  Sc34  1  0.10951572  0.09772803  0.84472930  1
  Sc  Sc35  1  0.22584563  0.86506851  0.10010990  1
  N  N36  1  0.22414120  0.20574513  0.37569784  1
  N  N37  1  0.10081402  0.11513149  0.12230477  1
  N  N38  1  0.86470861  0.21937687  0.88226450  1
  N  N39  1  0.77678365  0.09535315  0.62753995  1
  N  N40  1  0.55492738  0.20690487  0.37790198  1
  N  N41  1  0.44663965  0.09283298  0.12893555  1
  N  N42  1  0.23267409  0.21937686  0.88226449  1
  N  N43  1  0.11087666  0.09500624  0.61584218  1
  N  N44  1  0.88687331  0.20574510  0.37569785  1
  N  N45  1  0.77728689  0.09283297  0.12893553  1
  N  N46  1  0.55540558  0.20594844  0.87849494  1
  N  N47  1  0.44462271  0.09535318  0.62753993  1
  N  N48  1  0.22515463  0.53693554  0.38051056  1
  N  N49  1  0.10564842  0.43203190  0.13556296  1
  N  N50  1  0.88929830  0.53816302  0.87268554  1
  N  N51  1  0.77810710  0.42845536  0.62052600  1
  N  N52  1  0.55466949  0.53693551  0.38051055  1
  N  N53  1  0.44378886  0.42918175  0.12515800  1
  N  N54  1  0.22070593  0.53910573  0.87648538  1
  N  N55  1  0.11019701  0.42845541  0.62052599  1
  N  N56  1  0.77907924  0.43203188  0.13556299  1
  N  N57  1  0.55694798  0.53910569  0.87648542  1
  N  N58  1  0.44463400  0.42749149  0.63084678  1
  N  N59  1  0.22271117  0.87133745  0.36697699  1
  N  N60  1  0.09817516  0.74914494  0.13437926  1
  N  N61  1  0.88785839  0.87245423  0.87566039  1
  N  N62  1  0.77825086  0.76025796  0.62411125  1
  N  N63  1  0.55682788  0.87341216  0.38092352  1
  N  N64  1  0.46943962  0.74914488  0.13437928  1
  N  N65  1  0.23216118  0.85243745  0.87383532  1
  N  N66  1  0.11056780  0.76105764  0.62342790  1
  N  N67  1  0.88651970  0.87341215  0.38092349  1
  N  N68  1  0.77953203  0.75769557  0.13136312  1
  N  N69  1  0.55644714  0.87245426  0.87566036  1
  N  N70  1  0.44513428  0.76105758  0.62342792  1
