# generated using pymatgen
data_Sc2Al34N35
_symmetry_space_group_name_H-M   'P 1'
_cell_length_a   9.96117151
_cell_length_b   9.95862245
_cell_length_c   8.43814690
_cell_angle_alpha   90.01187637
_cell_angle_beta   90.00000374
_cell_angle_gamma   59.99154209
_symmetry_Int_Tables_number   1
_chemical_formula_structural   Sc2Al34N35
_chemical_formula_sum   'Sc2 Al34 N35'
_cell_volume   724.85371132
_cell_formula_units_Z   1
loop_
 _symmetry_equiv_pos_site_id
 _symmetry_equiv_pos_as_xyz
  1  'x, y, z'
loop_
 _atom_site_type_symbol
 _atom_site_label
 _atom_site_symmetry_multiplicity
 _atom_site_fract_x
 _atom_site_fract_y
 _atom_site_fract_z
 _atom_site_occupancy
  Al  Al0  1  0.10927290  0.09821402  0.35745399  1
  Al  Al1  1  0.22386446  0.20926475  0.11213193  1
  Al  Al2  1  0.77357436  0.09548685  0.85606621  1
  Al  Al3  1  0.88356763  0.20869659  0.60035759  1
  Al  Al4  1  0.44672339  0.09451277  0.35714371  1
  Al  Al5  1  0.55516492  0.20642983  0.10665948  1
  Al  Al6  1  0.22449540  0.20869677  0.60035762  1
  Al  Al7  1  0.77552348  0.09451265  0.35714369  1
  Al  Al8  1  0.88363072  0.20926453  0.11213198  1
  Al  Al9  1  0.44769836  0.09548698  0.85606622  1
  Al  Al10  1  0.55535003  0.20605952  0.60687754  1
  Al  Al11  1  0.10954923  0.43006659  0.35564102  1
  Al  Al12  1  0.22239637  0.53662170  0.10987848  1
  Al  Al13  1  0.77239155  0.43035239  0.85850024  1
  Al  Al14  1  0.88872256  0.53931417  0.62141254  1
  Al  Al15  1  0.44490011  0.42695916  0.35816633  1
  Al  Al16  1  0.55774150  0.53662163  0.10987851  1
  Al  Al17  1  0.11401534  0.43035256  0.85850016  1
  Al  Al18  1  0.22230514  0.53837753  0.60447886  1
  Al  Al19  1  0.77714370  0.43006640  0.35564101  1
  Al  Al20  1  0.88859876  0.53956182  0.09369843  1
  Al  Al21  1  0.44443922  0.42788096  0.85556279  1
  Al  Al22  1  0.55607689  0.53837740  0.60447886  1
  Al  Al23  1  0.10853571  0.75902651  0.36037410  1
  Al  Al24  1  0.77622810  0.76430343  0.85741303  1
  Al  Al25  1  0.88753586  0.87267486  0.60438959  1
  Al  Al26  1  0.44919755  0.75902644  0.36037410  1
  Al  Al27  1  0.55845868  0.87206153  0.10925385  1
  Al  Al28  1  0.10903763  0.75644336  0.85236343  1
  Al  Al29  1  0.22433410  0.86809164  0.60271191  1
  Al  Al30  1  0.77875536  0.75924884  0.35609774  1
  Al  Al31  1  0.88623959  0.87206143  0.10925385  1
  Al  Al32  1  0.45127877  0.75644332  0.85236346  1
  Al  Al33  1  0.55654889  0.87267490  0.60438962  1
  Sc  Sc34  1  0.10834638  0.10006695  0.85069019  1
  Sc  Sc35  1  0.22482778  0.86710428  0.10659759  1
  N  N36  1  0.22395493  0.20783351  0.35394704  1
  N  N37  1  0.10249145  0.11177700  0.11125613  1
  N  N38  1  0.86813323  0.21717212  0.84886874  1
  N  N39  1  0.77625879  0.09420038  0.59976432  1
  N  N40  1  0.55503122  0.20669720  0.35024220  1
  N  N41  1  0.44521836  0.09364455  0.10313885  1
  N  N42  1  0.23145425  0.21717228  0.84886875  1
  N  N43  1  0.10972768  0.09730436  0.59417976  1
  N  N44  1  0.88497137  0.20783329  0.35394703  1
  N  N45  1  0.77789680  0.09364446  0.10313886  1
  N  N46  1  0.55519162  0.20637644  0.85257966  1
  N  N47  1  0.44630036  0.09420044  0.59976433  1
  N  N48  1  0.22326051  0.53767168  0.35321335  1
  N  N49  1  0.10719040  0.43047552  0.10815147  1
  N  N50  1  0.88902036  0.53871860  0.85517718  1
  N  N51  1  0.77970698  0.43250281  0.59463851  1
  N  N52  1  0.55582733  0.53767160  0.35321333  1
  N  N53  1  0.44380650  0.42914646  0.10113183  1
  N  N54  1  0.22260028  0.53714099  0.84930243  1
  N  N55  1  0.10454952  0.43250300  0.59463857  1
  N  N56  1  0.77909364  0.43047531  0.10815152  1
  N  N57  1  0.55701824  0.53714091  0.84930244  1
  N  N58  1  0.44455837  0.42764269  0.60165112  1
  N  N59  1  0.22340699  0.86994588  0.36256321  1
  N  N60  1  0.10102938  0.75138905  0.10162130  1
  N  N61  1  0.88606588  0.87315544  0.84967651  1
  N  N62  1  0.78042757  0.75590442  0.59745832  1
  N  N63  1  0.55744945  0.87218288  0.35319751  1
  N  N64  1  0.46434141  0.75138898  0.10162125  1
  N  N65  1  0.23070562  0.85534852  0.84472265  1
  N  N66  1  0.10871709  0.75975116  0.60145929  1
  N  N67  1  0.88712737  0.87218277  0.35319752  1
  N  N68  1  0.77932926  0.75810113  0.10590197  1
  N  N69  1  0.55753832  0.87315557  0.84967651  1
  N  N70  1  0.44829151  0.75975103  0.60145932  1
