# generated using pymatgen
data_Sc2Al34N35
_symmetry_space_group_name_H-M   'P 1'
_cell_length_a   9.49319913
_cell_length_b   9.48934220
_cell_length_c   9.87324429
_cell_angle_alpha   89.97628564
_cell_angle_beta   89.99997213
_cell_angle_gamma   59.98657356
_symmetry_Int_Tables_number   1
_chemical_formula_structural   Sc2Al34N35
_chemical_formula_sum   'Sc2 Al34 N35'
_cell_volume   770.15899263
_cell_formula_units_Z   1
loop_
 _symmetry_equiv_pos_site_id
 _symmetry_equiv_pos_as_xyz
  1  'x, y, z'
loop_
 _atom_site_type_symbol
 _atom_site_label
 _atom_site_symmetry_multiplicity
 _atom_site_fract_x
 _atom_site_fract_y
 _atom_site_fract_z
 _atom_site_occupancy
  Al  Al0  1  0.11089948  0.09496062  0.38985081  1
  Al  Al1  1  0.22204850  0.20791796  0.13492470  1
  Al  Al2  1  0.77326355  0.09606152  0.88264032  1
  Al  Al3  1  0.88047977  0.20980654  0.62867849  1
  Al  Al4  1  0.44630982  0.09451662  0.38167682  1
  Al  Al5  1  0.55512848  0.20650263  0.13129743  1
  Al  Al6  1  0.22647328  0.20980653  0.62867850  1
  Al  Al7  1  0.77593311  0.09451664  0.38167683  1
  Al  Al8  1  0.88679316  0.20791794  0.13492469  1
  Al  Al9  1  0.44743448  0.09606149  0.88264033  1
  Al  Al10  1  0.55565979  0.20543997  0.63349489  1
  Al  Al11  1  0.11590106  0.42681236  0.38116798  1
  Al  Al12  1  0.22218427  0.53685337  0.13234358  1
  Al  Al13  1  0.77273561  0.43074170  0.88365540  1
  Al  Al14  1  0.88879042  0.53917875  0.63407196  1
  Al  Al15  1  0.44484792  0.42706371  0.38289982  1
  Al  Al16  1  0.55772197  0.53685336  0.13234358  1
  Al  Al17  1  0.11328228  0.43074168  0.88365540  1
  Al  Al18  1  0.22234663  0.53841004  0.63225961  1
  Al  Al19  1  0.77404619  0.42681239  0.38116794  1
  Al  Al20  1  0.88886757  0.53902449  0.12444594  1
  Al  Al21  1  0.44428293  0.42819370  0.88085669  1
  Al  Al22  1  0.55600292  0.53841003  0.63225959  1
  Al  Al23  1  0.11033684  0.76095449  0.38608132  1
  Al  Al24  1  0.77720826  0.76234306  0.88258818  1
  Al  Al25  1  0.88779847  0.87308203  0.63208241  1
  Al  Al26  1  0.44546830  0.76095447  0.38608132  1
  Al  Al27  1  0.55850321  0.87154933  0.13205205  1
  Al  Al28  1  0.10876385  0.75502637  0.87925906  1
  Al  Al29  1  0.22566985  0.86541993  0.63238558  1
  Al  Al30  1  0.77500186  0.76675586  0.38281290  1
  Al  Al31  1  0.88670711  0.87154930  0.13205206  1
  Al  Al32  1  0.45296940  0.75502636  0.87925905  1
  Al  Al33  1  0.55587912  0.87308204  0.63208240  1
  Sc  Sc34  1  0.10799373  0.10077205  0.86447024  1
  Sc  Sc35  1  0.22302837  0.87070297  0.12473982  1
  N  N36  1  0.22159593  0.20577906  0.32935627  1
  N  N37  1  0.10089828  0.11496306  0.07735309  1
  N  N38  1  0.86292382  0.21915334  0.81843406  1
  N  N39  1  0.77605362  0.09368227  0.57307506  1
  N  N40  1  0.55513556  0.20648851  0.32419519  1
  N  N41  1  0.44405606  0.09435589  0.07714708  1
  N  N42  1  0.23468247  0.21915329  0.81843407  1
  N  N43  1  0.11047478  0.09581001  0.58793509  1
  N  N44  1  0.88938468  0.20577904  0.32935627  1
  N  N45  1  0.77834762  0.09435588  0.07714708  1
  N  N46  1  0.55533488  0.20608982  0.82633424  1
  N  N47  1  0.44702366  0.09368226  0.57307506  1
  N  N48  1  0.22209971  0.54003858  0.32566122  1
  N  N49  1  0.11098511  0.42777994  0.07941663  1
  N  N50  1  0.88923409  0.53829151  0.82856218  1
  N  N51  1  0.77778335  0.43162682  0.57129164  1
  N  N52  1  0.55462137  0.54003856  0.32566122  1
  N  N53  1  0.44391187  0.42893584  0.07538372  1
  N  N54  1  0.22293650  0.53716332  0.82388214  1
  N  N55  1  0.10734944  0.43162680  0.57129169  1
  N  N56  1  0.77799455  0.42777993  0.07941662  1
  N  N57  1  0.55665984  0.53716332  0.82388212  1
  N  N58  1  0.44459922  0.42756111  0.57544458  1
  N  N59  1  0.22189092  0.87297788  0.33983531  1
  N  N60  1  0.09997226  0.75024731  0.07030747  1
  N  N61  1  0.88626611  0.87384619  0.82459957  1
  N  N62  1  0.77882434  0.75911093  0.57389186  1
  N  N63  1  0.55609505  0.87122790  0.32558814  1
  N  N64  1  0.46654011  0.75024728  0.07030745  1
  N  N65  1  0.23292535  0.85090901  0.82765326  1
  N  N66  1  0.10949259  0.76009043  0.57778485  1
  N  N67  1  0.88943676  0.87122789  0.32558814  1
  N  N68  1  0.77804506  0.76066951  0.07767300  1
  N  N69  1  0.55664740  0.87384617  0.82459956  1
  N  N70  1  0.44717660  0.76009042  0.57778485  1
