# generated using pymatgen
data_Sc2Al34N35
_symmetry_space_group_name_H-M   'P 1'
_cell_length_a   9.45042784
_cell_length_b   9.44668825
_cell_length_c   9.99297544
_cell_angle_alpha   89.96624217
_cell_angle_beta   89.99999281
_cell_angle_gamma   59.98690841
_symmetry_Int_Tables_number   1
_chemical_formula_structural   Sc2Al34N35
_chemical_formula_sum   'Sc2 Al34 N35'
_cell_volume   772.50108421
_cell_formula_units_Z   1
loop_
 _symmetry_equiv_pos_site_id
 _symmetry_equiv_pos_as_xyz
  1  'x, y, z'
loop_
 _atom_site_type_symbol
 _atom_site_label
 _atom_site_symmetry_multiplicity
 _atom_site_fract_x
 _atom_site_fract_y
 _atom_site_fract_z
 _atom_site_occupancy
  Al  Al0  1  0.11041661  0.09592658  0.39335817  1
  Al  Al1  1  0.22219461  0.20829348  0.13847753  1
  Al  Al2  1  0.77324608  0.09604170  0.88592221  1
  Al  Al3  1  0.88155287  0.20905727  0.63291093  1
  Al  Al4  1  0.44606065  0.09460079  0.38536390  1
  Al  Al5  1  0.55520775  0.20634435  0.13506544  1
  Al  Al6  1  0.22614964  0.20905726  0.63291092  1
  Al  Al7  1  0.77609836  0.09460080  0.38536390  1
  Al  Al8  1  0.88627175  0.20829348  0.13847752  1
  Al  Al9  1  0.44747206  0.09604169  0.88592220  1
  Al  Al10  1  0.55559993  0.20555991  0.63649807  1
  Al  Al11  1  0.11621222  0.42678054  0.38597905  1
  Al  Al12  1  0.22186295  0.53685434  0.13508080  1
  Al  Al13  1  0.77300900  0.43062220  0.88590730  1
  Al  Al14  1  0.88874663  0.53926650  0.63673619  1
  Al  Al15  1  0.44468136  0.42739708  0.38597616  1
  Al  Al16  1  0.55804252  0.53685434  0.13508081  1
  Al  Al17  1  0.11312861  0.43062221  0.88590730  1
  Al  Al18  1  0.22263507  0.53845983  0.63622614  1
  Al  Al19  1  0.77376706  0.42678054  0.38597904  1
  Al  Al20  1  0.88894617  0.53886749  0.12643441  1
  Al  Al21  1  0.44440229  0.42795521  0.88452681  1
  Al  Al22  1  0.55566487  0.53845982  0.63622614  1
  Al  Al23  1  0.10988399  0.76066276  0.39036434  1
  Al  Al24  1  0.77727228  0.76221522  0.88529679  1
  Al  Al25  1  0.88788778  0.87323745  0.63601952  1
  Al  Al26  1  0.44621308  0.76066274  0.39036435  1
  Al  Al27  1  0.55852022  0.87147569  0.13491016  1
  Al  Al28  1  0.10944429  0.75543266  0.88253837  1
  Al  Al29  1  0.22528112  0.86619756  0.63457823  1
  Al  Al30  1  0.77477174  0.76721633  0.38699086  1
  Al  Al31  1  0.88676393  0.87147566  0.13491015  1
  Al  Al32  1  0.45188284  0.75543264  0.88253836  1
  Al  Al33  1  0.55563456  0.87323744  0.63601951  1
  Sc  Sc34  1  0.10876231  0.09923519  0.87173518  1
  Sc  Sc35  1  0.22340390  0.86995202  0.13307953  1
  N  N36  1  0.22143797  0.20642397  0.33078441  1
  N  N37  1  0.10159418  0.11357148  0.08158969  1
  N  N38  1  0.86429890  0.21817974  0.82041559  1
  N  N39  1  0.77634865  0.09371563  0.57490390  1
  N  N40  1  0.55515706  0.20644571  0.32614526  1
  N  N41  1  0.44409683  0.09449635  0.07860653  1
  N  N42  1  0.23428120  0.21817973  0.82041558  1
  N  N43  1  0.11025749  0.09624478  0.58823856  1
  N  N44  1  0.88889789  0.20642396  0.33078440  1
  N  N45  1  0.77816666  0.09449634  0.07860653  1
  N  N46  1  0.55531771  0.20612441  0.82752082  1
  N  N47  1  0.44669550  0.09371563  0.57490389  1
  N  N48  1  0.22160749  0.54024119  0.32682985  1
  N  N49  1  0.11101946  0.42763362  0.07967860  1
  N  N50  1  0.88916738  0.53842506  0.82918381  1
  N  N51  1  0.77751513  0.43111070  0.57401220  1
  N  N52  1  0.55491116  0.54024117  0.32682985  1
  N  N53  1  0.44401867  0.42872246  0.07720191  1
  N  N54  1  0.22318155  0.53717618  0.82579298  1
  N  N55  1  0.10813393  0.43111070  0.57401221  1
  N  N56  1  0.77810674  0.42763363  0.07967860  1
  N  N57  1  0.55640210  0.53717617  0.82579299  1
  N  N58  1  0.44447617  0.42780743  0.57672914  1
  N  N59  1  0.22194363  0.87287258  0.34458829  1
  N  N60  1  0.10056713  0.75086527  0.07156132  1
  N  N61  1  0.88657933  0.87382723  0.82649011  1
  N  N62  1  0.77845565  0.75984848  0.57606636  1
  N  N63  1  0.55613423  0.87119947  0.32685551  1
  N  N64  1  0.46532745  0.75086527  0.07156132  1
  N  N65  1  0.23287279  0.85101424  0.82662803  1
  N  N66  1  0.10921681  0.75983503  0.57961654  1
  N  N67  1  0.88942613  0.87119947  0.32685551  1
  N  N68  1  0.77805094  0.76065794  0.07844175  1
  N  N69  1  0.55635325  0.87382722  0.82649012  1
  N  N70  1  0.44770796  0.75983501  0.57961655  1
