# generated using pymatgen
data_Sc2Al34N35
_symmetry_space_group_name_H-M   'P 1'
_cell_length_a   9.44607207
_cell_length_b   9.44234106
_cell_length_c   10.00501038
_cell_angle_alpha   89.96277659
_cell_angle_beta   90.00000027
_cell_angle_gamma   59.98693097
_symmetry_Int_Tables_number   1
_chemical_formula_structural   Sc2Al34N35
_chemical_formula_sum   'Sc2 Al34 N35'
_cell_volume   772.71934115
_cell_formula_units_Z   1
loop_
 _symmetry_equiv_pos_site_id
 _symmetry_equiv_pos_as_xyz
  1  'x, y, z'
loop_
 _atom_site_type_symbol
 _atom_site_label
 _atom_site_symmetry_multiplicity
 _atom_site_fract_x
 _atom_site_fract_y
 _atom_site_fract_z
 _atom_site_occupancy
  Al  Al0  1  0.11040278  0.09595551  0.40945330  1
  Al  Al1  1  0.22229177  0.20820377  0.15466335  1
  Al  Al2  1  0.77331366  0.09592259  0.90201356  1
  Al  Al3  1  0.88177082  0.20884884  0.64910901  1
  Al  Al4  1  0.44608933  0.09451716  0.40152417  1
  Al  Al5  1  0.55527401  0.20621306  0.15121206  1
  Al  Al6  1  0.22614138  0.20884884  0.64910904  1
  Al  Al7  1  0.77615456  0.09451716  0.40152417  1
  Al  Al8  1  0.88626554  0.20820378  0.15466335  1
  Al  Al9  1  0.44752484  0.09592257  0.90201356  1
  Al  Al10  1  0.55564130  0.20547843  0.65256418  1
  Al  Al11  1  0.11624437  0.42671641  0.40225391  1
  Al  Al12  1  0.22187390  0.53673953  0.15110814  1
  Al  Al13  1  0.77310992  0.43045436  0.90186454  1
  Al  Al14  1  0.88878919  0.53918263  0.65279045  1
  Al  Al15  1  0.44470841  0.42734419  0.40203589  1
  Al  Al16  1  0.55814763  0.53673953  0.15110813  1
  Al  Al17  1  0.11319680  0.43045436  0.90186456  1
  Al  Al18  1  0.22272506  0.53834867  0.65239523  1
  Al  Al19  1  0.77380027  0.42671641  0.40225390  1
  Al  Al20  1  0.88901764  0.53872580  0.14221471  1
  Al  Al21  1  0.44447669  0.42780768  0.90067218  1
  Al  Al22  1  0.55568728  0.53834864  0.65239521  1
  Al  Al23  1  0.10986248  0.76052068  0.40661360  1
  Al  Al24  1  0.77732293  0.76211516  0.90131946  1
  Al  Al25  1  0.88793500  0.87315606  0.65218851  1
  Al  Al26  1  0.44637791  0.76052066  0.40661360  1
  Al  Al27  1  0.55856515  0.87135942  0.15095763  1
  Al  Al28  1  0.10959148  0.75535890  0.89860552  1
  Al  Al29  1  0.22527462  0.86621180  0.65050256  1
  Al  Al30  1  0.77482012  0.76712080  0.40316377  1
  Al  Al31  1  0.88683651  0.87135939  0.15095762  1
  Al  Al32  1  0.45181068  0.75535887  0.89860550  1
  Al  Al33  1  0.55566997  0.87315606  0.65218851  1
  Sc  Sc34  1  0.10894027  0.09888052  0.88842893  1
  Sc  Sc35  1  0.22355731  0.86964651  0.14984120  1
  N  N36  1  0.22147648  0.20642674  0.34674491  1
  N  N37  1  0.10177775  0.11320555  0.09800604  1
  N  N38  1  0.86459811  0.21790135  0.83641045  1
  N  N39  1  0.77643073  0.09362542  0.59088767  1
  N  N40  1  0.55520663  0.20634781  0.34212154  1
  N  N41  1  0.44415398  0.09440321  0.09453122  1
  N  N42  1  0.23426159  0.21790134  0.83641048  1
  N  N43  1  0.11028064  0.09619975  0.60397526  1
  N  N44  1  0.88885785  0.20642673  0.34674491  1
  N  N45  1  0.77820390  0.09440320  0.09453121  1
  N  N46  1  0.55537247  0.20601616  0.84342192  1
  N  N47  1  0.44670487  0.09362542  0.59088767  1
  N  N48  1  0.22158416  0.54017709  0.34272184  1
  N  N49  1  0.11110746  0.42746391  0.09544988  1
  N  N50  1  0.88921336  0.53833436  0.84505349  1
  N  N51  1  0.77754705  0.43095255  0.59009832  1
  N  N52  1  0.55499981  0.54017707  0.34272184  1
  N  N53  1  0.44408415  0.42859277  0.09317146  1
  N  N54  1  0.22327986  0.53704162  0.84176416  1
  N  N55  1  0.10826140  0.43095256  0.59009832  1
  N  N56  1  0.77818970  0.42746391  0.09544987  1
  N  N57  1  0.55643959  0.53704159  0.84176412  1
  N  N58  1  0.44451158  0.42773781  0.59262406  1
  N  N59  1  0.22201220  0.87273665  0.36098642  1
  N  N60  1  0.10069635  0.75082477  0.08744690  1
  N  N61  1  0.88666994  0.87371516  0.84245960  1
  N  N62  1  0.77846758  0.75982588  0.59206530  1
  N  N63  1  0.55618572  0.87110291  0.34276369  1
  N  N64  1  0.46523997  0.75082475  0.08744689  1
  N  N65  1  0.23291657  0.85092791  0.84224197  1
  N  N66  1  0.10922213  0.75969551  0.59561240  1
  N  N67  1  0.88947242  0.87110291  0.34276369  1
  N  N68  1  0.77809865  0.76056376  0.09428059  1
  N  N69  1  0.55637596  0.87371514  0.84245960  1
  N  N70  1  0.44784340  0.75969549  0.59561239  1
