# generated using pymatgen
data_Sc2Al34N35
_symmetry_space_group_name_H-M   'P 1'
_cell_length_a   9.83984654
_cell_length_b   9.83619904
_cell_length_c   8.81564001
_cell_angle_alpha   90.03424405
_cell_angle_beta   90.00001009
_cell_angle_gamma   59.98776417
_symmetry_Int_Tables_number   1
_chemical_formula_structural   Sc2Al34N35
_chemical_formula_sum   'Sc2 Al34 N35'
_cell_volume   738.83327974
_cell_formula_units_Z   1
loop_
 _symmetry_equiv_pos_site_id
 _symmetry_equiv_pos_as_xyz
  1  'x, y, z'
loop_
 _atom_site_type_symbol
 _atom_site_label
 _atom_site_symmetry_multiplicity
 _atom_site_fract_x
 _atom_site_fract_y
 _atom_site_fract_z
 _atom_site_occupancy
  Al  Al0  1  0.10930468  0.09815028  0.34823707  1
  Al  Al1  1  0.22277428  0.21279812  0.09737281  1
  Al  Al2  1  0.77304202  0.09628006  0.84015111  1
  Al  Al3  1  0.88627013  0.20479145  0.58556854  1
  Al  Al4  1  0.44713895  0.09392224  0.33936751  1
  Al  Al5  1  0.55584884  0.20506193  0.08938818  1
  Al  Al6  1  0.22569798  0.20479149  0.58556855  1
  Al  Al7  1  0.77569839  0.09392218  0.33936753  1
  Al  Al8  1  0.88118728  0.21279801  0.09737283  1
  Al  Al9  1  0.44743737  0.09628015  0.84015111  1
  Al  Al10  1  0.55475137  0.20725681  0.58946609  1
  Al  Al11  1  0.11157912  0.42934870  0.34810523  1
  Al  Al12  1  0.21904795  0.53640734  0.09083213  1
  Al  Al13  1  0.77243209  0.43023791  0.83271652  1
  Al  Al14  1  0.88840352  0.53995240  0.60282089  1
  Al  Al15  1  0.44476323  0.42723307  0.33621863  1
  Al  Al16  1  0.56130427  0.53640726  0.09083216  1
  Al  Al17  1  0.11408940  0.43023798  0.83271647  1
  Al  Al18  1  0.22565382  0.53854214  0.58870686  1
  Al  Al19  1  0.77583181  0.42934865  0.34810519  1
  Al  Al20  1  0.88896392  0.53883166  0.07991908  1
  Al  Al21  1  0.44458848  0.42758256  0.84353811  1
  Al  Al22  1  0.55256365  0.53854210  0.58870683  1
  Al  Al23  1  0.10776429  0.75817734  0.34563038  1
  Al  Al24  1  0.77649352  0.76377268  0.83589711  1
  Al  Al25  1  0.88787666  0.87428255  0.58952837  1
  Al  Al26  1  0.45081813  0.75817730  0.34563028  1
  Al  Al27  1  0.56040320  0.87062084  0.09086088  1
  Al  Al28  1  0.10989788  0.75710258  0.83709262  1
  Al  Al29  1  0.22356543  0.86962901  0.59386635  1
  Al  Al30  1  0.77780182  0.76115598  0.34547014  1
  Al  Al31  1  0.88573572  0.87062076  0.09086093  1
  Al  Al32  1  0.44975929  0.75710255  0.83709272  1
  Al  Al33  1  0.55460046  0.87428256  0.58952840  1
  Sc  Sc34  1  0.10846161  0.09983627  0.85082565  1
  Sc  Sc35  1  0.22521480  0.86633014  0.10528085  1
  N  N36  1  0.22455361  0.20644195  0.36522726  1
  N  N37  1  0.10192188  0.11291582  0.11603901  1
  N  N38  1  0.86634186  0.21870075  0.87106202  1
  N  N39  1  0.77655345  0.09506012  0.61777001  1
  N  N40  1  0.55480975  0.20714014  0.36813448  1
  N  N41  1  0.44641895  0.09295671  0.11919325  1
  N  N42  1  0.23171692  0.21870082  0.87106201  1
  N  N43  1  0.11011594  0.09652764  0.60292832  1
  N  N44  1  0.88576414  0.20644189  0.36522724  1
  N  N45  1  0.77738389  0.09295664  0.11919327  1
  N  N46  1  0.55543683  0.20588596  0.86910615  1
  N  N47  1  0.44514589  0.09506015  0.61777004  1
  N  N48  1  0.22519971  0.53674760  0.36993041  1
  N  N49  1  0.10357712  0.43294184  0.12771329  1
  N  N50  1  0.88930294  0.53815367  0.85808135  1
  N  N51  1  0.77805885  0.42924039  0.60845530  1
  N  N52  1  0.55481239  0.53674757  0.36993035  1
  N  N53  1  0.44387715  0.42900511  0.11489952  1
  N  N54  1  0.22090752  0.53846846  0.86727744  1
  N  N55  1  0.10946015  0.42924047  0.60845525  1
  N  N56  1  0.78024055  0.43294176  0.12771325  1
  N  N57  1  0.55738362  0.53846841  0.86727750  1
  N  N58  1  0.44459110  0.42757730  0.62202999  1
  N  N59  1  0.22319049  0.87037892  0.36532506  1
  N  N60  1  0.09985480  0.75071444  0.12275125  1
  N  N61  1  0.88716324  0.87252289  0.86631014  1
  N  N62  1  0.77839392  0.75997177  0.61291081  1
  N  N63  1  0.55722519  0.87316729  0.37037545  1
  N  N64  1  0.46619046  0.75071440  0.12275118  1
  N  N65  1  0.23107034  0.85461915  0.85622594  1
  N  N66  1  0.10942316  0.76004790  0.61357833  1
  N  N67  1  0.88636730  0.87316723  0.37037543  1
  N  N68  1  0.78056425  0.75563111  0.12273200  1
  N  N69  1  0.55707366  0.87252295  0.86631014  1
  N  N70  1  0.44728867  0.76004781  0.61357840  1
