# generated using pymatgen
data_Sc2Al34N35
_symmetry_space_group_name_H-M   'P 1'
_cell_length_a   9.79554078
_cell_length_b   9.79249966
_cell_length_c   8.94808207
_cell_angle_alpha   89.99897062
_cell_angle_beta   89.99998469
_cell_angle_gamma   59.98974846
_symmetry_Int_Tables_number   1
_chemical_formula_structural   Sc2Al34N35
_chemical_formula_sum   'Sc2 Al34 N35'
_cell_volume   743.25476182
_cell_formula_units_Z   1
loop_
 _symmetry_equiv_pos_site_id
 _symmetry_equiv_pos_as_xyz
  1  'x, y, z'
loop_
 _atom_site_type_symbol
 _atom_site_label
 _atom_site_symmetry_multiplicity
 _atom_site_fract_x
 _atom_site_fract_y
 _atom_site_fract_z
 _atom_site_occupancy
  Al  Al0  1  0.11061629  0.09552707  0.37099720  1
  Al  Al1  1  0.22385009  0.20695453  0.12774481  1
  Al  Al2  1  0.77442533  0.09552347  0.87119115  1
  Al  Al3  1  0.88102886  0.21087826  0.61118836  1
  Al  Al4  1  0.44780789  0.09456586  0.37105005  1
  Al  Al5  1  0.55483660  0.20708641  0.11804815  1
  Al  Al6  1  0.22485249  0.21087830  0.61118839  1
  Al  Al7  1  0.77438580  0.09456581  0.37105005  1
  Al  Al8  1  0.88595503  0.20695449  0.12774483  1
  Al  Al9  1  0.44681068  0.09552353  0.87119117  1
  Al  Al10  1  0.55574805  0.20526347  0.62471216  1
  Al  Al11  1  0.10932069  0.43064729  0.36372024  1
  Al  Al12  1  0.22349516  0.53743952  0.12472648  1
  Al  Al13  1  0.77153141  0.42923077  0.87657543  1
  Al  Al14  1  0.88879888  0.53916179  0.63138441  1
  Al  Al15  1  0.44537165  0.42601619  0.37367831  1
  Al  Al16  1  0.55582495  0.53743947  0.12472656  1
  Al  Al17  1  0.11599727  0.42923082  0.87657541  1
  Al  Al18  1  0.22127513  0.53754201  0.61808584  1
  Al  Al19  1  0.77679164  0.43064722  0.36372020  1
  Al  Al20  1  0.88852082  0.53971792  0.10335338  1
  Al  Al21  1  0.44394522  0.42886913  0.86834743  1
  Al  Al22  1  0.55794250  0.53754192  0.61808577  1
  Al  Al23  1  0.10964735  0.76016004  0.37535215  1
  Al  Al24  1  0.77553747  0.76568473  0.87428432  1
  Al  Al25  1  0.88652360  0.87252993  0.61813885  1
  Al  Al26  1  0.44695227  0.76016004  0.37535215  1
  Al  Al27  1  0.55725111  0.87228432  0.12399348  1
  Al  Al28  1  0.10829018  0.75536603  0.86484851  1
  Al  Al29  1  0.22464919  0.86746143  0.61381340  1
  Al  Al30  1  0.77870610  0.75934740  0.36613745  1
  Al  Al31  1  0.88722427  0.87228433  0.12399351  1
  Al  Al32  1  0.45310351  0.75536597  0.86484850  1
  Al  Al33  1  0.55770613  0.87252993  0.61813888  1
  Sc  Sc34  1  0.10754381  0.10167191  0.85192783  1
  Sc  Sc35  1  0.22436645  0.86802690  0.10816328  1
  N  N36  1  0.22349324  0.20633606  0.34442366  1
  N  N37  1  0.10166515  0.11342929  0.09638211  1
  N  N38  1  0.86505823  0.21890403  0.82947198  1
  N  N39  1  0.77500189  0.09404439  0.58489918  1
  N  N40  1  0.55486923  0.20702115  0.33331127  1
  N  N41  1  0.44394622  0.09380420  0.08900306  1
  N  N42  1  0.23279728  0.21890407  0.82947202  1
  N  N43  1  0.11021215  0.09633528  0.59290425  1
  N  N44  1  0.88693039  0.20633597  0.34442367  1
  N  N45  1  0.77900914  0.09380418  0.08900307  1
  N  N46  1  0.55540380  0.20595200  0.84061748  1
  N  N47  1  0.44771322  0.09404440  0.58489919  1
  N  N48  1  0.22343281  0.53918665  0.33993303  1
  N  N49  1  0.11087049  0.42806811  0.09722141  1
  N  N50  1  0.88919777  0.53836400  0.84989611  1
  N  N51  1  0.77993334  0.43408492  0.57854964  1
  N  N52  1  0.55414018  0.53918661  0.33993308  1
  N  N53  1  0.44339122  0.42997709  0.08571933  1
  N  N54  1  0.22253651  0.53642795  0.83377250  1
  N  N55  1  0.10274128  0.43408496  0.57854970  1
  N  N56  1  0.77782096  0.42806805  0.09722142  1
  N  N57  1  0.55779516  0.53642791  0.83377244  1
  N  N58  1  0.44506214  0.42663520  0.58852414  1
  N  N59  1  0.22297162  0.87081652  0.35228210  1
  N  N60  1  0.09995076  0.75006410  0.08327666  1
  N  N61  1  0.88522778  0.87376518  0.83463125  1
  N  N62  1  0.78090787  0.75494387  0.58248585  1
  N  N63  1  0.55636335  0.87170988  0.33948819  1
  N  N64  1  0.46674488  0.75006401  0.08327665  1
  N  N65  1  0.23143700  0.85388579  0.84070228  1
  N  N66  1  0.10896707  0.76008792  0.59068839  1
  N  N67  1  0.88868649  0.87170983  0.33948821  1
  N  N68  1  0.77777802  0.76120363  0.09356892  1
  N  N69  1  0.55776676  0.87376520  0.83463128  1
  N  N70  1  0.44770472  0.76008784  0.59068839  1
