# generated using pymatgen
data_Sc2Al34N35
_symmetry_space_group_name_H-M   'P 1'
_cell_length_a   9.44614793
_cell_length_b   9.44237950
_cell_length_c   10.00484813
_cell_angle_alpha   89.96289213
_cell_angle_beta   90.00000656
_cell_angle_gamma   59.98680405
_symmetry_Int_Tables_number   1
_chemical_formula_structural   Sc2Al34N35
_chemical_formula_sum   'Sc2 Al34 N35'
_cell_volume   772.71517445
_cell_formula_units_Z   1
loop_
 _symmetry_equiv_pos_site_id
 _symmetry_equiv_pos_as_xyz
  1  'x, y, z'
loop_
 _atom_site_type_symbol
 _atom_site_label
 _atom_site_symmetry_multiplicity
 _atom_site_fract_x
 _atom_site_fract_y
 _atom_site_fract_z
 _atom_site_occupancy
  Al  Al0  1  0.11037583  0.09600879  0.40175761  1
  Al  Al1  1  0.22226331  0.20825826  0.14696772  1
  Al  Al2  1  0.77328573  0.09597832  0.89431939  1
  Al  Al3  1  0.88174083  0.20890529  0.64141144  1
  Al  Al4  1  0.44606178  0.09457242  0.39382766  1
  Al  Al5  1  0.55524579  0.20626892  0.14351613  1
  Al  Al6  1  0.22611433  0.20890527  0.64141145  1
  Al  Al7  1  0.77612627  0.09457243  0.39382764  1
  Al  Al8  1  0.88623894  0.20825827  0.14696771  1
  Al  Al9  1  0.44749644  0.09597831  0.89431938  1
  Al  Al10  1  0.55561365  0.20553315  0.64487041  1
  Al  Al11  1  0.11621690  0.42677141  0.39455640  1
  Al  Al12  1  0.22184668  0.53679461  0.14341332  1
  Al  Al13  1  0.77308178  0.43051006  0.89417264  1
  Al  Al14  1  0.88876152  0.53923739  0.64509734  1
  Al  Al15  1  0.44468068  0.42739909  0.39434171  1
  Al  Al16  1  0.55811917  0.53679462  0.14341332  1
  Al  Al17  1  0.11316863  0.43051006  0.89417264  1
  Al  Al18  1  0.22269645  0.53840402  0.64469927  1
  Al  Al19  1  0.77377217  0.42677141  0.39455639  1
  Al  Al20  1  0.88898953  0.53878144  0.13452662  1
  Al  Al21  1  0.44444837  0.42786370  0.89297585  1
  Al  Al22  1  0.55565996  0.53840402  0.64469927  1
  Al  Al23  1  0.10983538  0.76057660  0.39891488  1
  Al  Al24  1  0.77729514  0.76217015  0.89362612  1
  Al  Al25  1  0.88790719  0.87321132  0.64449277  1
  Al  Al26  1  0.44634850  0.76057658  0.39891488  1
  Al  Al27  1  0.55853764  0.87141430  0.14326264  1
  Al  Al28  1  0.10956221  0.75541377  0.89090906  1
  Al  Al29  1  0.22524754  0.86626538  0.64280797  1
  Al  Al30  1  0.77479178  0.76717690  0.39546903  1
  Al  Al31  1  0.88680854  0.87141427  0.14326263  1
  Al  Al32  1  0.45178445  0.75541376  0.89090908  1
  Al  Al33  1  0.55564194  0.87321131  0.64449278  1
  Sc  Sc34  1  0.10891069  0.09893901  0.88072576  1
  Sc  Sc35  1  0.22352869  0.86970302  0.14213509  1
  N  N36  1  0.22144884  0.20648024  0.33905203  1
  N  N37  1  0.10174816  0.11326416  0.09030740  1
  N  N38  1  0.86456726  0.21795841  0.82871700  1
  N  N39  1  0.77640195  0.09368087  0.58319413  1
  N  N40  1  0.55517868  0.20640312  0.33442818  1
  N  N41  1  0.44412579  0.09445862  0.08683946  1
  N  N42  1  0.23423480  0.21795839  0.82871701  1
  N  N43  1  0.11025302  0.09625438  0.59628440  1
  N  N44  1  0.88883142  0.20648023  0.33905201  1
  N  N45  1  0.77817607  0.09445860  0.08683947  1
  N  N46  1  0.55534484  0.20607079  0.83573082  1
  N  N47  1  0.44667761  0.09368086  0.58319414  1
  N  N48  1  0.22155770  0.54023127  0.33502920  1
  N  N49  1  0.11107867  0.42751989  0.08776073  1
  N  N50  1  0.88918587  0.53838874  0.83736295  1
  N  N51  1  0.77751934  0.43100908  0.58240373  1
  N  N52  1  0.55497151  0.54023126  0.33502920  1
  N  N53  1  0.44405591  0.42864862  0.08547785  1
  N  N54  1  0.22325131  0.53709631  0.83407138  1
  N  N55  1  0.10823200  0.43100907  0.58240373  1
  N  N56  1  0.77816190  0.42751991  0.08776074  1
  N  N57  1  0.55641284  0.53709631  0.83407138  1
  N  N58  1  0.44448376  0.42779290  0.58493257  1
  N  N59  1  0.22198430  0.87279188  0.35328572  1
  N  N60  1  0.10066697  0.75087892  0.07975399  1
  N  N61  1  0.88664127  0.87377035  0.83476699  1
  N  N62  1  0.77844001  0.75988042  0.58437304  1
  N  N63  1  0.55615831  0.87115777  0.33507094  1
  N  N64  1  0.46521453  0.75087894  0.07975401  1
  N  N65  1  0.23288906  0.85098233  0.83455249  1
  N  N66  1  0.10919445  0.75975154  0.58791789  1
  N  N67  1  0.88944440  0.87115777  0.33507094  1
  N  N68  1  0.77807094  0.76061855  0.08658991  1
  N  N69  1  0.55634881  0.87377034  0.83476699  1
  N  N70  1  0.44781444  0.75975152  0.58791788  1
