# generated using pymatgen
data_Sc2Al34N35
_symmetry_space_group_name_H-M   'P 1'
_cell_length_a   9.44641889
_cell_length_b   9.44284853
_cell_length_c   10.00516799
_cell_angle_alpha   89.98876472
_cell_angle_beta   89.99999734
_cell_angle_gamma   59.98749339
_symmetry_Int_Tables_number   1
_chemical_formula_structural   Sc2Al34N35
_chemical_formula_sum   'Sc2 Al34 N35'
_cell_volume   772.80599644
_cell_formula_units_Z   1
loop_
 _symmetry_equiv_pos_site_id
 _symmetry_equiv_pos_as_xyz
  1  'x, y, z'
loop_
 _atom_site_type_symbol
 _atom_site_label
 _atom_site_symmetry_multiplicity
 _atom_site_fract_x
 _atom_site_fract_y
 _atom_site_fract_z
 _atom_site_occupancy
  Al  Al0  1  0.10837046  0.10001818  0.31954303  1
  Al  Al1  1  0.22373448  0.21111536  0.07102802  1
  Al  Al2  1  0.77329307  0.09632642  0.81871788  1
  Al  Al3  1  0.88673048  0.20585582  0.56468549  1
  Al  Al4  1  0.44625680  0.09452924  0.31792496  1
  Al  Al5  1  0.55550230  0.20575451  0.06790918  1
  Al  Al6  1  0.22417278  0.20585589  0.56468551  1
  Al  Al7  1  0.77597299  0.09452927  0.31792492  1
  Al  Al8  1  0.88190913  0.21111543  0.07102802  1
  Al  Al9  1  0.44713959  0.09632648  0.81871787  1
  Al  Al10  1  0.55526043  0.20623816  0.56871449  1
  Al  Al11  1  0.11756363  0.42618747  0.31708391  1
  Al  Al12  1  0.22072564  0.53704458  0.06728528  1
  Al  Al13  1  0.77358621  0.43092674  0.81882807  1
  Al  Al14  1  0.88888468  0.53898987  0.57604965  1
  Al  Al15  1  0.44468879  0.42738150  0.31783927  1
  Al  Al16  1  0.55898890  0.53704458  0.06728532  1
  Al  Al17  1  0.11224614  0.43092679  0.81882802  1
  Al  Al18  1  0.22354303  0.53831447  0.56941843  1
  Al  Al19  1  0.77300796  0.42618750  0.31708384  1
  Al  Al20  1  0.88877483  0.53920932  0.06840593  1
  Al  Al21  1  0.44437702  0.42800501  0.81950235  1
  Al  Al22  1  0.55490153  0.53831444  0.56941839  1
  Al  Al23  1  0.10760641  0.75794095  0.32065068  1
  Al  Al24  1  0.77761438  0.76153042  0.81880247  1
  Al  Al25  1  0.88821155  0.87328481  0.56955320  1
  Al  Al26  1  0.45121175  0.75794096  0.32065066  1
  Al  Al27  1  0.55884198  0.87156405  0.06748733  1
  Al  Al28  1  0.11141943  0.75781252  0.81508312  1
  Al  Al29  1  0.22319617  0.87036667  0.56190226  1
  Al  Al30  1  0.77412686  0.76850533  0.31655062  1
  Al  Al31  1  0.88635301  0.87156411  0.06748730  1
  Al  Al32  1  0.44752709  0.75781251  0.81508317  1
  Al  Al33  1  0.55526272  0.87328487  0.56955319  1
  Sc  Sc34  1  0.10975469  0.09724961  0.81965522  1
  Sc  Sc35  1  0.22436871  0.86802182  0.08092798  1
  N  N36  1  0.22330434  0.20763309  0.37495606  1
  N  N37  1  0.10030106  0.11615694  0.12810285  1
  N  N38  1  0.86792096  0.21664829  0.88248136  1
  N  N39  1  0.77745519  0.09508365  0.62686751  1
  N  N40  1  0.55524279  0.20627347  0.37731502  1
  N  N41  1  0.44620300  0.09331327  0.12799290  1
  N  N42  1  0.23218983  0.21664824  0.88248138  1
  N  N43  1  0.11114178  0.09447550  0.60872322  1
  N  N44  1  0.88582164  0.20763308  0.37495609  1
  N  N45  1  0.77724279  0.09331326  0.12799292  1
  N  N46  1  0.55519264  0.20637377  0.87747050  1
  N  N47  1  0.44422024  0.09508361  0.62686754  1
  N  N48  1  0.22306760  0.53745794  0.37941884  1
  N  N49  1  0.10860277  0.43056141  0.12956776  1
  N  N50  1  0.88902983  0.53869942  0.87610668  1
  N  N51  1  0.77834491  0.42768354  0.62527965  1
  N  N52  1  0.55623355  0.53745792  0.37941887  1
  N  N53  1  0.44388931  0.42898042  0.12642981  1
  N  N54  1  0.22184489  0.53957752  0.87620928  1
  N  N55  1  0.11073060  0.42768353  0.62527968  1
  N  N56  1  0.77759492  0.43056140  0.12956778  1
  N  N57  1  0.55533668  0.53957755  0.87620922  1
  N  N58  1  0.44453969  0.42767977  0.62794537  1
  N  N59  1  0.22292882  0.87090145  0.36637792  1
  N  N60  1  0.09872029  0.74956790  0.13360145  1
  N  N61  1  0.88871010  0.87260032  0.87551377  1
  N  N62  1  0.77812143  0.76051617  0.62613241  1
  N  N63  1  0.55709154  0.87270003  0.37936545  1
  N  N64  1  0.46847092  0.74956792  0.13360145  1
  N  N65  1  0.23136441  0.85403044  0.87179203  1
  N  N66  1  0.11084928  0.76101727  0.62310408  1
  N  N67  1  0.88696752  0.87270005  0.37936543  1
  N  N68  1  0.77826885  0.76022146  0.12773674  1
  N  N69  1  0.55544868  0.87260033  0.87551375  1
  N  N70  1  0.44489256  0.76101724  0.62310407  1
