# generated using pymatgen
data_Sc2Al34N35
_symmetry_space_group_name_H-M   'P 1'
_cell_length_a   9.49246046
_cell_length_b   9.48837559
_cell_length_c   9.87918176
_cell_angle_alpha   90.01645237
_cell_angle_beta   90.00002607
_cell_angle_gamma   59.98577371
_symmetry_Int_Tables_number   1
_chemical_formula_structural   Sc2Al34N35
_chemical_formula_sum   'Sc2 Al34 N35'
_cell_volume   770.47752100
_cell_formula_units_Z   1
loop_
 _symmetry_equiv_pos_site_id
 _symmetry_equiv_pos_as_xyz
  1  'x, y, z'
loop_
 _atom_site_type_symbol
 _atom_site_label
 _atom_site_symmetry_multiplicity
 _atom_site_fract_x
 _atom_site_fract_y
 _atom_site_fract_z
 _atom_site_occupancy
  Al  Al0  1  0.10809690  0.10056576  0.32581896  1
  Al  Al1  1  0.22411330  0.21190586  0.07853991  1
  Al  Al2  1  0.77298718  0.09645934  0.82611662  1
  Al  Al3  1  0.88760981  0.20519830  0.57338069  1
  Al  Al4  1  0.44631166  0.09438635  0.32586185  1
  Al  Al5  1  0.55559542  0.20556870  0.07561733  1
  Al  Al6  1  0.22395147  0.20519834  0.57338069  1
  Al  Al7  1  0.77606152  0.09438637  0.32586184  1
  Al  Al8  1  0.88074039  0.21190584  0.07853992  1
  Al  Al9  1  0.44731302  0.09645936  0.82611660  1
  Al  Al10  1  0.55512321  0.20651319  0.57623521  1
  Al  Al11  1  0.11804490  0.42578310  0.32650158  1
  Al  Al12  1  0.22020534  0.53677523  0.07479157  1
  Al  Al13  1  0.77368924  0.43126037  0.82487095  1
  Al  Al14  1  0.88877154  0.53921649  0.58043541  1
  Al  Al15  1  0.44470012  0.42735930  0.32502934  1
  Al  Al16  1  0.55977904  0.53677520  0.07479159  1
  Al  Al17  1  0.11180993  0.43126039  0.82487093  1
  Al  Al18  1  0.22394675  0.53844459  0.57731868  1
  Al  Al19  1  0.77293160  0.42578310  0.32650161  1
  Al  Al20  1  0.88887825  0.53900308  0.07587878  1
  Al  Al21  1  0.44441914  0.42792127  0.82761905  1
  Al  Al22  1  0.55436828  0.53844454  0.57731868  1
  Al  Al23  1  0.10712855  0.75751776  0.32883281  1
  Al  Al24  1  0.77782162  0.76111637  0.82561120  1
  Al  Al25  1  0.88819784  0.87346406  0.57760841  1
  Al  Al26  1  0.45211335  0.75751773  0.32883284  1
  Al  Al27  1  0.55928240  0.87128044  0.07497292  1
  Al  Al28  1  0.11164505  0.75781970  0.82322705  1
  Al  Al29  1  0.22277133  0.87121702  0.56996362  1
  Al  Al30  1  0.77392557  0.76890846  0.32511895  1
  Al  Al31  1  0.88619679  0.87128044  0.07497292  1
  Al  Al32  1  0.44729490  0.75781966  0.82322705  1
  Al  Al33  1  0.55509776  0.87346407  0.57760843  1
  Sc  Sc34  1  0.11009066  0.09657819  0.83267055  1
  Sc  Sc35  1  0.22519376  0.86637224  0.09225729  1
  N  N36  1  0.22337966  0.20673297  0.38114495  1
  N  N37  1  0.10026694  0.11622566  0.13095735  1
  N  N38  1  0.86635688  0.21781758  0.88771890  1
  N  N39  1  0.77716375  0.09523530  0.63249675  1
  N  N40  1  0.55515204  0.20645552  0.38290925  1
  N  N41  1  0.44632032  0.09314760  0.13388788  1
  N  N42  1  0.23258512  0.21781757  0.88771889  1
  N  N43  1  0.11123592  0.09428778  0.61813831  1
  N  N44  1  0.88664700  0.20673295  0.38114495  1
  N  N45  1  0.77729160  0.09314760  0.13388788  1
  N  N46  1  0.55524924  0.20626113  0.88334103  1
  N  N47  1  0.44436054  0.09523531  0.63249674  1
  N  N48  1  0.22374049  0.53729284  0.38549498  1
  N  N49  1  0.10811990  0.43066819  0.13679817  1
  N  N50  1  0.88911061  0.53853840  0.88155516  1
  N  N51  1  0.77838240  0.42815253  0.62947230  1
  N  N52  1  0.55572633  0.53729280  0.38549498  1
  N  N53  1  0.44380430  0.42915094  0.13166865  1
  N  N54  1  0.22146286  0.53936438  0.88162413  1
  N  N55  1  0.11022462  0.42815258  0.62947227  1
  N  N56  1  0.77797151  0.43066817  0.13679821  1
  N  N57  1  0.55593239  0.53936435  0.88162415  1
  N  N58  1  0.44457056  0.42761844  0.63418247  1
  N  N59  1  0.22270477  0.87135018  0.37090494  1
  N  N60  1  0.09806758  0.74890647  0.13957310  1
  N  N61  1  0.88846085  0.87258347  0.88092259  1
  N  N62  1  0.77831481  0.76013005  0.63105687  1
  N  N63  1  0.55694463  0.87297649  0.38557824  1
  N  N64  1  0.46978566  0.74890643  0.13957314  1
  N  N65  1  0.23211964  0.85252048  0.88009683  1
  N  N66  1  0.11097764  0.76131841  0.62890519  1
  N  N67  1  0.88683857  0.87297650  0.38557823  1
  N  N68  1  0.77849706  0.75976552  0.13422142  1
  N  N69  1  0.55571537  0.87258348  0.88092259  1
  N  N70  1  0.44446364  0.76131837  0.62890518  1
