# generated using pymatgen
data_Sc2Al34N35
_symmetry_space_group_name_H-M   'P 1'
_cell_length_a   9.88206673
_cell_length_b   9.87946306
_cell_length_c   8.67360990
_cell_angle_alpha   90.00434501
_cell_angle_beta   89.99999580
_cell_angle_gamma   59.99130027
_symmetry_Int_Tables_number   1
_chemical_formula_structural   Sc2Al34N35
_chemical_formula_sum   'Sc2 Al34 N35'
_cell_volume   733.28628219
_cell_formula_units_Z   1
loop_
 _symmetry_equiv_pos_site_id
 _symmetry_equiv_pos_as_xyz
  1  'x, y, z'
loop_
 _atom_site_type_symbol
 _atom_site_label
 _atom_site_symmetry_multiplicity
 _atom_site_fract_x
 _atom_site_fract_y
 _atom_site_fract_z
 _atom_site_occupancy
  Al  Al0  1  0.10998003  0.09679964  0.36283482  1
  Al  Al1  1  0.22413317  0.20777434  0.12139005  1
  Al  Al2  1  0.77426711  0.09535318  0.86445923  1
  Al  Al3  1  0.88234958  0.21010569  0.60514603  1
  Al  Al4  1  0.44746459  0.09463044  0.36512771  1
  Al  Al5  1  0.55491788  0.20692384  0.11265050  1
  Al  Al6  1  0.22430435  0.21010577  0.60514605  1
  Al  Al7  1  0.77466453  0.09463040  0.36512768  1
  Al  Al8  1  0.88485229  0.20777423  0.12139007  1
  Al  Al9  1  0.44713922  0.09535324  0.86445923  1
  Al  Al10  1  0.55561531  0.20552890  0.61769002  1
  Al  Al11  1  0.10872318  0.43078666  0.35904607  1
  Al  Al12  1  0.22330877  0.53711543  0.11881694  1
  Al  Al13  1  0.77177574  0.42964292  0.86971384  1
  Al  Al14  1  0.88879657  0.53916631  0.62793291  1
  Al  Al15  1  0.44525869  0.42624207  0.36748525  1
  Al  Al16  1  0.55633540  0.53711537  0.11881702  1
  Al  Al17  1  0.11534074  0.42964301  0.86971379  1
  Al  Al18  1  0.22144535  0.53777395  0.61158579  1
  Al  Al19  1  0.77724974  0.43078655  0.35904604  1
  Al  Al20  1  0.88849829  0.53976290  0.09833000  1
  Al  Al21  1  0.44407184  0.42861584  0.86228964  1
  Al  Al22  1  0.55754032  0.53777383  0.61158575  1
  Al  Al23  1  0.10914911  0.75963643  0.36884783  1
  Al  Al24  1  0.77568276  0.76539417  0.86745672  1
  Al  Al25  1  0.88680536  0.87246603  0.61151055  1
  Al  Al26  1  0.44797413  0.75963641  0.36884786  1
  Al  Al27  1  0.55757091  0.87232128  0.11798845  1
  Al  Al28  1  0.10866990  0.75596933  0.85823954  1
  Al  Al29  1  0.22426355  0.86823273  0.60662898  1
  Al  Al30  1  0.77916077  0.75843801  0.36065464  1
  Al  Al31  1  0.88686753  0.87232128  0.11798849  1
  Al  Al32  1  0.45212052  0.75596927  0.85823953  1
  Al  Al33  1  0.55748828  0.87246601  0.61151060  1
  Sc  Sc34  1  0.10794364  0.10087234  0.85067164  1
  Sc  Sc35  1  0.22478452  0.86719081  0.10669704  1
  N  N36  1  0.22384688  0.20709018  0.34950513  1
  N  N37  1  0.10219443  0.11237089  0.10532858  1
  N  N38  1  0.86676841  0.21806095  0.83765775  1
  N  N39  1  0.77543162  0.09418418  0.59141316  1
  N  N40  1  0.55490509  0.20694940  0.34009047  1
  N  N41  1  0.44443110  0.09368488  0.09522523  1
  N  N42  1  0.23193021  0.21806103  0.83765775  1
  N  N43  1  0.10998743  0.09678476  0.59337292  1
  N  N44  1  0.88582267  0.20709006  0.34950514  1
  N  N45  1  0.77864361  0.09368487  0.09522527  1
  N  N46  1  0.55532619  0.20610723  0.84627048  1
  N  N47  1  0.44714370  0.09418417  0.59141319  1
  N  N48  1  0.22342675  0.53851733  0.34626031  1
  N  N49  1  0.10945311  0.42901692  0.10284513  1
  N  N50  1  0.88913012  0.53849925  0.85410552  1
  N  N51  1  0.78019134  0.43372733  0.58491070  1
  N  N52  1  0.55481549  0.53851730  0.34626034  1
  N  N53  1  0.44350113  0.42975723  0.09216073  1
  N  N54  1  0.22250340  0.53667258  0.84011550  1
  N  N55  1  0.10284077  0.43372742  0.58491077  1
  N  N56  1  0.77828953  0.42901681  0.10284517  1
  N  N57  1  0.55758360  0.53667253  0.84011546  1
  N  N58  1  0.44491850  0.42692245  0.59451956  1
  N  N59  1  0.22323662  0.87028655  0.35832103  1
  N  N60  1  0.10054439  0.75067382  0.09131012  1
  N  N61  1  0.88551659  0.87348081  0.84094479  1
  N  N62  1  0.78100593  0.75474774  0.58873376  1
  N  N63  1  0.55686758  0.87188424  0.34595506  1
  N  N64  1  0.46554161  0.75067369  0.09131008  1
  N  N65  1  0.23095853  0.85484275  0.84306955  1
  N  N66  1  0.10885249  0.75999542  0.59610551  1
  N  N67  1  0.88800786  0.87188419  0.34595510  1
  N  N68  1  0.77835744  0.76004480  0.09964177  1
  N  N69  1  0.55776231  0.87348084  0.84094481  1
  N  N70  1  0.44791183  0.75999531  0.59610552  1
