# generated using pymatgen
data_Sc2Al34N35
_symmetry_space_group_name_H-M   'P 1'
_cell_length_a   9.60185580
_cell_length_b   9.59745973
_cell_length_c   9.56267864
_cell_angle_alpha   90.03304346
_cell_angle_beta   90.00003254
_cell_angle_gamma   59.98486799
_symmetry_Int_Tables_number   1
_chemical_formula_structural   Sc2Al34N35
_chemical_formula_sum   'Sc2 Al34 N35'
_cell_volume   763.05410572
_cell_formula_units_Z   1
loop_
 _symmetry_equiv_pos_site_id
 _symmetry_equiv_pos_as_xyz
  1  'x, y, z'
loop_
 _atom_site_type_symbol
 _atom_site_label
 _atom_site_symmetry_multiplicity
 _atom_site_fract_x
 _atom_site_fract_y
 _atom_site_fract_z
 _atom_site_occupancy
  Al  Al0  1  0.10811497  0.10052960  0.32869083  1
  Al  Al1  1  0.22409588  0.21316961  0.08213009  1
  Al  Al2  1  0.77279355  0.09660773  0.82868166  1
  Al  Al3  1  0.88824339  0.20422222  0.57634929  1
  Al  Al4  1  0.44673621  0.09411693  0.32860712  1
  Al  Al5  1  0.55576110  0.20523735  0.07822560  1
  Al  Al6  1  0.22429393  0.20422228  0.57634929  1
  Al  Al7  1  0.77590640  0.09411694  0.32860709  1
  Al  Al8  1  0.87949409  0.21316959  0.08213008  1
  Al  Al9  1  0.44735823  0.09660776  0.82868162  1
  Al  Al10  1  0.55491730  0.20692500  0.57881411  1
  Al  Al11  1  0.11691489  0.42640994  0.33279636  1
  Al  Al12  1  0.21929174  0.53663960  0.07768930  1
  Al  Al13  1  0.77343413  0.43123577  0.82489567  1
  Al  Al14  1  0.88859311  0.53957333  0.58213990  1
  Al  Al15  1  0.44476261  0.42723429  0.32659945  1
  Al  Al16  1  0.56082826  0.53663956  0.07768933  1
  Al  Al17  1  0.11208962  0.43123577  0.82489566  1
  Al  Al18  1  0.22492019  0.53851944  0.57975023  1
  Al  Al19  1  0.77343474  0.42640995  0.33279640  1
  Al  Al20  1  0.88894831  0.53886295  0.07662237  1
  Al  Al21  1  0.44444994  0.42785965  0.83137518  1
  Al  Al22  1  0.55331995  0.53851938  0.57975021  1
  Al  Al23  1  0.10680305  0.75726575  0.33248494  1
  Al  Al24  1  0.77770535  0.76134895  0.82682002  1
  Al  Al25  1  0.88810840  0.87394379  0.58029340  1
  Al  Al26  1  0.45269088  0.75726571  0.33248496  1
  Al  Al27  1  0.55997564  0.87078742  0.07776145  1
  Al  Al28  1  0.11149083  0.75781828  0.82599259  1
  Al  Al29  1  0.22248888  0.87178200  0.57455893  1
  Al  Al30  1  0.77465601  0.76744759  0.33018528  1
  Al  Al31  1  0.88599660  0.87078738  0.07776147  1
  Al  Al32  1  0.44745058  0.75781824  0.82599260  1
  Al  Al33  1  0.55470753  0.87394379  0.58029343  1
  Sc  Sc34  1  0.10979298  0.09717352  0.84187076  1
  Sc  Sc35  1  0.22583342  0.86509292  0.09820158  1
  N  N36  1  0.22386468  0.20583195  0.37784546  1
  N  N37  1  0.10055737  0.11564479  0.12446962  1
  N  N38  1  0.86478055  0.21917687  0.88416764  1
  N  N39  1  0.77686858  0.09535019  0.62930806  1
  N  N40  1  0.55499155  0.20677652  0.37971249  1
  N  N41  1  0.44656304  0.09290730  0.13080252  1
  N  N42  1  0.23280216  0.21917685  0.88416764  1
  N  N43  1  0.11106480  0.09462999  0.61792097  1
  N  N44  1  0.88706300  0.20583193  0.37784547  1
  N  N45  1  0.77728918  0.09290729  0.13080251  1
  N  N46  1  0.55535792  0.20604376  0.88028396  1
  N  N47  1  0.44454077  0.09535022  0.62930803  1
  N  N48  1  0.22481892  0.53704334  0.38245304  1
  N  N49  1  0.10647483  0.43157191  0.13636314  1
  N  N50  1  0.88925360  0.53825241  0.87613486  1
  N  N51  1  0.77822792  0.42842149  0.62351612  1
  N  N52  1  0.55489737  0.53704331  0.38245303  1
  N  N53  1  0.44377015  0.42921921  0.12745973  1
  N  N54  1  0.22086834  0.53920558  0.87825533  1
  N  N55  1  0.11011008  0.42842154  0.62351611  1
  N  N56  1  0.77871284  0.43157189  0.13636318  1
  N  N57  1  0.55668571  0.53920555  0.87825536  1
  N  N58  1  0.44462317  0.42751318  0.63214061  1
  N  N59  1  0.22261619  0.87152739  0.36776078  1
  N  N60  1  0.09791685  0.74886275  0.13636682  1
  N  N61  1  0.88803344  0.87249554  0.87748289  1
  N  N62  1  0.77832979  0.76010011  0.62650704  1
  N  N63  1  0.55681264  0.87333506  0.38277566  1
  N  N64  1  0.46998012  0.74886270  0.13636684  1
  N  N65  1  0.23235649  0.85204682  0.87709216  1
  N  N66  1  0.11080344  0.76127007  0.62542955  1
  N  N67  1  0.88661202  0.87333506  0.38277563  1
  N  N68  1  0.77917811  0.75840340  0.13259470  1
  N  N69  1  0.55623075  0.87249556  0.87748286  1
  N  N70  1  0.44468621  0.76127001  0.62542955  1
