# generated using pymatgen
data_Sc2Al34N35
_symmetry_space_group_name_H-M   'P 1'
_cell_length_a   9.44627090
_cell_length_b   9.44244656
_cell_length_c   10.00555750
_cell_angle_alpha   89.96235374
_cell_angle_beta   89.99960150
_cell_angle_gamma   59.98722645
_symmetry_Int_Tables_number   1
_chemical_formula_structural   Sc2Al34N35
_chemical_formula_sum   'Sc2 Al34 N35'
_cell_volume   772.78879609
_cell_formula_units_Z   1
loop_
 _symmetry_equiv_pos_site_id
 _symmetry_equiv_pos_as_xyz
  1  'x, y, z'
loop_
 _atom_site_type_symbol
 _atom_site_label
 _atom_site_symmetry_multiplicity
 _atom_site_fract_x
 _atom_site_fract_y
 _atom_site_fract_z
 _atom_site_occupancy
  Al  Al0  1  0.11043064  0.09587620  0.42015402  1
  Al  Al1  1  0.22232319  0.20816571  0.16536594  1
  Al  Al2  1  0.77335153  0.09585966  0.91271074  1
  Al  Al3  1  0.88180540  0.20874694  0.65980778  1
  Al  Al4  1  0.44609535  0.09445575  0.41222865  1
  Al  Al5  1  0.55531883  0.20617556  0.16193569  1
  Al  Al6  1  0.22614703  0.20872604  0.65983169  1
  Al  Al7  1  0.77617464  0.09444773  0.41223665  1
  Al  Al8  1  0.88635695  0.20811982  0.16536524  1
  Al  Al9  1  0.44755824  0.09586087  0.91272587  1
  Al  Al10  1  0.55563943  0.20540701  0.66327075  1
  Al  Al11  1  0.11627965  0.42662808  0.41299838  1
  Al  Al12  1  0.22192529  0.53669615  0.16182655  1
  Al  Al13  1  0.77316998  0.43034302  0.91256280  1
  Al  Al14  1  0.88879574  0.53908401  0.66351030  1
  Al  Al15  1  0.44471940  0.42728678  0.41274210  1
  Al  Al16  1  0.55822680  0.53666917  0.16180941  1
  Al  Al17  1  0.11322273  0.43038092  0.91258783  1
  Al  Al18  1  0.22272809  0.53825267  0.66311786  1
  Al  Al19  1  0.77383662  0.42664252  0.41295622  1
  Al  Al20  1  0.88906097  0.53869076  0.15291561  1
  Al  Al21  1  0.44452341  0.42774628  0.91138545  1
  Al  Al22  1  0.55571496  0.53824733  0.66308777  1
  Al  Al23  1  0.10987044  0.76044257  0.41731007  1
  Al  Al24  1  0.77738707  0.76204585  0.91202535  1
  Al  Al25  1  0.88794105  0.87308537  0.66288708  1
  Al  Al26  1  0.44641262  0.76043438  0.41731808  1
  Al  Al27  1  0.55862402  0.87131183  0.16165197  1
  Al  Al28  1  0.10965542  0.75528659  0.90932923  1
  Al  Al29  1  0.22530082  0.86608104  0.66118294  1
  Al  Al30  1  0.77484145  0.76702673  0.41386312  1
  Al  Al31  1  0.88689335  0.87133649  0.16167896  1
  Al  Al32  1  0.45190614  0.75525592  0.90927830  1
  Al  Al33  1  0.55568173  0.87307017  0.66288163  1
  Sc  Sc34  1  0.10901505  0.09874493  0.89914342  1
  Sc  Sc35  1  0.22367696  0.86955589  0.16057567  1
  N  N36  1  0.22149499  0.20635941  0.35744777  1
  N  N37  1  0.10186837  0.11310432  0.10872187  1
  N  N38  1  0.86468379  0.21779431  0.84710555  1
  N  N39  1  0.77642646  0.09355211  0.60159295  1
  N  N40  1  0.55522546  0.20628781  0.35283398  1
  N  N41  1  0.44419527  0.09437296  0.10524727  1
  N  N42  1  0.23428665  0.21782584  0.84712733  1
  N  N43  1  0.11030246  0.09608386  0.61467113  1
  N  N44  1  0.88889292  0.20634534  0.35745245  1
  N  N45  1  0.77824545  0.09436102  0.10523575  1
  N  N46  1  0.55540084  0.20595758  0.85412841  1
  N  N47  1  0.44670498  0.09353737  0.60158928  1
  N  N48  1  0.22159693  0.54010520  0.35342968  1
  N  N49  1  0.11114120  0.42743422  0.10616443  1
  N  N50  1  0.88924047  0.53826061  0.85577155  1
  N  N51  1  0.77758384  0.43085318  0.60079085  1
  N  N52  1  0.55502465  0.54010398  0.35341848  1
  N  N53  1  0.44412841  0.42855575  0.10389272  1
  N  N54  1  0.22330939  0.53697101  0.85248893  1
  N  N55  1  0.10828498  0.43083072  0.60083177  1
  N  N56  1  0.77827011  0.42739842  0.10615618  1
  N  N57  1  0.55650892  0.53694486  0.85244538  1
  N  N58  1  0.44450786  0.42766942  0.60332394  1
  N  N59  1  0.22204278  0.87264792  0.37170537  1
  N  N60  1  0.10077240  0.75079535  0.09817569  1
  N  N61  1  0.88674442  0.87363221  0.85316132  1
  N  N62  1  0.77847085  0.75973537  0.60276625  1
  N  N63  1  0.55619623  0.87104423  0.35345869  1
  N  N64  1  0.46534886  0.75073271  0.09812095  1
  N  N65  1  0.23301441  0.85079233  0.85291501  1
  N  N66  1  0.10923118  0.75958831  0.60630224  1
  N  N67  1  0.88948088  0.87102640  0.35347170  1
  N  N68  1  0.77815766  0.76054663  0.10498414  1
  N  N69  1  0.55644474  0.87364985  0.85315454  1
  N  N70  1  0.44786795  0.75959036  0.60630581  1
