# generated using pymatgen
data_Sc2Al34N35
_symmetry_space_group_name_H-M   'P 1'
_cell_length_a   9.44604619
_cell_length_b   9.44232030
_cell_length_c   10.00506147
_cell_angle_alpha   89.96271528
_cell_angle_beta   90.00000541
_cell_angle_gamma   59.98694993
_symmetry_Int_Tables_number   1
_chemical_formula_structural   Sc2Al34N35
_chemical_formula_sum   'Sc2 Al34 N35'
_cell_volume   772.71961700
_cell_formula_units_Z   1
loop_
 _symmetry_equiv_pos_site_id
 _symmetry_equiv_pos_as_xyz
  1  'x, y, z'
loop_
 _atom_site_type_symbol
 _atom_site_label
 _atom_site_symmetry_multiplicity
 _atom_site_fract_x
 _atom_site_fract_y
 _atom_site_fract_z
 _atom_site_occupancy
  Al  Al0  1  0.11042873  0.09590409  0.41663928  1
  Al  Al1  1  0.22231768  0.20815242  0.16184621  1
  Al  Al2  1  0.77333933  0.09587087  0.90919996  1
  Al  Al3  1  0.88179677  0.20879719  0.65629561  1
  Al  Al4  1  0.44611471  0.09446574  0.40871219  1
  Al  Al5  1  0.55530021  0.20616127  0.15840092  1
  Al  Al6  1  0.22616753  0.20879717  0.65629559  1
  Al  Al7  1  0.77618110  0.09446575  0.40871220  1
  Al  Al8  1  0.88629159  0.20815241  0.16184622  1
  Al  Al9  1  0.44755142  0.09587087  0.90919993  1
  Al  Al10  1  0.55566715  0.20542721  0.65975110  1
  Al  Al11  1  0.11627074  0.42666399  0.40944130  1
  Al  Al12  1  0.22189962  0.53668809  0.15829613  1
  Al  Al13  1  0.77313565  0.43040349  0.90904988  1
  Al  Al14  1  0.88881502  0.53913146  0.65997545  1
  Al  Al15  1  0.44473450  0.42729255  0.40922341  1
  Al  Al16  1  0.55817400  0.53668808  0.15829613  1
  Al  Al17  1  0.11322253  0.43040348  0.90904985  1
  Al  Al18  1  0.22275136  0.53829733  0.65958211  1
  Al  Al19  1  0.77382683  0.42666394  0.40944133  1
  Al  Al20  1  0.88904387  0.53867401  0.14940064  1
  Al  Al21  1  0.44450274  0.42775616  0.90786107  1
  Al  Al22  1  0.55571283  0.53829731  0.65958214  1
  Al  Al23  1  0.10988875  0.76046924  0.41379904  1
  Al  Al24  1  0.77734900  0.76206364  0.90850696  1
  Al  Al25  1  0.88796140  0.87310400  0.65937517  1
  Al  Al26  1  0.44640363  0.76046920  0.41379906  1
  Al  Al27  1  0.55859104  0.87130816  0.15814560  1
  Al  Al28  1  0.10961746  0.75530730  0.90579224  1
  Al  Al29  1  0.22530097  0.86615959  0.65768989  1
  Al  Al30  1  0.77484637  0.76706886  0.41034980  1
  Al  Al31  1  0.88686252  0.87130814  0.15814561  1
  Al  Al32  1  0.45183689  0.75530728  0.90579224  1
  Al  Al33  1  0.55569615  0.87310399  0.65937517  1
  Sc  Sc34  1  0.10896619  0.09882917  0.89561222  1
  Sc  Sc35  1  0.22358294  0.86959585  0.15702710  1
  N  N36  1  0.22150240  0.20637517  0.35392834  1
  N  N37  1  0.10180360  0.11315442  0.10518822  1
  N  N38  1  0.86462321  0.21785031  0.84359596  1
  N  N39  1  0.77645686  0.09357376  0.59807420  1
  N  N40  1  0.55523284  0.20629590  0.34930884  1
  N  N41  1  0.44418073  0.09435153  0.10171679  1
  N  N42  1  0.23428807  0.21785024  0.84359594  1
  N  N43  1  0.11030668  0.09614808  0.61116050  1
  N  N44  1  0.88888401  0.20637515  0.35392834  1
  N  N45  1  0.77822942  0.09435153  0.10171680  1
  N  N46  1  0.55539823  0.20596519  0.85060788  1
  N  N47  1  0.44673088  0.09357375  0.59807419  1
  N  N48  1  0.22161000  0.54012525  0.34990818  1
  N  N49  1  0.11113342  0.42741297  0.10263412  1
  N  N50  1  0.88923906  0.53828351  0.85223800  1
  N  N51  1  0.77757301  0.43090065  0.59728444  1
  N  N52  1  0.55502635  0.54012522  0.34990817  1
  N  N53  1  0.44411032  0.42854108  0.10035924  1
  N  N54  1  0.22330622  0.53699031  0.84895000  1
  N  N55  1  0.10828781  0.43090066  0.59728441  1
  N  N56  1  0.77821531  0.42741297  0.10263415  1
  N  N57  1  0.55646513  0.53699028  0.84895003  1
  N  N58  1  0.44453767  0.42768616  0.59980996  1
  N  N59  1  0.22203804  0.87268555  0.36817108  1
  N  N60  1  0.10072220  0.75077337  0.09463322  1
  N  N61  1  0.88669591  0.87366353  0.84964532  1
  N  N62  1  0.77849349  0.75977456  0.59925012  1
  N  N63  1  0.55621161  0.87105179  0.34994989  1
  N  N64  1  0.46526618  0.75077333  0.09463321  1
  N  N65  1  0.23294281  0.85087604  0.84942755  1
  N  N66  1  0.10924828  0.75964393  0.60279715  1
  N  N67  1  0.88949819  0.87105181  0.34994989  1
  N  N68  1  0.77812459  0.76051252  0.10146727  1
  N  N69  1  0.55640221  0.87366350  0.84964531  1
  N  N70  1  0.44786933  0.75964390  0.60279718  1
