# generated using pymatgen
data_Sc2Al34N35
_symmetry_space_group_name_H-M   'P 1'
_cell_length_a   9.92208126
_cell_length_b   9.91961185
_cell_length_c   8.54991623
_cell_angle_alpha   90.00723579
_cell_angle_beta   90.00000098
_cell_angle_gamma   59.99177902
_symmetry_Int_Tables_number   1
_chemical_formula_structural   Sc2Al34N35
_chemical_formula_sum   'Sc2 Al34 N35'
_cell_volume   728.70871247
_cell_formula_units_Z   1
loop_
 _symmetry_equiv_pos_site_id
 _symmetry_equiv_pos_as_xyz
  1  'x, y, z'
loop_
 _atom_site_type_symbol
 _atom_site_label
 _atom_site_symmetry_multiplicity
 _atom_site_fract_x
 _atom_site_fract_y
 _atom_site_fract_z
 _atom_site_occupancy
  Al  Al0  1  0.10964079  0.09747818  0.35974592  1
  Al  Al1  1  0.22407280  0.20839486  0.11704360  1
  Al  Al2  1  0.77398112  0.09536815  0.86035327  1
  Al  Al3  1  0.88298259  0.20952397  0.60256885  1
  Al  Al4  1  0.44710704  0.09459872  0.36137097  1
  Al  Al5  1  0.55501994  0.20671974  0.10980117  1
  Al  Al6  1  0.22425304  0.20952408  0.60256888  1
  Al  Al7  1  0.77505383  0.09459866  0.36137094  1
  Al  Al8  1  0.88429221  0.20839471  0.11704365  1
  Al  Al9  1  0.44741026  0.09536822  0.86035327  1
  Al  Al10  1  0.55549754  0.20576443  0.61267319  1
  Al  Al11  1  0.10889813  0.43054459  0.35718950  1
  Al  Al12  1  0.22298346  0.53686724  0.11477950  1
  Al  Al13  1  0.77203502  0.42999519  0.86489164  1
  Al  Al14  1  0.88878208  0.53919523  0.62539200  1
  Al  Al15  1  0.44510313  0.42655317  0.36327511  1
  Al  Al16  1  0.55690890  0.53686717  0.11477956  1
  Al  Al17  1  0.11472916  0.42999529  0.86489155  1
  Al  Al18  1  0.22173719  0.53803634  0.60803892  1
  Al  Al19  1  0.77731683  0.43054446  0.35718948  1
  Al  Al20  1  0.88852540  0.53970864  0.09624245  1
  Al  Al21  1  0.44422485  0.42830978  0.85893018  1
  Al  Al22  1  0.55698607  0.53803621  0.60803891  1
  Al  Al23  1  0.10888381  0.75936886  0.36468323  1
  Al  Al24  1  0.77591250  0.76493469  0.86286884  1
  Al  Al25  1  0.88713230  0.87249938  0.60786510  1
  Al  Al26  1  0.44850704  0.75936882  0.36468326  1
  Al  Al27  1  0.55794090  0.87225402  0.11393683  1
  Al  Al28  1  0.10886122  0.75623843  0.85505390  1
  Al  Al29  1  0.22423465  0.86829053  0.60423846  1
  Al  Al30  1  0.77911872  0.75852212  0.35822698  1
  Al  Al31  1  0.88656483  0.87225400  0.11393687  1
  Al  Al32  1  0.45166011  0.75623838  0.85505391  1
  Al  Al33  1  0.55712799  0.87249936  0.60786515  1
  Sc  Sc34  1  0.10814718  0.10046525  0.85049756  1
  Sc  Sc35  1  0.22484906  0.86706174  0.10644211  1
  N  N36  1  0.22389131  0.20747608  0.35176666  1
  N  N37  1  0.10237729  0.11200523  0.10867182  1
  N  N38  1  0.86752710  0.21760671  0.84294989  1
  N  N39  1  0.77583809  0.09420723  0.59537387  1
  N  N40  1  0.55496080  0.20683799  0.34484376  1
  N  N41  1  0.44479609  0.09366359  0.09904024  1
  N  N42  1  0.23162576  0.21760678  0.84294991  1
  N  N43  1  0.10986755  0.09702456  0.59371145  1
  N  N44  1  0.88539238  0.20747593  0.35176666  1
  N  N45  1  0.77829996  0.09366357  0.09904027  1
  N  N46  1  0.55526223  0.20623515  0.84926269  1
  N  N47  1  0.44671418  0.09420723  0.59537391  1
  N  N48  1  0.22333780  0.53810743  0.34968978  1
  N  N49  1  0.10847098  0.42966106  0.10544558  1
  N  N50  1  0.88908478  0.53858987  0.85513725  1
  N  N51  1  0.78010029  0.43324263  0.58928398  1
  N  N52  1  0.55531432  0.53810738  0.34968978  1
  N  N53  1  0.44363959  0.42948031  0.09637808  1
  N  N54  1  0.22253066  0.53690786  0.84432486  1
  N  N55  1  0.10341649  0.43324275  0.58928406  1
  N  N56  1  0.77862752  0.42966092  0.10544563  1
  N  N57  1  0.55732103  0.53690780  0.84432484  1
  N  N58  1  0.44475157  0.42725630  0.59791136  1
  N  N59  1  0.22331531  0.87012919  0.36060780  1
  N  N60  1  0.10082500  0.75103050  0.09635574  1
  N  N61  1  0.88579120  0.87331425  0.84504668  1
  N  N62  1  0.78084207  0.75507547  0.59284996  1
  N  N63  1  0.55719296  0.87198706  0.34954938  1
  N  N64  1  0.46490433  0.75103039  0.09635569  1
  N  N65  1  0.23080174  0.85515632  0.84396177  1
  N  N66  1  0.10880618  0.75991360  0.59878895  1
  N  N67  1  0.88757966  0.87198700  0.34954941  1
  N  N68  1  0.77877978  0.75920014  0.10271656  1
  N  N69  1  0.55765426  0.87331431  0.84504670  1
  N  N70  1  0.44803998  0.75991347  0.59878897  1
