# generated using pymatgen
data_Sc2Al34N35
_symmetry_space_group_name_H-M   'P 1'
_cell_length_a   9.44605211
_cell_length_b   9.44232301
_cell_length_c   10.00503312
_cell_angle_alpha   89.96277368
_cell_angle_beta   89.99999973
_cell_angle_gamma   59.98693559
_symmetry_Int_Tables_number   1
_chemical_formula_structural   Sc2Al34N35
_chemical_formula_sum   'Sc2 Al34 N35'
_cell_volume   772.71802343
_cell_formula_units_Z   1
loop_
 _symmetry_equiv_pos_site_id
 _symmetry_equiv_pos_as_xyz
  1  'x, y, z'
loop_
 _atom_site_type_symbol
 _atom_site_label
 _atom_site_symmetry_multiplicity
 _atom_site_fract_x
 _atom_site_fract_y
 _atom_site_fract_z
 _atom_site_occupancy
  Al  Al0  1  0.11038979  0.09598118  0.40569232  1
  Al  Al1  1  0.22227709  0.20823116  0.15089719  1
  Al  Al2  1  0.77329987  0.09595009  0.89825777  1
  Al  Al3  1  0.88175538  0.20887631  0.64534488  1
  Al  Al4  1  0.44607538  0.09454367  0.39776788  1
  Al  Al5  1  0.55526017  0.20624045  0.14745921  1
  Al  Al6  1  0.22612903  0.20887630  0.64534486  1
  Al  Al7  1  0.77614168  0.09454369  0.39776788  1
  Al  Al8  1  0.88625256  0.20823117  0.15089718  1
  Al  Al9  1  0.44751084  0.09595007  0.89825777  1
  Al  Al10  1  0.55562792  0.20550486  0.64881083  1
  Al  Al11  1  0.11623067  0.42674221  0.39849681  1
  Al  Al12  1  0.22186045  0.53676715  0.14735318  1
  Al  Al13  1  0.77309574  0.43048158  0.89810767  1
  Al  Al14  1  0.88877564  0.53920945  0.64903407  1
  Al  Al15  1  0.44469526  0.42737020  0.39828315  1
  Al  Al16  1  0.55813317  0.53676716  0.14735318  1
  Al  Al17  1  0.11318348  0.43048157  0.89810766  1
  Al  Al18  1  0.22271139  0.53837620  0.64863903  1
  Al  Al19  1  0.77378788  0.42674220  0.39849683  1
  Al  Al20  1  0.88900395  0.53875291  0.13845503  1
  Al  Al21  1  0.44446298  0.42783479  0.89691854  1
  Al  Al22  1  0.55567311  0.53837620  0.64863905  1
  Al  Al23  1  0.10985001  0.76054774  0.40284671  1
  Al  Al24  1  0.77730912  0.76214250  0.89756568  1
  Al  Al25  1  0.88792254  0.87318203  0.64843191  1
  Al  Al26  1  0.44636303  0.76054772  0.40284672  1
  Al  Al27  1  0.55855127  0.87138650  0.14720232  1
  Al  Al28  1  0.10957691  0.75538580  0.89484285  1
  Al  Al29  1  0.22526233  0.86623606  0.64674242  1
  Al  Al30  1  0.77480720  0.76714636  0.39940888  1
  Al  Al31  1  0.88682302  0.87138647  0.14720232  1
  Al  Al32  1  0.45179805  0.75538578  0.89484286  1
  Al  Al33  1  0.55565615  0.87318203  0.64843191  1
  Sc  Sc34  1  0.10892515  0.09891052  0.88465597  1
  Sc  Sc35  1  0.22354158  0.86967764  0.14606979  1
  N  N36  1  0.22146278  0.20645294  0.34298117  1
  N  N37  1  0.10176190  0.11323703  0.09423287  1
  N  N38  1  0.86458060  0.21793041  0.83264703  1
  N  N39  1  0.77641650  0.09365144  0.58712954  1
  N  N40  1  0.55519318  0.20637438  0.33836644  1
  N  N41  1  0.44414126  0.09443017  0.09077324  1
  N  N42  1  0.23424978  0.21793041  0.83264700  1
  N  N43  1  0.11026757  0.09622558  0.60021418  1
  N  N44  1  0.88884506  0.20645292  0.34298117  1
  N  N45  1  0.77818937  0.09443016  0.09077325  1
  N  N46  1  0.55535868  0.20604339  0.83966636  1
  N  N47  1  0.44669278  0.09365142  0.58712953  1
  N  N48  1  0.22157186  0.54020185  0.33896428  1
  N  N49  1  0.11109377  0.42749270  0.09169047  1
  N  N50  1  0.88919950  0.53836181  0.84129606  1
  N  N51  1  0.77753312  0.43098012  0.58633956  1
  N  N52  1  0.55498705  0.54020183  0.33896428  1
  N  N53  1  0.44407062  0.42861953  0.08941590  1
  N  N54  1  0.22326669  0.53706845  0.83800621  1
  N  N55  1  0.10824747  0.43098012  0.58633953  1
  N  N56  1  0.77817432  0.42749273  0.09169049  1
  N  N57  1  0.55642562  0.53706844  0.83800623  1
  N  N58  1  0.44449848  0.42776374  0.58886891  1
  N  N59  1  0.22199815  0.87276449  0.35721615  1
  N  N60  1  0.10068168  0.75085115  0.08368572  1
  N  N61  1  0.88665541  0.87374257  0.83870151  1
  N  N62  1  0.77845415  0.75985242  0.58830862  1
  N  N63  1  0.55617339  0.87112965  0.33900567  1
  N  N64  1  0.46522796  0.75085116  0.08368573  1
  N  N65  1  0.23290336  0.85095403  0.83848099  1
  N  N66  1  0.10920904  0.75972218  0.59184796  1
  N  N67  1  0.88945772  0.87112965  0.33900568  1
  N  N68  1  0.77808462  0.76059152  0.09052427  1
  N  N69  1  0.55636276  0.87374256  0.83870151  1
  N  N70  1  0.44782952  0.75972217  0.59184797  1
