# generated using pymatgen
data_Sc2Al34N35
_symmetry_space_group_name_H-M   'P 1'
_cell_length_a   9.44649025
_cell_length_b   9.44275891
_cell_length_c   10.00385003
_cell_angle_alpha   89.96372060
_cell_angle_beta   89.99999786
_cell_angle_gamma   59.98692829
_symmetry_Int_Tables_number   1
_chemical_formula_structural   Sc2Al34N35
_chemical_formula_sum   'Sc2 Al34 N35'
_cell_volume   772.69811066
_cell_formula_units_Z   1
loop_
 _symmetry_equiv_pos_site_id
 _symmetry_equiv_pos_as_xyz
  1  'x, y, z'
loop_
 _atom_site_type_symbol
 _atom_site_label
 _atom_site_symmetry_multiplicity
 _atom_site_fract_x
 _atom_site_fract_y
 _atom_site_fract_z
 _atom_site_occupancy
  Al  Al0  1  0.11036612  0.09602788  0.39762983  1
  Al  Al1  1  0.22224297  0.20829025  0.14282184  1
  Al  Al2  1  0.77326881  0.09600896  0.89019347  1
  Al  Al3  1  0.88171200  0.20894105  0.63727346  1
  Al  Al4  1  0.44604896  0.09459661  0.38969723  1
  Al  Al5  1  0.55523007  0.20630005  0.13939134  1
  Al  Al6  1  0.22610705  0.20894104  0.63727345  1
  Al  Al7  1  0.77611458  0.09459660  0.38969721  1
  Al  Al8  1  0.88622695  0.20829022  0.14282184  1
  Al  Al9  1  0.44748239  0.09600897  0.89019344  1
  Al  Al10  1  0.55560105  0.20555802  0.64074700  1
  Al  Al11  1  0.11621057  0.42679122  0.39041743  1
  Al  Al12  1  0.22183499  0.53682740  0.13929426  1
  Al  Al13  1  0.77306179  0.43054712  0.89005483  1
  Al  Al14  1  0.88874846  0.53926318  0.64097006  1
  Al  Al15  1  0.44466949  0.42742112  0.39022175  1
  Al  Al16  1  0.55809778  0.53682737  0.13929427  1
  Al  Al17  1  0.11315125  0.43054713  0.89005484  1
  Al  Al18  1  0.22268049  0.53843369  0.64056933  1
  Al  Al19  1  0.77375836  0.42679119  0.39041742  1
  Al  Al20  1  0.88897239  0.53881540  0.13043027  1
  Al  Al21  1  0.44443245  0.42789522  0.88885053  1
  Al  Al22  1  0.55564592  0.53843368  0.64056933  1
  Al  Al23  1  0.10982814  0.76060635  0.39476918  1
  Al  Al24  1  0.77728107  0.76219799  0.88950720  1
  Al  Al25  1  0.88789578  0.87323565  0.64036173  1
  Al  Al26  1  0.44632565  0.76060632  0.39476920  1
  Al  Al27  1  0.55852262  0.87144514  0.13914115  1
  Al  Al28  1  0.10954089  0.75544257  0.88678257  1
  Al  Al29  1  0.22523900  0.86628210  0.63869131  1
  Al  Al30  1  0.77477767  0.76720483  0.39133691  1
  Al  Al31  1  0.88679243  0.87144513  0.13914115  1
  Al  Al32  1  0.45177665  0.75544255  0.88678255  1
  Al  Al33  1  0.55562869  0.87323563  0.64036173  1
  Sc  Sc34  1  0.10888493  0.09899029  0.87653640  1
  Sc  Sc35  1  0.22350043  0.86975928  0.13795099  1
  N  N36  1  0.22143638  0.20649843  0.33492893  1
  N  N37  1  0.10171925  0.11332173  0.08614086  1
  N  N38  1  0.86452776  0.21800503  0.82459723  1
  N  N39  1  0.77638716  0.09370448  0.57907811  1
  N  N40  1  0.55516598  0.20642814  0.33031580  1
  N  N41  1  0.44411208  0.09448679  0.08272574  1
  N  N42  1  0.23422739  0.21800501  0.82459720  1
  N  N43  1  0.11024089  0.09627834  0.59218609  1
  N  N44  1  0.88882535  0.20649844  0.33492893  1
  N  N45  1  0.77816127  0.09448682  0.08272574  1
  N  N46  1  0.55532989  0.20610033  0.83162079  1
  N  N47  1  0.44666846  0.09370447  0.57907811  1
  N  N48  1  0.22155162  0.54025312  0.33091992  1
  N  N49  1  0.11105829  0.42755963  0.08365661  1
  N  N50  1  0.88917116  0.53841781  0.83325013  1
  N  N51  1  0.77750619  0.43104014  0.57827969  1
  N  N52  1  0.55495539  0.54025313  0.33091989  1
  N  N53  1  0.44404116  0.42867785  0.08136533  1
  N  N54  1  0.22323358  0.53712849  0.82995749  1
  N  N55  1  0.10821377  0.43104012  0.57827968  1
  N  N56  1  0.77814220  0.42755969  0.08365662  1
  N  N57  1  0.55639806  0.53712850  0.82995752  1
  N  N58  1  0.44447196  0.42781618  0.58082554  1
  N  N59  1  0.22196816  0.87282389  0.34913227  1
  N  N60  1  0.10064753  0.75090509  0.07564475  1
  N  N61  1  0.88662353  0.87379920  0.83065237  1
  N  N62  1  0.77842995  0.75990019  0.58025537  1
  N  N63  1  0.55614543  0.87118411  0.33095936  1
  N  N64  1  0.46520759  0.75090509  0.07564475  1
  N  N65  1  0.23287483  0.85101051  0.83046027  1
  N  N66  1  0.10918484  0.75977978  0.58379553  1
  N  N67  1  0.88943057  0.87118410  0.33095938  1
  N  N68  1  0.77805689  0.76064625  0.08248418  1
  N  N69  1  0.55633736  0.87379920  0.83065239  1
  N  N70  1  0.44779551  0.75977977  0.58379553  1
