# generated using pymatgen
data_Sc2Al34N35
_symmetry_space_group_name_H-M   'P 1'
_cell_length_a   9.60116501
_cell_length_b   9.59731903
_cell_length_c   9.55606970
_cell_angle_alpha   89.98570685
_cell_angle_beta   89.99996697
_cell_angle_gamma   59.98676218
_symmetry_Int_Tables_number   1
_chemical_formula_structural   Sc2Al34N35
_chemical_formula_sum   'Sc2 Al34 N35'
_cell_volume   762.47540684
_cell_formula_units_Z   1
loop_
 _symmetry_equiv_pos_site_id
 _symmetry_equiv_pos_as_xyz
  1  'x, y, z'
loop_
 _atom_site_type_symbol
 _atom_site_label
 _atom_site_symmetry_multiplicity
 _atom_site_fract_x
 _atom_site_fract_y
 _atom_site_fract_z
 _atom_site_occupancy
  Al  Al0  1  0.11132788  0.09410380  0.38579333  1
  Al  Al1  1  0.22243148  0.20702344  0.13343411  1
  Al  Al2  1  0.77367433  0.09598413  0.88000681  1
  Al  Al3  1  0.87954575  0.21086827  0.62366864  1
  Al  Al4  1  0.44702060  0.09447070  0.37882001  1
  Al  Al5  1  0.55497753  0.20680457  0.12762095  1
  Al  Al6  1  0.22634556  0.21086829  0.62366865  1
  Al  Al7  1  0.77526826  0.09447070  0.37882002  1
  Al  Al8  1  0.88730469  0.20702341  0.13343411  1
  Al  Al9  1  0.44710104  0.09598415  0.88000683  1
  Al  Al10  1  0.55573255  0.20529446  0.63176146  1
  Al  Al11  1  0.11360727  0.42813260  0.37536722  1
  Al  Al12  1  0.22280329  0.53712793  0.13100454  1
  Al  Al13  1  0.77220233  0.43014609  0.88300247  1
  Al  Al14  1  0.88880000  0.53915960  0.63405683  1
  Al  Al15  1  0.44511076  0.42653804  0.38082478  1
  Al  Al16  1  0.55682840  0.53712791  0.13100456  1
  Al  Al17  1  0.11441113  0.43014609  0.88300247  1
  Al  Al18  1  0.22181419  0.53802178  0.62830440  1
  Al  Al19  1  0.77501973  0.42813260  0.37536717  1
  Al  Al20  1  0.88872963  0.53930036  0.11950046  1
  Al  Al21  1  0.44410804  0.42854349  0.87759672  1
  Al  Al22  1  0.55692366  0.53802176  0.62830436  1
  Al  Al23  1  0.11055405  0.76111446  0.38288554  1
  Al  Al24  1  0.77660807  0.76354346  0.88124569  1
  Al  Al25  1  0.88722636  0.87283612  0.62823818  1
  Al  Al26  1  0.44509113  0.76111445  0.38288554  1
  Al  Al27  1  0.55796807  0.87184935  0.13052867  1
  Al  Al28  1  0.10800780  0.75458269  0.87584622  1
  Al  Al29  1  0.22577687  0.86520591  0.62941597  1
  Al  Al30  1  0.77627021  0.76421917  0.37776019  1
  Al  Al31  1  0.88694223  0.87184934  0.13052867  1
  Al  Al32  1  0.45416917  0.75458263  0.87584619  1
  Al  Al33  1  0.55669714  0.87283616  0.62823818  1
  Sc  Sc34  1  0.10724828  0.10226289  0.85785674  1
  Sc  Sc35  1  0.22319709  0.87036552  0.11573660  1
  N  N36  1  0.22215846  0.20537044  0.33374259  1
  N  N37  1  0.10059810  0.11556341  0.07992117  1
  N  N38  1  0.86240080  0.21982307  0.82076208  1
  N  N39  1  0.77543248  0.09375376  0.57600912  1
  N  N40  1  0.55501688  0.20672586  0.32627301  1
  N  N41  1  0.44386711  0.09414437  0.08042220  1
  N  N42  1  0.23453571  0.21982303  0.82076209  1
  N  N43  1  0.11060534  0.09554888  0.59115593  1
  N  N44  1  0.88923075  0.20537040  0.33374258  1
  N  N45  1  0.77874810  0.09414435  0.08042218  1
  N  N46  1  0.55538984  0.20597991  0.83050794  1
  N  N47  1  0.44757329  0.09375379  0.57600911  1
  N  N48  1  0.22278774  0.53987127  0.32973760  1
  N  N49  1  0.11143402  0.42757002  0.08517677  1
  N  N50  1  0.88927506  0.53820952  0.83532362  1
  N  N51  1  0.77859273  0.43284733  0.57224899  1
  N  N52  1  0.55410065  0.53987126  0.32973763  1
  N  N53  1  0.44365327  0.42945306  0.07794649  1
  N  N54  1  0.22271912  0.53678316  0.82621402  1
  N  N55  1  0.10531956  0.43284733  0.57224904  1
  N  N56  1  0.77775556  0.42756999  0.08517676  1
  N  N57  1  0.55725738  0.53678313  0.82621397  1
  N  N58  1  0.44483579  0.42708799  0.57911018  1
  N  N59  1  0.22211476  0.87253020  0.34034858  1
  N  N60  1  0.09936762  0.74959167  0.07370933  1
  N  N61  1  0.88565830  0.87391656  0.82697891  1
  N  N62  1  0.77970597  0.75734767  0.57558045  1
  N  N63  1  0.55601699  0.87138313  0.32949238  1
  N  N64  1  0.46780041  0.74959162  0.07370931  1
  N  N65  1  0.23260297  0.85155380  0.83392764  1
  N  N66  1  0.10952608  0.76029508  0.58115249  1
  N  N67  1  0.88935959  0.87138311  0.32949239  1
  N  N68  1  0.77775376  0.76125211  0.08244819  1
  N  N69  1  0.55718482  0.87391657  0.82697892  1
  N  N70  1  0.44693849  0.76029507  0.58115249  1
