# generated using pymatgen
data_Sc2Al34N35
_symmetry_space_group_name_H-M   'P 1'
_cell_length_a   9.44629656
_cell_length_b   9.44271324
_cell_length_c   10.00645463
_cell_angle_alpha   89.98771612
_cell_angle_beta   90.00043397
_cell_angle_gamma   59.98802710
_symmetry_Int_Tables_number   1
_chemical_formula_structural   Sc2Al34N35
_chemical_formula_sum   'Sc2 Al34 N35'
_cell_volume   772.88844905
_cell_formula_units_Z   1
loop_
 _symmetry_equiv_pos_site_id
 _symmetry_equiv_pos_as_xyz
  1  'x, y, z'
loop_
 _atom_site_type_symbol
 _atom_site_label
 _atom_site_symmetry_multiplicity
 _atom_site_fract_x
 _atom_site_fract_y
 _atom_site_fract_z
 _atom_site_occupancy
  Al  Al0  1  0.10827600  0.10019991  0.29702194  1
  Al  Al1  1  0.22362345  0.21128588  0.04847031  1
  Al  Al2  1  0.77325362  0.09645395  0.79617306  1
  Al  Al3  1  0.88665027  0.20598682  0.54210860  1
  Al  Al4  1  0.44617225  0.09469729  0.29535552  1
  Al  Al5  1  0.55538463  0.20594086  0.04534442  1
  Al  Al6  1  0.22411131  0.20601340  0.54209127  1
  Al  Al7  1  0.77589290  0.09468539  0.29535511  1
  Al  Al8  1  0.88180791  0.21129297  0.04849216  1
  Al  Al9  1  0.44709141  0.09646821  0.79614758  1
  Al  Al10  1  0.55519523  0.20638189  0.54614789  1
  Al  Al11  1  0.11746991  0.42637040  0.29448526  1
  Al  Al12  1  0.22062313  0.53725580  0.04471934  1
  Al  Al13  1  0.77351825  0.43103749  0.79631207  1
  Al  Al14  1  0.88882396  0.53910107  0.55354429  1
  Al  Al15  1  0.44459955  0.42754683  0.29528498  1
  Al  Al16  1  0.55886508  0.53723545  0.04474336  1
  Al  Al17  1  0.11219508  0.43106576  0.79629206  1
  Al  Al18  1  0.22346461  0.53846266  0.54684762  1
  Al  Al19  1  0.77288959  0.42638737  0.29451398  1
  Al  Al20  1  0.88866831  0.53938103  0.04584078  1
  Al  Al21  1  0.44432292  0.42815057  0.79693018  1
  Al  Al22  1  0.55484071  0.53845809  0.54685614  1
  Al  Al23  1  0.10752278  0.75812593  0.29807775  1
  Al  Al24  1  0.77758164  0.76164582  0.79624232  1
  Al  Al25  1  0.88813378  0.87342972  0.54697378  1
  Al  Al26  1  0.45109015  0.75813527  0.29806582  1
  Al  Al27  1  0.55872811  0.87174468  0.04491715  1
  Al  Al28  1  0.11136101  0.75797978  0.79249492  1
  Al  Al29  1  0.22314372  0.87050099  0.53932590  1
  Al  Al30  1  0.77403510  0.76865940  0.29396358  1
  Al  Al31  1  0.88624368  0.87174526  0.04492523  1
  Al  Al32  1  0.44747820  0.75796446  0.79251401  1
  Al  Al33  1  0.55520002  0.87342258  0.54698127  1
  Sc  Sc34  1  0.10968713  0.09743818  0.79700132  1
  Sc  Sc35  1  0.22421735  0.86827384  0.05830784  1
  N  N36  1  0.22322182  0.20783324  0.35239638  1
  N  N37  1  0.10017413  0.11637621  0.10562066  1
  N  N38  1  0.86790437  0.21676158  0.85996082  1
  N  N39  1  0.77739563  0.09520757  0.60432814  1
  N  N40  1  0.55516415  0.20643449  0.35476451  1
  N  N41  1  0.44608494  0.09349248  0.10543765  1
  N  N42  1  0.23213094  0.21678236  0.85994225  1
  N  N43  1  0.11107861  0.09461922  0.58609940  1
  N  N44  1  0.88571006  0.20781648  0.35241263  1
  N  N45  1  0.77712706  0.09349840  0.10543886  1
  N  N46  1  0.55514245  0.20652412  0.85491894  1
  N  N47  1  0.44415112  0.09522425  0.60430666  1
  N  N48  1  0.22296322  0.53763171  0.35685372  1
  N  N49  1  0.10850344  0.43075599  0.10698385  1
  N  N50  1  0.88898075  0.53880518  0.85355745  1
  N  N51  1  0.77828508  0.42779074  0.60276338  1
  N  N52  1  0.55613317  0.53765233  0.35685857  1
  N  N53  1  0.44377472  0.42916782  0.10388854  1
  N  N54  1  0.22178206  0.53974615  0.85365080  1
  N  N55  1  0.11067832  0.42781140  0.60275740  1
  N  N56  1  0.77747240  0.43075630  0.10702550  1
  N  N57  1  0.55525747  0.53973349  0.85367976  1
  N  N58  1  0.44446587  0.42782135  0.60538289  1
  N  N59  1  0.22283000  0.87108464  0.34384225  1
  N  N60  1  0.09861928  0.74978074  0.11104560  1
  N  N61  1  0.88867101  0.87272475  0.85296690  1
  N  N62  1  0.77807309  0.76062764  0.60358006  1
  N  N63  1  0.55700215  0.87285812  0.35679990  1
  N  N64  1  0.46830530  0.74978260  0.11103860  1
  N  N65  1  0.23128834  0.85424348  0.84918826  1
  N  N66  1  0.11077927  0.76116974  0.60053511  1
  N  N67  1  0.88687883  0.87284885  0.35679826  1
  N  N68  1  0.77815789  0.76039261  0.10516822  1
  N  N69  1  0.55541106  0.87274104  0.85295926  1
  N  N70  1  0.44483627  0.76115526  0.60055809  1
