# generated using pymatgen
data_Sc2Al34N35
_symmetry_space_group_name_H-M   'P 1'
_cell_length_a   9.92108885
_cell_length_b   9.91792499
_cell_length_c   8.55743728
_cell_angle_alpha   90.03054582
_cell_angle_beta   89.99999851
_cell_angle_gamma   59.98947664
_symmetry_Int_Tables_number   1
_chemical_formula_structural   Sc2Al34N35
_chemical_formula_sum   'Sc2 Al34 N35'
_cell_volume   729.13571187
_cell_formula_units_Z   1
loop_
 _symmetry_equiv_pos_site_id
 _symmetry_equiv_pos_as_xyz
  1  'x, y, z'
loop_
 _atom_site_type_symbol
 _atom_site_label
 _atom_site_symmetry_multiplicity
 _atom_site_fract_x
 _atom_site_fract_y
 _atom_site_fract_z
 _atom_site_occupancy
  Al  Al0  1  0.10934384  0.09807203  0.35383213  1
  Al  Al1  1  0.22274895  0.21176264  0.10418292  1
  Al  Al2  1  0.77319290  0.09589881  0.84722247  1
  Al  Al3  1  0.88528046  0.20597864  0.59245467  1
  Al  Al4  1  0.44679574  0.09416078  0.34692359  1
  Al  Al5  1  0.55560356  0.20555251  0.09699681  1
  Al  Al6  1  0.22550050  0.20597871  0.59245470  1
  Al  Al7  1  0.77580306  0.09416069  0.34692365  1
  Al  Al8  1  0.88224819  0.21176243  0.10418298  1
  Al  Al9  1  0.44766777  0.09589892  0.84722251  1
  Al  Al10  1  0.55493611  0.20688732  0.59625428  1
  Al  Al11  1  0.11045123  0.42972792  0.35247837  1
  Al  Al12  1  0.22007413  0.53625598  0.09884500  1
  Al  Al13  1  0.77244028  0.43040459  0.84049255  1
  Al  Al14  1  0.88847602  0.53980733  0.60955883  1
  Al  Al15  1  0.44474826  0.42726295  0.34470976  1
  Al  Al16  1  0.56042945  0.53625588  0.09884501  1
  Al  Al17  1  0.11391447  0.43040470  0.84049249  1
  Al  Al18  1  0.22463202  0.53871614  0.59508659  1
  Al  Al19  1  0.77658043  0.42972783  0.35247832  1
  Al  Al20  1  0.88889153  0.53897635  0.08348260  1
  Al  Al21  1  0.44459911  0.42756121  0.84893853  1
  Al  Al22  1  0.55341143  0.53871609  0.59508657  1
  Al  Al23  1  0.10817353  0.75860846  0.35234383  1
  Al  Al24  1  0.77639110  0.76397749  0.84331023  1
  Al  Al25  1  0.88793738  0.87378650  0.59589054  1
  Al  Al26  1  0.44997781  0.75860841  0.35234373  1
  Al  Al27  1  0.56001952  0.87102866  0.09918538  1
  Al  Al28  1  0.10940638  0.75688701  0.84480056  1
  Al  Al29  1  0.22405247  0.86865493  0.59978930  1
  Al  Al30  1  0.77847850  0.75980257  0.35137488  1
  Al  Al31  1  0.88571166  0.87102855  0.09918544  1
  Al  Al32  1  0.45046636  0.75688698  0.84480066  1
  Al  Al33  1  0.55503577  0.87378653  0.59589059  1
  Sc  Sc34  1  0.10831075  0.10013806  0.85172169  1
  Sc  Sc35  1  0.22490511  0.86694960  0.10671008  1
  N  N36  1  0.22425713  0.20714785  0.35979392  1
  N  N37  1  0.10229377  0.11217215  0.11402382  1
  N  N38  1  0.86755811  0.21783448  0.86191216  1
  N  N39  1  0.77647311  0.09469820  0.61006951  1
  N  N40  1  0.55491001  0.20693960  0.36077970  1
  N  N41  1  0.44589318  0.09328182  0.11242035  1
  N  N42  1  0.23136697  0.21783458  0.86191215  1
  N  N43  1  0.10988736  0.09698486  0.59785796  1
  N  N44  1  0.88535478  0.20714773  0.35979389  1
  N  N45  1  0.77758456  0.09328171  0.11242041  1
  N  N46  1  0.55530603  0.20614759  0.86219251  1
  N  N47  1  0.44558816  0.09469823  0.61006957  1
  N  N48  1  0.22431205  0.53700102  0.36257665  1
  N  N49  1  0.10393215  0.43245503  0.12003478  1
  N  N50  1  0.88919535  0.53836878  0.85386165  1
  N  N51  1  0.77842951  0.43028740  0.60305361  1
  N  N52  1  0.55544657  0.53700096  0.36257659  1
  N  N53  1  0.44387276  0.42901386  0.10936036  1
  N  N54  1  0.22164925  0.53792148  0.86016316  1
  N  N55  1  0.10804242  0.43028751  0.60305359  1
  N  N56  1  0.78037232  0.43245486  0.12003473  1
  N  N57  1  0.55718882  0.53792142  0.86016320  1
  N  N58  1  0.44453650  0.42768646  0.61349014  1
  N  N59  1  0.22330271  0.87015451  0.36453304  1
  N  N60  1  0.10065606  0.75133569  0.11364080  1
  N  N61  1  0.88672166  0.87275057  0.85935049  1
  N  N62  1  0.77897659  0.75880641  0.60635377  1
  N  N63  1  0.55752307  0.87269356  0.36265654  1
  N  N64  1  0.46476803  0.75133563  0.11364074  1
  N  N65  1  0.23074758  0.85526466  0.84922560  1
  N  N66  1  0.10903981  0.75982242  0.60770121  1
  N  N67  1  0.88654318  0.87269344  0.36265653  1
  N  N68  1  0.78059455  0.75557053  0.11555668  1
  N  N69  1  0.55728752  0.87275065  0.85935052  1
  N  N70  1  0.44789750  0.75982232  0.60770125  1
