# generated using pymatgen
data_Sc2Al34N35
_symmetry_space_group_name_H-M   'P 1'
_cell_length_a   9.44617713
_cell_length_b   9.44257684
_cell_length_c   10.00587598
_cell_angle_alpha   89.98798532
_cell_angle_beta   90.00000605
_cell_angle_gamma   59.98739137
_symmetry_Int_Tables_number   1
_chemical_formula_structural   Sc2Al34N35
_chemical_formula_sum   'Sc2 Al34 N35'
_cell_volume   772.81786848
_cell_formula_units_Z   1
loop_
 _symmetry_equiv_pos_site_id
 _symmetry_equiv_pos_as_xyz
  1  'x, y, z'
loop_
 _atom_site_type_symbol
 _atom_site_label
 _atom_site_symmetry_multiplicity
 _atom_site_fract_x
 _atom_site_fract_y
 _atom_site_fract_z
 _atom_site_occupancy
  Al  Al0  1  0.10834459  0.10006926  0.31149485  1
  Al  Al1  1  0.22370127  0.21116888  0.06296968  1
  Al  Al2  1  0.77326734  0.09638209  0.81065595  1
  Al  Al3  1  0.88669152  0.20591705  0.55660611  1
  Al  Al4  1  0.44623051  0.09458530  0.30985619  1
  Al  Al5  1  0.55547277  0.20581289  0.05984235  1
  Al  Al6  1  0.22414989  0.20591706  0.55660611  1
  Al  Al7  1  0.77594262  0.09458531  0.30985619  1
  Al  Al8  1  0.88188826  0.21116889  0.06296968  1
  Al  Al9  1  0.44710903  0.09638211  0.81065596  1
  Al  Al10  1  0.55523449  0.20628947  0.56065166  1
  Al  Al11  1  0.11752531  0.42625294  0.30900501  1
  Al  Al12  1  0.22070082  0.53710875  0.05922300  1
  Al  Al13  1  0.77355070  0.43098169  0.81077924  1
  Al  Al14  1  0.88885817  0.53904212  0.56803169  1
  Al  Al15  1  0.44466110  0.42743624  0.30977733  1
  Al  Al16  1  0.55894888  0.53710875  0.05922301  1
  Al  Al17  1  0.11222608  0.43098168  0.81077925  1
  Al  Al18  1  0.22351339  0.53836772  0.56134876  1
  Al  Al19  1  0.77298022  0.42625294  0.30900503  1
  Al  Al20  1  0.88874435  0.53926975  0.06033769  1
  Al  Al21  1  0.44434725  0.42806395  0.81143377  1
  Al  Al22  1  0.55487736  0.53836771  0.56134877  1
  Al  Al23  1  0.10758408  0.75800341  0.31258075  1
  Al  Al24  1  0.77758192  0.76159463  0.81074573  1
  Al  Al25  1  0.88818378  0.87333763  0.56148202  1
  Al  Al26  1  0.45117098  0.75800341  0.31258076  1
  Al  Al27  1  0.55880899  0.87162373  0.05942496  1
  Al  Al28  1  0.11138593  0.75787365  0.80700935  1
  Al  Al29  1  0.22317230  0.87041387  0.55383664  1
  Al  Al30  1  0.77410479  0.76854890  0.30848037  1
  Al  Al31  1  0.88632575  0.87162374  0.05942496  1
  Al  Al32  1  0.44749890  0.75787363  0.80700936  1
  Al  Al33  1  0.55523706  0.87333763  0.56148204  1
  Sc  Sc34  1  0.10971445  0.09732955  0.81153969  1
  Sc  Sc35  1  0.22432744  0.86810362  0.07281997  1
  N  N36  1  0.22327707  0.20769898  0.36689298  1
  N  N37  1  0.10027072  0.11621698  0.12007306  1
  N  N38  1  0.86790278  0.21669677  0.87443256  1
  N  N39  1  0.77743150  0.09513605  0.61881282  1
  N  N40  1  0.55521591  0.20632662  0.36926202  1
  N  N41  1  0.44617395  0.09337221  0.11993519  1
  N  N42  1  0.23215891  0.21669677  0.87443256  1
  N  N43  1  0.11111089  0.09453670  0.60062788  1
  N  N44  1  0.88578242  0.20769898  0.36689298  1
  N  N45  1  0.77721226  0.09337222  0.11993520  1
  N  N46  1  0.55516329  0.20643191  0.86941176  1
  N  N47  1  0.44419090  0.09513606  0.61881283  1
  N  N48  1  0.22303476  0.53751511  0.37135848  1
  N  N49  1  0.10857500  0.43062359  0.12149867  1
  N  N50  1  0.88900109  0.53875631  0.86804733  1
  N  N51  1  0.77831524  0.42773215  0.61723888  1
  N  N52  1  0.55620860  0.53751510  0.37135847  1
  N  N53  1  0.44386164  0.42903516  0.11837730  1
  N  N54  1  0.22181971  0.53964109  0.86815661  1
  N  N55  1  0.11071108  0.42773216  0.61723889  1
  N  N56  1  0.77755985  0.43062359  0.12149869  1
  N  N57  1  0.55529768  0.53964108  0.86815662  1
  N  N58  1  0.44451187  0.42773471  0.61988578  1
  N  N59  1  0.22290208  0.87095432  0.35833726  1
  N  N60  1  0.09870087  0.74963657  0.12554058  1
  N  N61  1  0.88868381  0.87265720  0.86746138  1
  N  N62  1  0.77809126  0.76057596  0.61808505  1
  N  N63  1  0.55706585  0.87275160  0.37130382  1
  N  N64  1  0.46842107  0.74963656  0.12554060  1
  N  N65  1  0.23132197  0.85411454  0.86369660  1
  N  N66  1  0.11081964  0.76106805  0.61504492  1
  N  N67  1  0.88694102  0.87275161  0.37130382  1
  N  N68  1  0.77823903  0.76028042  0.11967452  1
  N  N69  1  0.55541748  0.87265721  0.86746138  1
  N  N70  1  0.44487078  0.76106804  0.61504492  1
