# generated using pymatgen
data_Sc2Al34N35
_symmetry_space_group_name_H-M   'P 1'
_cell_length_a   9.44618967
_cell_length_b   9.44257681
_cell_length_c   10.00587702
_cell_angle_alpha   89.98791178
_cell_angle_beta   90.00000113
_cell_angle_gamma   59.98734506
_symmetry_Int_Tables_number   1
_chemical_formula_structural   Sc2Al34N35
_chemical_formula_sum   'Sc2 Al34 N35'
_cell_volume   772.81861104
_cell_formula_units_Z   1
loop_
 _symmetry_equiv_pos_site_id
 _symmetry_equiv_pos_as_xyz
  1  'x, y, z'
loop_
 _atom_site_type_symbol
 _atom_site_label
 _atom_site_symmetry_multiplicity
 _atom_site_fract_x
 _atom_site_fract_y
 _atom_site_fract_z
 _atom_site_occupancy
  Al  Al0  1  0.10836104  0.10003665  0.31546450  1
  Al  Al1  1  0.22371568  0.21113915  0.06693906  1
  Al  Al2  1  0.77328213  0.09635362  0.81463016  1
  Al  Al3  1  0.88670550  0.20588871  0.56056924  1
  Al  Al4  1  0.44624614  0.09455599  0.31382978  1
  Al  Al5  1  0.55548741  0.20578395  0.06381843  1
  Al  Al6  1  0.22416459  0.20588872  0.56056925  1
  Al  Al7  1  0.77595662  0.09455600  0.31382976  1
  Al  Al8  1  0.88190392  0.21113915  0.06693906  1
  Al  Al9  1  0.44712303  0.09635362  0.81463018  1
  Al  Al10  1  0.55524888  0.20626099  0.56462871  1
  Al  Al11  1  0.11753974  0.42622527  0.31297647  1
  Al  Al12  1  0.22071475  0.53708082  0.06319394  1
  Al  Al13  1  0.77356545  0.43095323  0.81475262  1
  Al  Al14  1  0.88887248  0.53901378  0.57200266  1
  Al  Al15  1  0.44467533  0.42740806  0.31375159  1
  Al  Al16  1  0.55896317  0.53708083  0.06319396  1
  Al  Al17  1  0.11224008  0.43095323  0.81475261  1
  Al  Al18  1  0.22352805  0.53833785  0.56532140  1
  Al  Al19  1  0.77299376  0.42622525  0.31297647  1
  Al  Al20  1  0.88875903  0.53924073  0.06431188  1
  Al  Al21  1  0.44436160  0.42803556  0.81540917  1
  Al  Al22  1  0.55489286  0.53833785  0.56532141  1
  Al  Al23  1  0.10759957  0.75797588  0.31654828  1
  Al  Al24  1  0.77759660  0.76156553  0.81472085  1
  Al  Al25  1  0.88819688  0.87330914  0.56545421  1
  Al  Al26  1  0.45118331  0.75797589  0.31654832  1
  Al  Al27  1  0.55882263  0.87159549  0.06339559  1
  Al  Al28  1  0.11139929  0.75784538  0.81097059  1
  Al  Al29  1  0.22318690  0.87038497  0.55780676  1
  Al  Al30  1  0.77411858  0.76852164  0.31245042  1
  Al  Al31  1  0.88634066  0.87159549  0.06339559  1
  Al  Al32  1  0.44751414  0.75784533  0.81097058  1
  Al  Al33  1  0.55525275  0.87330911  0.56545425  1
  Sc  Sc34  1  0.10972672  0.09730531  0.81550174  1
  Sc  Sc35  1  0.22434222  0.86807445  0.07677406  1
  N  N36  1  0.22329170  0.20767027  0.37085811  1
  N  N37  1  0.10028665  0.11618540  0.12404055  1
  N  N38  1  0.86791781  0.21666805  0.87840227  1
  N  N39  1  0.77744663  0.09510850  0.62278463  1
  N  N40  1  0.55523007  0.20629859  0.37323610  1
  N  N41  1  0.44618824  0.09334387  0.12390648  1
  N  N42  1  0.23217288  0.21666807  0.87840231  1
  N  N43  1  0.11112438  0.09451001  0.60459085  1
  N  N44  1  0.88579679  0.20767029  0.37085808  1
  N  N45  1  0.77722663  0.09334388  0.12390649  1
  N  N46  1  0.55517756  0.20640374  0.87338537  1
  N  N47  1  0.44420363  0.09510854  0.62278462  1
  N  N48  1  0.22304948  0.53748627  0.37532952  1
  N  N49  1  0.10859037  0.43059467  0.12546880  1
  N  N50  1  0.88901622  0.53872631  0.87202007  1
  N  N51  1  0.77833092  0.42770200  0.62120932  1
  N  N52  1  0.55622301  0.53748630  0.37532945  1
  N  N53  1  0.44387579  0.42900718  0.12234866  1
  N  N54  1  0.22183376  0.53961347  0.87212603  1
  N  N55  1  0.11072586  0.42770202  0.62120934  1
  N  N56  1  0.77757370  0.43059467  0.12546885  1
  N  N57  1  0.55531154  0.53961346  0.87212599  1
  N  N58  1  0.44452617  0.42770639  0.62385990  1
  N  N59  1  0.22291707  0.87092468  0.36230770  1
  N  N60  1  0.09871737  0.74960886  0.12950735  1
  N  N61  1  0.88869953  0.87262857  0.87143066  1
  N  N62  1  0.77810602  0.76054676  0.62205796  1
  N  N63  1  0.55708052  0.87272241  0.37527430  1
  N  N64  1  0.46843259  0.74960886  0.12950732  1
  N  N65  1  0.23133521  0.85408833  0.86765182  1
  N  N66  1  0.11083363  0.76103853  0.61900990  1
  N  N67  1  0.88695584  0.87272241  0.37527434  1
  N  N68  1  0.77825322  0.76025230  0.12364367  1
  N  N69  1  0.55543071  0.87262856  0.87143067  1
  N  N70  1  0.44488661  0.76103852  0.61900993  1
