# generated using pymatgen
data_Sc2Al34N35
_symmetry_space_group_name_H-M   'P 1'
_cell_length_a   9.65255194
_cell_length_b   9.64887160
_cell_length_c   9.39884500
_cell_angle_alpha   89.98948987
_cell_angle_beta   89.99996890
_cell_angle_gamma   59.98739896
_symmetry_Int_Tables_number   1
_chemical_formula_structural   Sc2Al34N35
_chemical_formula_sum   'Sc2 Al34 N35'
_cell_volume   757.99898601
_cell_formula_units_Z   1
loop_
 _symmetry_equiv_pos_site_id
 _symmetry_equiv_pos_as_xyz
  1  'x, y, z'
loop_
 _atom_site_type_symbol
 _atom_site_label
 _atom_site_symmetry_multiplicity
 _atom_site_fract_x
 _atom_site_fract_y
 _atom_site_fract_z
 _atom_site_occupancy
  Al  Al0  1  0.11128204  0.09419552  0.38287305  1
  Al  Al1  1  0.22279080  0.20677125  0.13256508  1
  Al  Al2  1  0.77392659  0.09589633  0.87825511  1
  Al  Al3  1  0.87962806  0.21109633  0.62074876  1
  Al  Al4  1  0.44734594  0.09447145  0.37719758  1
  Al  Al5  1  0.55491826  0.20692311  0.12545313  1
  Al  Al6  1  0.22603519  0.21109636  0.62074877  1
  Al  Al7  1  0.77494217  0.09447143  0.37719759  1
  Al  Al8  1  0.88719755  0.20677123  0.13256509  1
  Al  Al9  1  0.44693658  0.09589636  0.87825513  1
  Al  Al10  1  0.55575590  0.20524779  0.63052283  1
  Al  Al11  1  0.11227298  0.42894430  0.37235487  1
  Al  Al12  1  0.22306099  0.53730066  0.12991827  1
  Al  Al13  1  0.77193443  0.42975927  0.88206715  1
  Al  Al14  1  0.88879807  0.53916347  0.63383722  1
  Al  Al15  1  0.44521140  0.42633676  0.37945087  1
  Al  Al16  1  0.55639799  0.53730062  0.12991830  1
  Al  Al17  1  0.11506582  0.42975929  0.88206715  1
  Al  Al18  1  0.22160915  0.53782121  0.62605343  1
  Al  Al19  1  0.77554234  0.42894428  0.37235483  1
  Al  Al20  1  0.88866718  0.53942525  0.11530207  1
  Al  Al21  1  0.44403916  0.42868124  0.87562530  1
  Al  Al22  1  0.55732929  0.53782118  0.62605338  1
  Al  Al23  1  0.11040903  0.76096286  0.38136269  1
  Al  Al24  1  0.77623165  0.76429632  0.88009839  1
  Al  Al25  1  0.88693863  0.87274311  0.62604017  1
  Al  Al26  1  0.44538776  0.76096285  0.38136269  1
  Al  Al27  1  0.55766545  0.87199599  0.12936758  1
  Al  Al28  1  0.10794485  0.75464489  0.87352257  1
  Al  Al29  1  0.22556614  0.86562739  0.62632017  1
  Al  Al30  1  0.77700016  0.76275930  0.37492871  1
  Al  Al31  1  0.88709822  0.87199598  0.12936758  1
  Al  Al32  1  0.45416993  0.75464483  0.87352255  1
  Al  Al33  1  0.55707788  0.87274315  0.62604017  1
  Sc  Sc34  1  0.10718589  0.10238768  0.85582689  1
  Sc  Sc35  1  0.22345507  0.86984958  0.11300813  1
  N  N36  1  0.22249860  0.20547588  0.33628768  1
  N  N37  1  0.10077441  0.11521076  0.08305763  1
  N  N38  1  0.86282058  0.21975274  0.82228232  1
  N  N39  1  0.77520706  0.09381330  0.57783602  1
  N  N40  1  0.55496195  0.20683573  0.32755949  1
  N  N41  1  0.44380188  0.09405939  0.08224941  1
  N  N42  1  0.23418624  0.21975273  0.82228235  1
  N  N43  1  0.11054755  0.09566448  0.59192192  1
  N  N44  1  0.88878517  0.20547582  0.33628768  1
  N  N45  1  0.77889831  0.09405937  0.08224940  1
  N  N46  1  0.55540812  0.20594333  0.83283760  1
  N  N47  1  0.44773917  0.09381333  0.57783602  1
  N  N48  1  0.22301802  0.53977338  0.33201136  1
  N  N49  1  0.11158048  0.42751844  0.08814113  1
  N  N50  1  0.88926500  0.53822961  0.83923123  1
  N  N51  1  0.77899073  0.43334501  0.57322984  1
  N  N52  1  0.55396826  0.53977336  0.33201138  1
  N  N53  1  0.44354656  0.42966647  0.07948520  1
  N  N54  1  0.22266636  0.53661544  0.82767928  1
  N  N55  1  0.10442387  0.43334502  0.57322989  1
  N  N56  1  0.77766068  0.42751840  0.08814112  1
  N  N57  1  0.55747786  0.53661541  0.82767923  1
  N  N58  1  0.44493157  0.42689642  0.58118131  1
  N  N59  1  0.22232466  0.87211041  0.34250477  1
  N  N60  1  0.09937227  0.74957202  0.07559018  1
  N  N61  1  0.88544829  0.87393087  0.82846927  1
  N  N62  1  0.78009697  0.75656567  0.57680194  1
  N  N63  1  0.55603692  0.87145893  0.33168970  1
  N  N64  1  0.46781540  0.74957197  0.07559016  1
  N  N65  1  0.23233078  0.85209816  0.83599967  1
  N  N66  1  0.10938759  0.76026841  0.58326084  1
  N  N67  1  0.88926387  0.87145890  0.33168971  1
  N  N68  1  0.77762419  0.76151126  0.08502640  1
  N  N69  1  0.55738051  0.87393088  0.82846927  1
  N  N70  1  0.44710366  0.76026839  0.58326084  1
