# generated using pymatgen
data_GdAl17N18
_symmetry_space_group_name_H-M   'P 1'
_cell_length_a   9.59140588
_cell_length_b   9.56163906
_cell_length_c   9.94683709
_cell_angle_alpha   90.00035745
_cell_angle_beta   90.06265233
_cell_angle_gamma   60.13603709
_symmetry_Int_Tables_number   1
_chemical_formula_structural   GdAl17N18
_chemical_formula_sum   'Gd2 Al34 N36'
_cell_volume   791.08583608
_cell_formula_units_Z   2
loop_
 _symmetry_equiv_pos_site_id
 _symmetry_equiv_pos_as_xyz
  1  'x, y, z'
loop_
 _atom_site_type_symbol
 _atom_site_label
 _atom_site_symmetry_multiplicity
 _atom_site_fract_x
 _atom_site_fract_y
 _atom_site_fract_z
 _atom_site_occupancy
  Al  Al0  1  0.11039302  0.09434189  0.38183791  1
  Al  Al1  1  0.21372841  0.20982349  0.13313696  1
  Al  Al2  1  0.78790871  0.08952217  0.87582154  1
  Al  Al3  1  0.89027077  0.20724549  0.63286846  1
  Al  Al4  1  0.44137855  0.09596632  0.39951210  1
  Al  Al5  1  0.11018416  0.09590387  0.88352210  1
  Al  Al6  1  0.21588285  0.20873693  0.63231562  1
  Al  Al7  1  0.78035703  0.09313308  0.39090985  1
  Al  Al8  1  0.89449370  0.20339757  0.13189162  1
  Al  Al9  1  0.43675269  0.09829533  0.86790835  1
  Al  Al10  1  0.55724330  0.20695801  0.63331175  1
  Al  Al11  1  0.11038909  0.42857705  0.38184067  1
  Al  Al12  1  0.21766902  0.54359750  0.13153413  1
  Al  Al13  1  0.77729612  0.42799361  0.88283420  1
  Al  Al14  1  0.89027032  0.53581517  0.63286456  1
  Al  Al15  1  0.44142781  0.43092768  0.39128183  1
  Al  Al16  1  0.54863333  0.54237663  0.13157774  1
  Al  Al17  1  0.11017636  0.42723631  0.88351785  1
  Al  Al18  1  0.21886142  0.54058841  0.63307652  1
  Al  Al19  1  0.77636155  0.42846474  0.38092227  1
  Al  Al20  1  0.89447757  0.53541314  0.13189639  1
  Al  Al21  1  0.44009413  0.43466607  0.87612351  1
  Al  Al22  1  0.55707181  0.53814219  0.63353602  1
  Al  Al23  1  0.11188676  0.76071474  0.38200980  1
  Al  Al24  1  0.21770001  0.87209061  0.13153409  1
  Al  Al25  1  0.78791900  0.75584265  0.87582245  1
  Al  Al26  1  0.89310398  0.87011667  0.63244554  1
  Al  Al27  1  0.44143589  0.76095790  0.39127834  1
  Al  Al28  1  0.11137203  0.76097640  0.88404035  1
  Al  Al29  1  0.21887181  0.87390388  0.63308265  1
  Al  Al30  1  0.78036154  0.75980156  0.39091257  1
  Al  Al31  1  0.90208966  0.86561069  0.13167646  1
  Al  Al32  1  0.44012059  0.75856278  0.87613033  1
  Al  Al33  1  0.55724795  0.86915551  0.63331661  1
  Gd  Gd34  1  0.55816786  0.20779450  0.12679727  1
  Gd  Gd35  1  0.55819019  0.86751776  0.12679710  1
  N  N36  1  0.22365892  0.20486493  0.32830045  1
  N  N37  1  0.11102315  0.09507503  0.07743202  1
  N  N38  1  0.89070868  0.20824830  0.82416920  1
  N  N39  1  0.78138494  0.09320139  0.58208848  1
  N  N40  1  0.55481719  0.20532132  0.35468403  1
  N  N41  1  0.41199678  0.11068102  0.05426828  1
  N  N42  1  0.21401415  0.20969366  0.82112801  1
  N  N43  1  0.10975240  0.09462467  0.57366979  1
  N  N44  1  0.88751303  0.20558340  0.32585553  1
  N  N45  1  0.81299305  0.07577695  0.06473112  1
  N  N46  1  0.55904724  0.20640414  0.83012591  1
  N  N47  1  0.44101392  0.09612970  0.59109527  1
  N  N48  1  0.22281878  0.53825238  0.32616209  1
  N  N49  1  0.11100834  0.42718834  0.07743073  1
  N  N50  1  0.89070705  0.53440223  0.82416029  1
  N  N51  1  0.77695973  0.42814453  0.57360801  1
  N  N52  1  0.55293567  0.54022454  0.32699954  1
  N  N53  1  0.42662172  0.45609909  0.06517888  1
  N  N54  1  0.21810224  0.54028320  0.82439220  1
  N  N55  1  0.10975222  0.42889867  0.57366913  1
  N  N56  1  0.88751283  0.54026503  0.32586284  1
  N  N57  1  0.77440861  0.42939325  0.07784217  1
  N  N58  1  0.55849164  0.53745793  0.82317049  1
  N  N59  1  0.44151899  0.43143440  0.58262056  1
  N  N60  1  0.22283003  0.87231302  0.32615822  1
  N  N61  1  0.11403940  0.75963193  0.07647273  1
  N  N62  1  0.89424849  0.86955845  0.82118111  1
  N  N63  1  0.78138908  0.75866494  0.58208934  1
  N  N64  1  0.55482353  0.87325049  0.35468398  1
  N  N65  1  0.42668130  0.75059320  0.06520459  1
  N  N66  1  0.21812581  0.87500341  0.82440448  1
  N  N67  1  0.11193939  0.76067387  0.57367855  1
  N  N68  1  0.88814967  0.87260646  0.32752971  1
  N  N69  1  0.81301513  0.74442197  0.06472953  1
  N  N70  1  0.55905355  0.86795941  0.83013341  1
  N  N71  1  0.44152707  0.76031990  0.58262212  1
