# generated using pymatgen
data_GdAl17N18
_symmetry_space_group_name_H-M   'P 1'
_cell_length_a   9.51113796
_cell_length_b   9.49323292
_cell_length_c   10.14333294
_cell_angle_alpha   90.00001719
_cell_angle_beta   90.08973417
_cell_angle_gamma   60.06230291
_symmetry_Int_Tables_number   1
_chemical_formula_structural   GdAl17N18
_chemical_formula_sum   'Gd2 Al34 N36'
_cell_volume   793.65093295
_cell_formula_units_Z   2
loop_
 _symmetry_equiv_pos_site_id
 _symmetry_equiv_pos_as_xyz
  1  'x, y, z'
loop_
 _atom_site_type_symbol
 _atom_site_label
 _atom_site_symmetry_multiplicity
 _atom_site_fract_x
 _atom_site_fract_y
 _atom_site_fract_z
 _atom_site_occupancy
  Al  Al0  1  0.11048687  0.09451177  0.40530378  1
  Al  Al1  1  0.21465309  0.20934023  0.15548207  1
  Al  Al2  1  0.78614719  0.09055020  0.89998474  1
  Al  Al3  1  0.89025142  0.20692688  0.65647917  1
  Al  Al4  1  0.44073095  0.09630114  0.42412564  1
  Al  Al5  1  0.11051983  0.09543499  0.90646696  1
  Al  Al6  1  0.21680796  0.20826265  0.65703583  1
  Al  Al7  1  0.78016841  0.09312048  0.41528037  1
  Al  Al8  1  0.89469548  0.20348370  0.15493598  1
  Al  Al9  1  0.43845462  0.09743952  0.89417077  1
  Al  Al10  1  0.55660177  0.20704590  0.65720028  1
  Al  Al11  1  0.11048685  0.42833451  0.40530377  1
  Al  Al12  1  0.21775513  0.54368294  0.15448864  1
  Al  Al13  1  0.77759448  0.42786934  0.90565694  1
  Al  Al14  1  0.89025140  0.53615485  0.65647916  1
  Al  Al15  1  0.44119650  0.43155303  0.41542819  1
  Al  Al16  1  0.54917608  0.54207883  0.15397769  1
  Al  Al17  1  0.11051974  0.42737855  0.90646697  1
  Al  Al18  1  0.21904719  0.54067662  0.65656211  1
  Al  Al19  1  0.77627981  0.42852660  0.40468271  1
  Al  Al20  1  0.89469533  0.53515406  0.15493603  1
  Al  Al21  1  0.44075554  0.43356375  0.90032476  1
  Al  Al22  1  0.55674790  0.53829274  0.65778383  1
  Al  Al23  1  0.11087173  0.76123072  0.40516854  1
  Al  Al24  1  0.21775529  0.87189532  0.15448869  1
  Al  Al25  1  0.78614721  0.75663581  0.89998475  1
  Al  Al26  1  0.89240189  0.87046565  0.65708953  1
  Al  Al27  1  0.44119658  0.76058367  0.41542812  1
  Al  Al28  1  0.11133604  0.76099867  0.90694848  1
  Al  Al29  1  0.21904728  0.87360940  0.65656212  1
  Al  Al30  1  0.78016843  0.76004416  0.41528040  1
  Al  Al31  1  0.90117984  0.86607669  0.15380683  1
  Al  Al32  1  0.44075568  0.75901422  0.90032486  1
  Al  Al33  1  0.55660177  0.86968569  0.65720031  1
  Gd  Gd34  1  0.55820331  0.20839338  0.15611823  1
  Gd  Gd35  1  0.55820334  0.86673760  0.15611823  1
  N  N36  1  0.22372731  0.20480297  0.34801456  1
  N  N37  1  0.11156240  0.09470085  0.09750024  1
  N  N38  1  0.89054535  0.20785229  0.84486742  1
  N  N39  1  0.78133326  0.09307098  0.60308609  1
  N  N40  1  0.55418247  0.20574245  0.37849855  1
  N  N41  1  0.41523733  0.10904841  0.07677716  1
  N  N42  1  0.21542368  0.20895489  0.84310363  1
  N  N43  1  0.11022717  0.09468688  0.59462376  1
  N  N44  1  0.88711357  0.20552017  0.34633091  1
  N  N45  1  0.81105264  0.07727479  0.08538980  1
  N  N46  1  0.55834370  0.20645543  0.84992070  1
  N  N47  1  0.44083467  0.09624927  0.61146632  1
  N  N48  1  0.22257574  0.53846857  0.34648661  1
  N  N49  1  0.11156223  0.42707013  0.09750025  1
  N  N50  1  0.89054529  0.53493566  0.84486739  1
  N  N51  1  0.77693754  0.42819771  0.59468382  1
  N  N52  1  0.55281744  0.54025791  0.34693933  1
  N  N53  1  0.42749936  0.45488550  0.08572627  1
  N  N54  1  0.21850405  0.54024753  0.84500496  1
  N  N55  1  0.11022714  0.42841905  0.59462374  1
  N  N56  1  0.88711354  0.54069942  0.34633096  1
  N  N57  1  0.77507770  0.42912761  0.09796834  1
  N  N58  1  0.55818882  0.53757241  0.84438880  1
  N  N59  1  0.44156308  0.43179354  0.60333762  1
  N  N60  1  0.22257578  0.87228893  0.34648663  1
  N  N61  1  0.11381115  0.75976113  0.09647251  1
  N  N62  1  0.89316810  0.87008261  0.84289651  1
  N  N63  1  0.78133327  0.75892878  0.60308611  1
  N  N64  1  0.55418251  0.87340837  0.37849855  1
  N  N65  1  0.42749969  0.75094884  0.08572646  1
  N  N66  1  0.21850420  0.87458178  0.84500501  1
  N  N67  1  0.11119472  0.76106921  0.59435329  1
  N  N68  1  0.88679122  0.87327097  0.34715793  1
  N  N69  1  0.81105268  0.74500556  0.08538981  1
  N  N70  1  0.55834369  0.86853458  0.84992076  1
  N  N71  1  0.44156314  0.75997656  0.60333759  1
