# generated using pymatgen
data_GdAl17N18
_symmetry_space_group_name_H-M   'P 1'
_cell_length_a   9.83483853
_cell_length_b   9.79064990
_cell_length_c   9.28486730
_cell_angle_alpha   90.00002765
_cell_angle_beta   89.97487693
_cell_angle_gamma   60.16275677
_symmetry_Int_Tables_number   1
_chemical_formula_structural   GdAl17N18
_chemical_formula_sum   'Gd2 Al34 N36'
_cell_volume   775.52349701
_cell_formula_units_Z   2
loop_
 _symmetry_equiv_pos_site_id
 _symmetry_equiv_pos_as_xyz
  1  'x, y, z'
loop_
 _atom_site_type_symbol
 _atom_site_label
 _atom_site_symmetry_multiplicity
 _atom_site_fract_x
 _atom_site_fract_y
 _atom_site_fract_z
 _atom_site_occupancy
  Al  Al0  1  0.10965474  0.09670444  0.33121129  1
  Al  Al1  1  0.21286380  0.21024341  0.08001700  1
  Al  Al2  1  0.78290195  0.09246820  0.82372154  1
  Al  Al3  1  0.89061809  0.20823857  0.58257664  1
  Al  Al4  1  0.43548438  0.09892042  0.35514421  1
  Al  Al5  1  0.11002533  0.09393424  0.83415290  1
  Al  Al6  1  0.21312817  0.21010868  0.58516232  1
  Al  Al7  1  0.78894967  0.08872718  0.34331411  1
  Al  Al8  1  0.89398048  0.20321160  0.08334088  1
  Al  Al9  1  0.44007458  0.09662212  0.81438502  1
  Al  Al10  1  0.55804356  0.20711746  0.58857605  1
  Al  Al11  1  0.10965440  0.42696739  0.33121490  1
  Al  Al12  1  0.21802576  0.54317367  0.08389231  1
  Al  Al13  1  0.77647236  0.42842504  0.83609434  1
  Al  Al14  1  0.89061868  0.53448536  0.58257793  1
  Al  Al15  1  0.43984559  0.43513267  0.34360908  1
  Al  Al16  1  0.54830147  0.54252315  0.08293884  1
  Al  Al17  1  0.11002479  0.42936481  0.83415006  1
  Al  Al18  1  0.21744396  0.54107609  0.58217084  1
  Al  Al19  1  0.77702495  0.42814741  0.33104100  1
  Al  Al20  1  0.89397949  0.53614368  0.08333939  1
  Al  Al21  1  0.44004992  0.43269621  0.82297855  1
  Al  Al22  1  0.55827661  0.53753222  0.58284659  1
  Al  Al23  1  0.11083624  0.76124476  0.33099563  1
  Al  Al24  1  0.21803269  0.87214706  0.08389483  1
  Al  Al25  1  0.78290284  0.75795008  0.82372257  1
  Al  Al26  1  0.89496468  0.86918849  0.58537682  1
  Al  Al27  1  0.43985037  0.75834267  0.34361365  1
  Al  Al28  1  0.11372395  0.75980062  0.83341255  1
  Al  Al29  1  0.21744383  0.87482695  0.58216844  1
  Al  Al30  1  0.78895133  0.75563871  0.34331243  1
  Al  Al31  1  0.90219451  0.86557157  0.08107959  1
  Al  Al32  1  0.44005119  0.76057507  0.82297596  1
  Al  Al33  1  0.55804556  0.86818068  0.58857470  1
  Gd  Gd34  1  0.55820611  0.20728235  0.09527614  1
  Gd  Gd35  1  0.55820884  0.86787884  0.09527687  1
  N  N36  1  0.21192480  0.21071725  0.38295883  1
  N  N37  1  0.11048818  0.09560652  0.12319322  1
  N  N38  1  0.88803068  0.20578359  0.87584615  1
  N  N39  1  0.78313548  0.09306192  0.61885551  1
  N  N40  1  0.55992056  0.20630679  0.37535178  1
  N  N41  1  0.41071164  0.11130279  0.14840262  1
  N  N42  1  0.22309274  0.20513200  0.87106322  1
  N  N43  1  0.10882676  0.09456740  0.62939349  1
  N  N44  1  0.89087290  0.20909775  0.37756387  1
  N  N45  1  0.81340032  0.07483476  0.13644313  1
  N  N46  1  0.55568371  0.20520690  0.84435559  1
  N  N47  1  0.43947624  0.09691558  0.60812725  1
  N  N48  1  0.21688700  0.54053629  0.37748271  1
  N  N49  1  0.11048707  0.42722066  0.12319517  1
  N  N50  1  0.88803227  0.53953711  0.87584403  1
  N  N51  1  0.77715956  0.42807388  0.62999506  1
  N  N52  1  0.55963616  0.53685946  0.37971774  1
  N  N53  1  0.42667774  0.45602581  0.13658837  1
  N  N54  1  0.22288633  0.53806506  0.87539334  1
  N  N55  1  0.10882830  0.42991775  0.62939260  1
  N  N56  1  0.89087389  0.53337961  0.37756729  1
  N  N57  1  0.77398230  0.42965825  0.12233451  1
  N  N58  1  0.55271398  0.54032078  0.87317488  1
  N  N59  1  0.44022984  0.43283766  0.61757828  1
  N  N60  1  0.21689058  0.87593440  0.37747886  1
  N  N61  1  0.11376870  0.75977487  0.12421516  1
  N  N62  1  0.88999841  0.87167678  0.87096539  1
  N  N63  1  0.78313657  0.75710982  0.61885745  1
  N  N64  1  0.55992279  0.86712643  0.37535082  1
  N  N65  1  0.42668696  0.75060814  0.13658803  1
  N  N66  1  0.22289051  0.87240359  0.87539559  1
  N  N67  1  0.11341984  0.75994779  0.62896725  1
  N  N68  1  0.89552692  0.86891179  0.38327226  1
  N  N69  1  0.81340381  0.74506105  0.13644198  1
  N  N70  1  0.55568398  0.87246063  0.84435569  1
  N  N71  1  0.44023035  0.76024075  0.61757359  1
