# generated using pymatgen
data_GdAl17N18
_symmetry_space_group_name_H-M   'P 1'
_cell_length_a   9.51112638
_cell_length_b   9.49322486
_cell_length_c   10.14332396
_cell_angle_alpha   89.99983828
_cell_angle_beta   89.91022066
_cell_angle_gamma   60.06278579
_symmetry_Int_Tables_number   1
_chemical_formula_structural   GdAl17N18
_chemical_formula_sum   'Gd2 Al34 N36'
_cell_volume   793.65244354
_cell_formula_units_Z   2
loop_
 _symmetry_equiv_pos_site_id
 _symmetry_equiv_pos_as_xyz
  1  'x, y, z'
loop_
 _atom_site_type_symbol
 _atom_site_label
 _atom_site_symmetry_multiplicity
 _atom_site_fract_x
 _atom_site_fract_y
 _atom_site_fract_z
 _atom_site_occupancy
  Al  Al0  1  0.11058658  0.09540155  0.32211924  1
  Al  Al1  1  0.21471886  0.20930849  0.07310303  1
  Al  Al2  1  0.78023511  0.09308584  0.81330610  1
  Al  Al3  1  0.89031790  0.20689239  0.57210665  1
  Al  Al4  1  0.43852086  0.09740808  0.33441259  1
  Al  Al5  1  0.11055358  0.09447786  0.82328022  1
  Al  Al6  1  0.21687507  0.20822888  0.57154984  1
  Al  Al7  1  0.78621420  0.09051577  0.32860083  1
  Al  Al8  1  0.89476289  0.20344918  0.07364869  1
  Al  Al9  1  0.44079764  0.09626736  0.80446040  1
  Al  Al10  1  0.55666851  0.20701241  0.57138540  1
  Al  Al11  1  0.11058572  0.42734571  0.32211915  1
  Al  Al12  1  0.21782079  0.54365075  0.07409549  1
  Al  Al13  1  0.77634670  0.42849170  0.82390041  1
  Al  Al14  1  0.89031767  0.53612113  0.57210677  1
  Al  Al15  1  0.44082130  0.43353231  0.32826110  1
  Al  Al16  1  0.54924257  0.54204763  0.07460536  1
  Al  Al17  1  0.11055333  0.42830026  0.82328032  1
  Al  Al18  1  0.21911400  0.54064276  0.57202397  1
  Al  Al19  1  0.77766047  0.42783555  0.32292894  1
  Al  Al20  1  0.89476122  0.53511993  0.07364832  1
  Al  Al21  1  0.44126296  0.43151893  0.81315770  1
  Al  Al22  1  0.55681398  0.53825985  0.57080297  1
  Al  Al23  1  0.11140280  0.76096551  0.32163769  1
  Al  Al24  1  0.21782260  0.87186248  0.07409500  1
  Al  Al25  1  0.78023526  0.76000931  0.81330584  1
  Al  Al26  1  0.89246839  0.87043166  0.57149704  1
  Al  Al27  1  0.44082282  0.75898159  0.32825998  1
  Al  Al28  1  0.11093900  0.76119647  0.82341481  1
  Al  Al29  1  0.21911490  0.87357555  0.57202375  1
  Al  Al30  1  0.78621449  0.75660177  0.32860071  1
  Al  Al31  1  0.90124751  0.86604225  0.07477648  1
  Al  Al32  1  0.44126368  0.76055018  0.81315837  1
  Al  Al33  1  0.55666853  0.86965276  0.57138502  1
  Gd  Gd34  1  0.55827032  0.20836481  0.07246725  1
  Gd  Gd35  1  0.55827079  0.86670867  0.07246721  1
  N  N36  1  0.21549096  0.20892196  0.38548127  1
  N  N37  1  0.11162924  0.09466715  0.13108448  1
  N  N38  1  0.88718083  0.20548600  0.88225308  1
  N  N39  1  0.78139936  0.09303633  0.62549976  1
  N  N40  1  0.55841065  0.20642350  0.37866358  1
  N  N41  1  0.41530310  0.10901945  0.15180592  1
  N  N42  1  0.22379388  0.20476951  0.88056956  1
  N  N43  1  0.11029352  0.09465270  0.63396047  1
  N  N44  1  0.89061227  0.20781849  0.38371790  1
  N  N45  1  0.81111952  0.07723928  0.14319444  1
  N  N46  1  0.55424961  0.20570872  0.85008673  1
  N  N47  1  0.44090111  0.09621539  0.61711905  1
  N  N48  1  0.21857058  0.54021476  0.38358080  1
  N  N49  1  0.11162747  0.42703744  0.13108439  1
  N  N50  1  0.88718061  0.54066453  0.88225267  1
  N  N51  1  0.77700388  0.42816279  0.63390021  1
  N  N52  1  0.55825525  0.53754069  0.38419713  1
  N  N53  1  0.42756392  0.45485606  0.14285860  1
  N  N54  1  0.22264234  0.53843505  0.88209700  1
  N  N55  1  0.11029326  0.42838483  0.63396067  1
  N  N56  1  0.89061172  0.53490226  0.38371817  1
  N  N57  1  0.77514349  0.42909257  0.13061619  1
  N  N58  1  0.55288478  0.54022392  0.88164396  1
  N  N59  1  0.44162937  0.43175926  0.62524793  1
  N  N60  1  0.21857210  0.87454847  0.38358021  1
  N  N61  1  0.11387790  0.75972812  0.13211198  1
  N  N62  1  0.88685934  0.87323602  0.88142544  1
  N  N63  1  0.78139942  0.75889420  0.62549952  1
  N  N64  1  0.55841062  0.86850313  0.37866284  1
  N  N65  1  0.42756760  0.75091737  0.14285643  1
  N  N66  1  0.22264270  0.87225540  0.88209681  1
  N  N67  1  0.11126154  0.76103495  0.63423078  1
  N  N68  1  0.89323528  0.87004895  0.38568928  1
  N  N69  1  0.81112007  0.74497044  0.14319436  1
  N  N70  1  0.55425000  0.87337486  0.85008673  1
  N  N71  1  0.44162997  0.75994303  0.62524823  1
