# generated using pymatgen
data_GdAl17N18
_symmetry_space_group_name_H-M   'P 1'
_cell_length_a   9.51113772
_cell_length_b   9.49323256
_cell_length_c   10.14332956
_cell_angle_alpha   90.00001461
_cell_angle_beta   90.08971948
_cell_angle_gamma   60.06229617
_symmetry_Int_Tables_number   1
_chemical_formula_structural   GdAl17N18
_chemical_formula_sum   'Gd2 Al34 N36'
_cell_volume   793.65056580
_cell_formula_units_Z   2
loop_
 _symmetry_equiv_pos_site_id
 _symmetry_equiv_pos_as_xyz
  1  'x, y, z'
loop_
 _atom_site_type_symbol
 _atom_site_label
 _atom_site_symmetry_multiplicity
 _atom_site_fract_x
 _atom_site_fract_y
 _atom_site_fract_z
 _atom_site_occupancy
  Al  Al0  1  0.11048370  0.09451337  0.40653688  1
  Al  Al1  1  0.21464985  0.20934183  0.15671381  1
  Al  Al2  1  0.78614391  0.09055188  0.90121579  1
  Al  Al3  1  0.89024797  0.20692851  0.65771172  1
  Al  Al4  1  0.44072765  0.09630280  0.42535463  1
  Al  Al5  1  0.11051664  0.09543655  0.90769929  1
  Al  Al6  1  0.21680462  0.20826432  0.65826768  1
  Al  Al7  1  0.78016528  0.09312205  0.41651114  1
  Al  Al8  1  0.89469225  0.20348524  0.15616892  1
  Al  Al9  1  0.43845134  0.09744114  0.89539891  1
  Al  Al10  1  0.55659856  0.20704753  0.65842930  1
  Al  Al11  1  0.11048368  0.42833611  0.40653687  1
  Al  Al12  1  0.21775197  0.54368462  0.15572117  1
  Al  Al13  1  0.77759111  0.42787104  0.90688951  1
  Al  Al14  1  0.89024795  0.53615669  0.65771171  1
  Al  Al15  1  0.44119328  0.43155460  0.41665856  1
  Al  Al16  1  0.54917294  0.54208036  0.15520964  1
  Al  Al17  1  0.11051656  0.42738018  0.90769930  1
  Al  Al18  1  0.21904411  0.54067809  0.65779431  1
  Al  Al19  1  0.77627672  0.42852817  0.40591553  1
  Al  Al20  1  0.89469212  0.53515577  0.15616896  1
  Al  Al21  1  0.44075241  0.43356538  0.90155508  1
  Al  Al22  1  0.55674455  0.53829441  0.65901446  1
  Al  Al23  1  0.11086851  0.76123234  0.40640186  1
  Al  Al24  1  0.21775210  0.87189679  0.15572121  1
  Al  Al25  1  0.78614392  0.75663743  0.90121580  1
  Al  Al26  1  0.89239835  0.87046743  0.65832159  1
  Al  Al27  1  0.44119335  0.76058535  0.41665850  1
  Al  Al28  1  0.11133297  0.76100020  0.90818050  1
  Al  Al29  1  0.21904419  0.87361102  0.65779432  1
  Al  Al30  1  0.78016530  0.76004575  0.41651116  1
  Al  Al31  1  0.90117676  0.86607824  0.15503905  1
  Al  Al32  1  0.44075253  0.75901570  0.90155516  1
  Al  Al33  1  0.55659856  0.86968727  0.65842933  1
  Gd  Gd34  1  0.55819952  0.20839469  0.15734745  1
  Gd  Gd35  1  0.55819954  0.86673994  0.15734745  1
  N  N36  1  0.22372381  0.20480472  0.34924601  1
  N  N37  1  0.11155908  0.09470237  0.09873229  1
  N  N38  1  0.89054212  0.20785398  0.84609938  1
  N  N39  1  0.78133021  0.09307253  0.60431672  1
  N  N40  1  0.55417945  0.20574404  0.37972813  1
  N  N41  1  0.41523303  0.10905050  0.07800580  1
  N  N42  1  0.21541985  0.20895680  0.84433490  1
  N  N43  1  0.11022375  0.09468856  0.59585617  1
  N  N44  1  0.88711066  0.20552187  0.34756327  1
  N  N45  1  0.81104962  0.07727639  0.08662117  1
  N  N46  1  0.55834060  0.20645709  0.85115003  1
  N  N47  1  0.44083107  0.09625108  0.61269560  1
  N  N48  1  0.22257218  0.53847044  0.34771877  1
  N  N49  1  0.11155894  0.42707191  0.09873230  1
  N  N50  1  0.89054207  0.53493721  0.84609936  1
  N  N51  1  0.77693448  0.42819927  0.59591597  1
  N  N52  1  0.55281449  0.54025939  0.34817086  1
  N  N53  1  0.42749609  0.45488736  0.08695711  1
  N  N54  1  0.21850078  0.54024912  0.84623654  1
  N  N55  1  0.11022373  0.42842082  0.59585615  1
  N  N56  1  0.88711064  0.54070064  0.34756331  1
  N  N57  1  0.77507458  0.42912921  0.09920042  1
  N  N58  1  0.55818575  0.53757392  0.84561935  1
  N  N59  1  0.44155966  0.43179528  0.60456780  1
  N  N60  1  0.22257222  0.87229064  0.34771879  1
  N  N61  1  0.11380805  0.75976267  0.09770430  1
  N  N62  1  0.89316495  0.87008418  0.84412826  1
  N  N63  1  0.78133022  0.75893032  0.60431674  1
  N  N64  1  0.55417949  0.87340981  0.37972813  1
  N  N65  1  0.42749637  0.75095020  0.08695727  1
  N  N66  1  0.21850091  0.87458346  0.84623659  1
  N  N67  1  0.11119147  0.76107085  0.59558597  1
  N  N68  1  0.88678853  0.87327233  0.34838975  1
  N  N69  1  0.81104965  0.74500703  0.08662118  1
  N  N70  1  0.55834059  0.86853596  0.85115008  1
  N  N71  1  0.44155972  0.75997826  0.60456777  1
