# generated using pymatgen
data_GdAl17N18
_symmetry_space_group_name_H-M   'P 1'
_cell_length_a   9.51266031
_cell_length_b   9.49429259
_cell_length_c   10.13959314
_cell_angle_alpha   90.00048136
_cell_angle_beta   90.08825996
_cell_angle_gamma   60.06957229
_symmetry_Int_Tables_number   1
_chemical_formula_structural   GdAl17N18
_chemical_formula_sum   'Gd2 Al34 N36'
_cell_volume   793.63190104
_cell_formula_units_Z   2
loop_
 _symmetry_equiv_pos_site_id
 _symmetry_equiv_pos_as_xyz
  1  'x, y, z'
loop_
 _atom_site_type_symbol
 _atom_site_label
 _atom_site_symmetry_multiplicity
 _atom_site_fract_x
 _atom_site_fract_y
 _atom_site_fract_z
 _atom_site_occupancy
  Al  Al0  1  0.11053806  0.09447705  0.38407092  1
  Al  Al1  1  0.21465724  0.20934433  0.13427642  1
  Al  Al2  1  0.78626055  0.09047933  0.87872790  1
  Al  Al3  1  0.89030018  0.20690000  0.63522769  1
  Al  Al4  1  0.44082015  0.09625433  0.40280479  1
  Al  Al5  1  0.11056131  0.09542347  0.88523343  1
  Al  Al6  1  0.21685208  0.20824121  0.63574454  1
  Al  Al7  1  0.78021692  0.09308991  0.39398472  1
  Al  Al8  1  0.89474288  0.20345208  0.13370871  1
  Al  Al9  1  0.43844010  0.09745380  0.87286398  1
  Al  Al10  1  0.55667541  0.20700914  0.63596574  1
  Al  Al11  1  0.11053666  0.42831121  0.38407097  1
  Al  Al12  1  0.21779519  0.54365937  0.13326675  1
  Al  Al13  1  0.77762727  0.42784649  0.88442148  1
  Al  Al14  1  0.89029948  0.53612549  0.63522692  1
  Al  Al15  1  0.44126962  0.43148396  0.39414207  1
  Al  Al16  1  0.54920923  0.54207301  0.13277599  1
  Al  Al17  1  0.11055736  0.42734928  0.88523338  1
  Al  Al18  1  0.21910998  0.54063641  0.63531531  1
  Al  Al19  1  0.77633816  0.42848966  0.38344371  1
  Al  Al20  1  0.89473476  0.53512747  0.13371068  1
  Al  Al21  1  0.44077994  0.43358234  0.87907020  1
  Al  Al22  1  0.55680228  0.53826749  0.63650364  1
  Al  Al23  1  0.11096503  0.76118137  0.38394844  1
  Al  Al24  1  0.21780598  0.87188277  0.13326850  1
  Al  Al25  1  0.78626322  0.75657982  0.87872824  1
  Al  Al26  1  0.89247109  0.87042834  0.63580158  1
  Al  Al27  1  0.44127312  0.76057439  0.39413931  1
  Al  Al28  1  0.11139670  0.76096881  0.88571735  1
  Al  Al29  1  0.21911458  0.87358595  0.63531677  1
  Al  Al30  1  0.78021823  0.76001127  0.39398627  1
  Al  Al31  1  0.90128094  0.86602139  0.13260624  1
  Al  Al32  1  0.44078885  0.75897675  0.87907528  1
  Al  Al33  1  0.55667624  0.86965273  0.63596754  1
  Gd  Gd34  1  0.55825641  0.20836654  0.13467085  1
  Gd  Gd35  1  0.55826196  0.86676447  0.13467131  1
  N  N36  1  0.22377698  0.20478130  0.32684736  1
  N  N37  1  0.11158970  0.09468674  0.07632035  1
  N  N38  1  0.89060337  0.20783297  0.82366862  1
  N  N39  1  0.78136891  0.09304432  0.58186137  1
  N  N40  1  0.55426512  0.20569657  0.35714346  1
  N  N41  1  0.41515180  0.10910760  0.05552222  1
  N  N42  1  0.21544224  0.20895235  0.82185971  1
  N  N43  1  0.11026432  0.09465236  0.57342817  1
  N  N44  1  0.88718752  0.20549243  0.32514458  1
  N  N45  1  0.81117817  0.07717937  0.06419201  1
  N  N46  1  0.55841975  0.20643153  0.82876667  1
  N  N47  1  0.44090553  0.09620792  0.59024016  1
  N  N48  1  0.22264140  0.53843336  0.32530701  1
  N  N49  1  0.11158156  0.42705195  0.07632067  1
  N  N50  1  0.89060126  0.53489813  0.82366672  1
  N  N51  1  0.77698784  0.42816085  0.57348628  1
  N  N52  1  0.55288559  0.54022630  0.32576749  1
  N  N53  1  0.42750529  0.45492190  0.06453439  1
  N  N54  1  0.21855405  0.54022051  0.82380962  1
  N  N55  1  0.11026343  0.42840231  0.57342747  1
  N  N56  1  0.88718672  0.54065003  0.32514700  1
  N  N57  1  0.77509538  0.42910093  0.07678353  1
  N  N58  1  0.55824074  0.53755661  0.82316895  1
  N  N59  1  0.44162414  0.43173108  0.58212150  1
  N  N60  1  0.22264419  0.87226378  0.32530711  1
  N  N61  1  0.11387944  0.75972644  0.07529422  1
  N  N62  1  0.89326249  0.87003690  0.82166406  1
  N  N63  1  0.78136984  0.75889791  0.58186256  1
  N  N64  1  0.55426741  0.87337944  0.35714376  1
  N  N65  1  0.42752661  0.75091814  0.06454544  1
  N  N66  1  0.21856245  0.87456720  0.82381318  1
  N  N67  1  0.11127493  0.76102352  0.57316993  1
  N  N68  1  0.88690839  0.87321086  0.32599134  1
  N  N69  1  0.81118382  0.74494142  0.06419176  1
  N  N70  1  0.55842075  0.86850535  0.82877008  1
  N  N71  1  0.44162734  0.75996547  0.58212055  1
