# generated using pymatgen
data_GdAl17N18
_symmetry_space_group_name_H-M   'P 1'
_cell_length_a   9.95420129
_cell_length_b   9.90532261
_cell_length_c   8.94112111
_cell_angle_alpha   89.99994827
_cell_angle_beta   90.01944043
_cell_angle_gamma   60.16816545
_symmetry_Int_Tables_number   1
_chemical_formula_structural   GdAl17N18
_chemical_formula_sum   'Gd2 Al34 N36'
_cell_volume   764.77038266
_cell_formula_units_Z   2
loop_
 _symmetry_equiv_pos_site_id
 _symmetry_equiv_pos_as_xyz
  1  'x, y, z'
loop_
 _atom_site_type_symbol
 _atom_site_label
 _atom_site_symmetry_multiplicity
 _atom_site_fract_x
 _atom_site_fract_y
 _atom_site_fract_z
 _atom_site_occupancy
  Al  Al0  1  0.10979206  0.09407441  0.37030172  1
  Al  Al1  1  0.21167921  0.21083067  0.12445112  1
  Al  Al2  1  0.78859345  0.08870922  0.85840250  1
  Al  Al3  1  0.89042530  0.20845159  0.62061231  1
  Al  Al4  1  0.43922254  0.09705036  0.38841707  1
  Al  Al5  1  0.10965200  0.09661969  0.87114988  1
  Al  Al6  1  0.21372828  0.20980524  0.61782342  1
  Al  Al7  1  0.78414385  0.09204842  0.38013544  1
  Al  Al8  1  0.89409506  0.20351726  0.12015030  1
  Al  Al9  1  0.43545756  0.09893323  0.84930403  1
  Al  Al10  1  0.55772056  0.20687444  0.61368166  1
  Al  Al11  1  0.10979294  0.42946339  0.37030395  1
  Al  Al12  1  0.21773888  0.54300729  0.11968844  1
  Al  Al13  1  0.77674720  0.42829271  0.87192448  1
  Al  Al14  1  0.89042597  0.53446589  0.62061214  1
  Al  Al15  1  0.43945538  0.43353133  0.38069645  1
  Al  Al16  1  0.54899989  0.54216817  0.12064429  1
  Al  Al17  1  0.10965332  0.42705827  0.87114723  1
  Al  Al18  1  0.21748543  0.54099682  0.62097868  1
  Al  Al19  1  0.77648065  0.42842671  0.36761709  1
  Al  Al20  1  0.89409643  0.53572805  0.12015040  1
  Al  Al21  1  0.43975817  0.43497395  0.85827519  1
  Al  Al22  1  0.55810457  0.53761465  0.61995078  1
  Al  Al23  1  0.11417678  0.75957602  0.37087331  1
  Al  Al24  1  0.21773909  0.87259364  0.11968736  1
  Al  Al25  1  0.78859247  0.75602821  0.85840404  1
  Al  Al26  1  0.89517548  0.86908240  0.61713270  1
  Al  Al27  1  0.43945367  0.76033868  0.38070080  1
  Al  Al28  1  0.11093416  0.76119742  0.87151473  1
  Al  Al29  1  0.21748217  0.87485908  0.62097961  1
  Al  Al30  1  0.78414340  0.75713936  0.38013368  1
  Al  Al31  1  0.90251015  0.86541530  0.12358605  1
  Al  Al32  1  0.43975660  0.75859236  0.85827116  1
  Al  Al33  1  0.55772070  0.86873869  0.61368217  1
  Gd  Gd34  1  0.55898584  0.20735532  0.10889904  1
  Gd  Gd35  1  0.55898412  0.86699705  0.10889883  1
  N  N36  1  0.22169276  0.20582535  0.34487458  1
  N  N37  1  0.11033263  0.09569441  0.09130413  1
  N  N38  1  0.89061911  0.20909273  0.83724904  1
  N  N39  1  0.78331319  0.09316924  0.59575375  1
  N  N40  1  0.55618338  0.20538147  0.37018784  1
  N  N41  1  0.41200391  0.11065647  0.07089429  1
  N  N42  1  0.21299852  0.21017242  0.83118512  1
  N  N43  1  0.10861697  0.09467197  0.58596004  1
  N  N44  1  0.88848644  0.20617244  0.33959544  1
  N  N45  1  0.81278413  0.07504309  0.08043770  1
  N  N46  1  0.55951263  0.20607017  0.83468682  1
  N  N47  1  0.43893307  0.09719325  0.60376083  1
  N  N48  1  0.22222793  0.53822414  0.34022703  1
  N  N49  1  0.11033388  0.42729915  0.09130236  1
  N  N50  1  0.89062015  0.53363343  0.83724814  1
  N  N51  1  0.77701163  0.42815859  0.58501557  1
  N  N52  1  0.55312204  0.54010959  0.34288255  1
  N  N53  1  0.42709085  0.45526114  0.08012268  1
  N  N54  1  0.21711607  0.54042260  0.83704277  1
  N  N55  1  0.10861864  0.43003631  0.58596164  1
  N  N56  1  0.88848855  0.53868595  0.33959603  1
  N  N57  1  0.77399380  0.42966676  0.09270239  1
  N  N58  1  0.55919469  0.53707153  0.83468544  1
  N  N59  1  0.43991108  0.43305329  0.59697463  1
  N  N60  1  0.22222825  0.87289071  0.34022618  1
  N  N61  1  0.11385896  0.75973351  0.09068858  1
  N  N62  1  0.89542367  0.86895978  0.83039886  1
  N  N63  1  0.78331254  0.75684543  0.59575189  1
  N  N64  1  0.55618175  0.87177156  0.37018808  1
  N  N65  1  0.42708886  0.75096679  0.08011774  1
  N  N66  1  0.21711376  0.87580651  0.83704343  1
  N  N67  1  0.11385614  0.75973448  0.58612288  1
  N  N68  1  0.89099469  0.87117516  0.34594230  1
  N  N69  1  0.81278308  0.74549872  0.08043972  1
  N  N70  1  0.55951281  0.86775347  0.83468677  1
  N  N71  1  0.43990885  0.76035663  0.59697855  1
