# generated using pymatgen
data_GdAl17N18
_symmetry_space_group_name_H-M   'P 1'
_cell_length_a   9.90879062
_cell_length_b   9.86148972
_cell_length_c   9.07303469
_cell_angle_alpha   89.99995150
_cell_angle_beta   90.02464170
_cell_angle_gamma   60.16680348
_symmetry_Int_Tables_number   1
_chemical_formula_structural   GdAl17N18
_chemical_formula_sum   'Gd2 Al34 N36'
_cell_volume   769.08412707
_cell_formula_units_Z   2
loop_
 _symmetry_equiv_pos_site_id
 _symmetry_equiv_pos_as_xyz
  1  'x, y, z'
loop_
 _atom_site_type_symbol
 _atom_site_label
 _atom_site_symmetry_multiplicity
 _atom_site_fract_x
 _atom_site_fract_y
 _atom_site_fract_z
 _atom_site_occupancy
  Al  Al0  1  0.10984320  0.09399282  0.37229849  1
  Al  Al1  1  0.21218076  0.21058180  0.12665562  1
  Al  Al2  1  0.78881341  0.08864981  0.86132049  1
  Al  Al3  1  0.89051225  0.20847067  0.62325015  1
  Al  Al4  1  0.43952656  0.09689735  0.39111490  1
  Al  Al5  1  0.10965905  0.09670332  0.87416483  1
  Al  Al6  1  0.21341742  0.20996196  0.62033559  1
  Al  Al7  1  0.78366805  0.09225643  0.38258618  1
  Al  Al8  1  0.89405839  0.20330050  0.12257567  1
  Al  Al9  1  0.43547174  0.09892607  0.85105484  1
  Al  Al10  1  0.55783842  0.20696080  0.61615079  1
  Al  Al11  1  0.10984366  0.42949176  0.37230114  1
  Al  Al12  1  0.21792491  0.54300119  0.12208797  1
  Al  Al13  1  0.77684203  0.42824312  0.87486167  1
  Al  Al14  1  0.89051292  0.53436022  0.62324966  1
  Al  Al15  1  0.43962101  0.43325548  0.38322368  1
  Al  Al16  1  0.54856732  0.54238650  0.12312454  1
  Al  Al17  1  0.10965993  0.42696606  0.87416165  1
  Al  Al18  1  0.21733764  0.54111854  0.62361897  1
  Al  Al19  1  0.77648151  0.42842432  0.36970752  1
  Al  Al20  1  0.89405910  0.53598051  0.12257628  1
  Al  Al21  1  0.43980099  0.43505178  0.86110440  1
  Al  Al22  1  0.55829619  0.53752010  0.62265994  1
  Al  Al23  1  0.11407770  0.75962475  0.37278902  1
  Al  Al24  1  0.21792742  0.87241630  0.12208623  1
  Al  Al25  1  0.78881322  0.75586245  0.86132232  1
  Al  Al26  1  0.89522031  0.86906045  0.61981955  1
  Al  Al27  1  0.43962024  0.76044708  0.38322761  1
  Al  Al28  1  0.11083127  0.76124819  0.87461182  1
  Al  Al29  1  0.21733519  0.87488751  0.62362034  1
  Al  Al30  1  0.78366801  0.75740316  0.38258465  1
  Al  Al31  1  0.90231341  0.86551347  0.12567875  1
  Al  Al32  1  0.43980148  0.75846996  0.86109942  1
  Al  Al33  1  0.55783918  0.86853726  0.61615158  1
  Gd  Gd34  1  0.55873954  0.20733318  0.11061084  1
  Gd  Gd35  1  0.55873902  0.86727531  0.11061042  1
  N  N36  1  0.22224218  0.20555315  0.34209729  1
  N  N37  1  0.11040620  0.09569372  0.08902051  1
  N  N38  1  0.89074426  0.20920096  0.83480621  1
  N  N39  1  0.78328066  0.09315362  0.59363008  1
  N  N40  1  0.55598996  0.20533433  0.36828881  1
  N  N41  1  0.41147669  0.11091954  0.06656752  1
  N  N42  1  0.21254120  0.21040398  0.82894381  1
  N  N43  1  0.10865348  0.09463007  0.58321093  1
  N  N44  1  0.88828164  0.20595013  0.33678752  1
  N  N45  1  0.81314706  0.07485352  0.07681734  1
  N  N46  1  0.55970963  0.20613829  0.83441893  1
  N  N47  1  0.43912158  0.09709661  0.60277995  1
  N  N48  1  0.22256173  0.53808825  0.33736669  1
  N  N49  1  0.11040671  0.42722228  0.08901850  1
  N  N50  1  0.89074533  0.53340243  0.83480439  1
  N  N51  1  0.77708714  0.42811708  0.58218930  1
  N  N52  1  0.55282430  0.54026119  0.33992175  1
  N  N53  1  0.42689974  0.45560552  0.07658936  1
  N  N54  1  0.21689405  0.54054806  0.83472227  1
  N  N55  1  0.10865523  0.43003669  0.58321240  1
  N  N56  1  0.88828370  0.53911592  0.33678860  1
  N  N57  1  0.77394500  0.42968636  0.09036235  1
  N  N58  1  0.55952429  0.53690974  0.83232146  1
  N  N59  1  0.43997694  0.43301775  0.59490254  1
  N  N60  1  0.22256345  0.87269735  0.33736538  1
  N  N61  1  0.11379457  0.75976421  0.08839170  1
  N  N62  1  0.89560836  0.86886895  0.82825390  1
  N  N63  1  0.78328056  0.75688634  0.59362801  1
  N  N64  1  0.55598888  0.87201730  0.36828899  1
  N  N65  1  0.42690113  0.75081016  0.07658584  1
  N  N66  1  0.21689357  0.87590788  0.83472407  1
  N  N67  1  0.11373794  0.75979170  0.58332574  1
  N  N68  1  0.89050968  0.87141916  0.34274272  1
  N  N69  1  0.81314734  0.74531531  0.07681912  1
  N  N70  1  0.55971051  0.86749432  0.83441914  1
  N  N71  1  0.43997554  0.76032144  0.59490717  1
