# generated using pymatgen
data_GdAl17N18
_symmetry_space_group_name_H-M   'P 1'
_cell_length_a   9.83504277
_cell_length_b   9.79063714
_cell_length_c   9.28449423
_cell_angle_alpha   89.99996472
_cell_angle_beta   90.03250257
_cell_angle_gamma   60.16390179
_symmetry_Int_Tables_number   1
_chemical_formula_structural   GdAl17N18
_chemical_formula_sum   'Gd2 Al34 N36'
_cell_volume   775.51625251
_cell_formula_units_Z   2
loop_
 _symmetry_equiv_pos_site_id
 _symmetry_equiv_pos_as_xyz
  1  'x, y, z'
loop_
 _atom_site_type_symbol
 _atom_site_label
 _atom_site_symmetry_multiplicity
 _atom_site_fract_x
 _atom_site_fract_y
 _atom_site_fract_z
 _atom_site_occupancy
  Al  Al0  1  0.10995446  0.09397753  0.37509290  1
  Al  Al1  1  0.21283079  0.21026005  0.12914798  1
  Al  Al2  1  0.78899970  0.08868319  0.86561511  1
  Al  Al3  1  0.89056092  0.20834475  0.62655109  1
  Al  Al4  1  0.44003416  0.09664193  0.39436336  1
  Al  Al5  1  0.10969395  0.09669534  0.87777123  1
  Al  Al6  1  0.21332250  0.21001153  0.62393690  1
  Al  Al7  1  0.78286585  0.09250698  0.38549027  1
  Al  Al8  1  0.89407087  0.20312560  0.12568792  1
  Al  Al9  1  0.43555914  0.09888248  0.85439081  1
  Al  Al10  1  0.55793304  0.20706675  0.62048590  1
  Al  Al11  1  0.10995411  0.42939213  0.37509597  1
  Al  Al12  1  0.21804387  0.54307616  0.12521263  1
  Al  Al13  1  0.77698657  0.42816683  0.87818660  1
  Al  Al14  1  0.89056129  0.53443748  0.62654990  1
  Al  Al15  1  0.44001396  0.43269844  0.38616685  1
  Al  Al16  1  0.54817418  0.54258662  0.12614865  1
  Al  Al17  1  0.10969384  0.42693695  0.87776737  1
  Al  Al18  1  0.21738680  0.54116336  0.62691050  1
  Al  Al19  1  0.77643675  0.42844315  0.37281954  1
  Al  Al20  1  0.89406987  0.53614028  0.12568933  1
  Al  Al21  1  0.43981532  0.43514705  0.86538509  1
  Al  Al22  1  0.55830516  0.53751789  0.62621217  1
  Al  Al23  1  0.11370964  0.75980764  0.37548410  1
  Al  Al24  1  0.21805049  0.87222671  0.12521004  1
  Al  Al25  1  0.78900106  0.75563323  0.86561706  1
  Al  Al26  1  0.89504109  0.86915063  0.62366690  1
  Al  Al27  1  0.44001495  0.76060806  0.38616990  1
  Al  Al28  1  0.11084155  0.76124193  0.87828439  1
  Al  Al29  1  0.21738602  0.87479730  0.62691292  1
  Al  Al30  1  0.78286656  0.75794777  0.38548903  1
  Al  Al31  1  0.90216486  0.86558688  0.12803472  1
  Al  Al32  1  0.43981972  0.75835771  0.86537992  1
  Al  Al33  1  0.55793511  0.86834185  0.62048726  1
  Gd  Gd34  1  0.55842201  0.20732598  0.11380886  1
  Gd  Gd35  1  0.55842425  0.86761909  0.11380813  1
  N  N36  1  0.22289659  0.20523041  0.33809947  1
  N  N37  1  0.11052558  0.09562015  0.08578520  1
  N  N38  1  0.89085594  0.20918429  0.83154576  1
  N  N39  1  0.78309298  0.09310064  0.59036446  1
  N  N40  1  0.55570627  0.20526336  0.36470288  1
  N  N41  1  0.41089405  0.11121079  0.06125106  1
  N  N42  1  0.21217859  0.21059059  0.82620735  1
  N  N43  1  0.10879595  0.09460219  0.57985609  1
  N  N44  1  0.88802526  0.20573356  0.33321936  1
  N  N45  1  0.81354743  0.07474941  0.07247494  1
  N  N46  1  0.55986046  0.20624849  0.83377142  1
  N  N47  1  0.43947717  0.09691456  0.60063057  1
  N  N48  1  0.22287164  0.53799221  0.33372480  1
  N  N49  1  0.11052450  0.42716913  0.08578305  1
  N  N50  1  0.89085695  0.53331131  0.83154238  1
  N  N51  1  0.77712122  0.42809312  0.57894862  1
  N  N52  1  0.55260650  0.54037476  0.33592415  1
  N  N53  1  0.42662891  0.45604977  0.07241581  1
  N  N54  1  0.21684048  0.54061941  0.83160329  1
  N  N55  1  0.10879766  0.42991316  0.57985721  1
  N  N56  1  0.88802707  0.53959366  0.33322146  1
  N  N57  1  0.77393782  0.42968049  0.08689958  1
  N  N58  1  0.55966998  0.53684255  0.82935380  1
  N  N59  1  0.44020043  0.43283347  0.59158775  1
  N  N60  1  0.22287571  0.87249174  0.33372255  1
  N  N61  1  0.11379228  0.75976272  0.08510300  1
  N  N62  1  0.89564084  0.86885530  0.82575518  1
  N  N63  1  0.78309390  0.75711367  0.59036231  1
  N  N64  1  0.55570631  0.87238168  0.36470285  1
  N  N65  1  0.42663753  0.75063163  0.07241554  1
  N  N66  1  0.21684360  0.87589868  0.83160711  1
  N  N67  1  0.11341099  0.75995184  0.57993736  1
  N  N68  1  0.88987399  0.87173955  0.33816861  1
  N  N69  1  0.81355058  0.74499957  0.07247636  1
  N  N70  1  0.55986254  0.86724488  0.83377234  1
  N  N71  1  0.44020063  0.76027348  0.59159290  1
