# generated using pymatgen
data_GdAl17N18
_symmetry_space_group_name_H-M   'P 1'
_cell_length_a   9.51113640
_cell_length_b   9.49323161
_cell_length_c   10.14333181
_cell_angle_alpha   90.00003094
_cell_angle_beta   90.08972063
_cell_angle_gamma   60.06233654
_symmetry_Int_Tables_number   1
_chemical_formula_structural   GdAl17N18
_chemical_formula_sum   'Gd2 Al34 N36'
_cell_volume   793.65087405
_cell_formula_units_Z   2
loop_
 _symmetry_equiv_pos_site_id
 _symmetry_equiv_pos_as_xyz
  1  'x, y, z'
loop_
 _atom_site_type_symbol
 _atom_site_label
 _atom_site_symmetry_multiplicity
 _atom_site_fract_x
 _atom_site_fract_y
 _atom_site_fract_z
 _atom_site_occupancy
  Al  Al0  1  0.11050078  0.09450489  0.40011542  1
  Al  Al1  1  0.21466637  0.20933369  0.15029028  1
  Al  Al2  1  0.78616074  0.09054333  0.89479176  1
  Al  Al3  1  0.89026478  0.20691975  0.65128887  1
  Al  Al4  1  0.44074444  0.09629435  0.41892901  1
  Al  Al5  1  0.11053359  0.09542795  0.90127578  1
  Al  Al6  1  0.21682190  0.20825566  0.65184431  1
  Al  Al7  1  0.78018243  0.09311340  0.41008665  1
  Al  Al8  1  0.89470927  0.20347663  0.14974697  1
  Al  Al9  1  0.43846827  0.09743284  0.88897398  1
  Al  Al10  1  0.55661555  0.20703896  0.65200369  1
  Al  Al11  1  0.11050074  0.42832735  0.40011540  1
  Al  Al12  1  0.21776870  0.54367645  0.14929921  1
  Al  Al13  1  0.77760766  0.42786270  0.90046657  1
  Al  Al14  1  0.89026474  0.53614848  0.65128885  1
  Al  Al15  1  0.44121024  0.43154592  0.41023393  1
  Al  Al16  1  0.54918989  0.54207209  0.14878768  1
  Al  Al17  1  0.11053344  0.42737188  0.90127579  1
  Al  Al18  1  0.21906140  0.54066934  0.65137103  1
  Al  Al19  1  0.77629411  0.42851934  0.39949450  1
  Al  Al20  1  0.89470900  0.53514726  0.14974704  1
  Al  Al21  1  0.44076931  0.43355725  0.89513040  1
  Al  Al22  1  0.55676129  0.53828605  0.65258953  1
  Al  Al23  1  0.11088568  0.76122369  0.39998086  1
  Al  Al24  1  0.21776899  0.87188829  0.14929929  1
  Al  Al25  1  0.78616078  0.75662903  0.89479178  1
  Al  Al26  1  0.89241487  0.87045910  0.65189793  1
  Al  Al27  1  0.44121037  0.76057694  0.41023381  1
  Al  Al28  1  0.11134987  0.76099177  0.90175690  1
  Al  Al29  1  0.21906156  0.87360238  0.65137105  1
  Al  Al30  1  0.78018245  0.76003699  0.41008670  1
  Al  Al31  1  0.90119391  0.86606962  0.14861718  1
  Al  Al32  1  0.44076956  0.75900710  0.89513058  1
  Al  Al33  1  0.55661556  0.86967887  0.65200376  1
  Gd  Gd34  1  0.55821605  0.20838674  0.15092282  1
  Gd  Gd35  1  0.55821610  0.86673229  0.15092282  1
  N  N36  1  0.22374034  0.20479643  0.34282279  1
  N  N37  1  0.11157590  0.09469372  0.09230921  1
  N  N38  1  0.89055896  0.20784551  0.83967622  1
  N  N39  1  0.78134726  0.09306389  0.59789243  1
  N  N40  1  0.55419667  0.20573543  0.37330361  1
  N  N41  1  0.41524928  0.10904276  0.07158134  1
  N  N42  1  0.21543667  0.20894845  0.83791124  1
  N  N43  1  0.11024068  0.09468003  0.58943387  1
  N  N44  1  0.88712809  0.20551337  0.34114124  1
  N  N45  1  0.81106661  0.07726768  0.08019801  1
  N  N46  1  0.55835753  0.20644882  0.84472536  1
  N  N47  1  0.44084783  0.09624263  0.60627049  1
  N  N48  1  0.22258882  0.53846212  0.34129669  1
  N  N49  1  0.11157560  0.42706381  0.09230922  1
  N  N50  1  0.89055886  0.53492882  0.83967617  1
  N  N51  1  0.77695178  0.42819045  0.58949370  1
  N  N52  1  0.55283201  0.54025059  0.34174839  1
  N  N53  1  0.42751267  0.45487964  0.08053340  1
  N  N54  1  0.21851769  0.54024075  0.83981290  1
  N  N55  1  0.11024064  0.42841222  0.58943384  1
  N  N56  1  0.88712805  0.54069153  0.34114132  1
  N  N57  1  0.77509140  0.42912061  0.09277770  1
  N  N58  1  0.55820267  0.53756560  0.83919462  1
  N  N59  1  0.44157651  0.43178671  0.59814325  1
  N  N60  1  0.22258888  0.87228225  0.34129672  1
  N  N61  1  0.11382493  0.75975427  0.09128142  1
  N  N62  1  0.89318180  0.87007575  0.83770457  1
  N  N63  1  0.78134727  0.75892162  0.59789247  1
  N  N64  1  0.55419674  0.87340115  0.37330360  1
  N  N65  1  0.42751326  0.75094170  0.08053375  1
  N  N66  1  0.21851794  0.87457495  0.83981300  1
  N  N67  1  0.11120845  0.76106227  0.58916388  1
  N  N68  1  0.88680632  0.87326334  0.34196731  1
  N  N69  1  0.81106668  0.74499843  0.08019802  1
  N  N70  1  0.55835752  0.86852763  0.84472548  1
  N  N71  1  0.44157661  0.75996985  0.59814319  1
