# generated using pymatgen
data_GdAl17N18
_symmetry_space_group_name_H-M   'P 1'
_cell_length_a   10.05099675
_cell_length_b   9.99922885
_cell_length_c   8.65864865
_cell_angle_alpha   89.99995456
_cell_angle_beta   90.00872084
_cell_angle_gamma   60.17041371
_symmetry_Int_Tables_number   1
_chemical_formula_structural   GdAl17N18
_chemical_formula_sum   'Gd2 Al34 N36'
_cell_volume   754.91767821
_cell_formula_units_Z   2
loop_
 _symmetry_equiv_pos_site_id
 _symmetry_equiv_pos_as_xyz
  1  'x, y, z'
loop_
 _atom_site_type_symbol
 _atom_site_label
 _atom_site_symmetry_multiplicity
 _atom_site_fract_x
 _atom_site_fract_y
 _atom_site_fract_z
 _atom_site_occupancy
  Al  Al0  1  0.10971912  0.09455876  0.36439649  1
  Al  Al1  1  0.21029610  0.21151855  0.11616732  1
  Al  Al2  1  0.78784836  0.08916256  0.85125444  1
  Al  Al3  1  0.89004301  0.20814661  0.61244718  1
  Al  Al4  1  0.43829620  0.09751489  0.37946439  1
  Al  Al5  1  0.10966732  0.09610947  0.86133472  1
  Al  Al6  1  0.21505815  0.20913784  0.61125581  1
  Al  Al7  1  0.78540648  0.09119946  0.37222575  1
  Al  Al8  1  0.89431459  0.20424532  0.11247138  1
  Al  Al9  1  0.43576639  0.09877913  0.84573976  1
  Al  Al10  1  0.55728635  0.20665007  0.60861210  1
  Al  Al11  1  0.10972092  0.42905609  0.36439694  1
  Al  Al12  1  0.21702871  0.54317183  0.11226867  1
  Al  Al13  1  0.77656846  0.42838657  0.86202365  1
  Al  Al14  1  0.89004367  0.53515229  0.61244681  1
  Al  Al15  1  0.43928035  0.43410837  0.37234843  1
  Al  Al16  1  0.55033842  0.54149448  0.11245699  1
  Al  Al17  1  0.10966931  0.42755675  0.86133332  1
  Al  Al18  1  0.21828993  0.54051047  0.61276018  1
  Al  Al19  1  0.77636871  0.42848681  0.36187091  1
  Al  Al20  1  0.89431695  0.53478178  0.11247060  1
  Al  Al21  1  0.43950713  0.43478754  0.85136890  1
  Al  Al22  1  0.55713665  0.53809603  0.61204447  1
  Al  Al23  1  0.11381938  0.75975633  0.36504452  1
  Al  Al24  1  0.21702447  0.87313447  0.11226944  1
  Al  Al25  1  0.78784601  0.75632964  0.85125464  1
  Al  Al26  1  0.89462716  0.86935588  0.61042900  1
  Al  Al27  1  0.43927641  0.75994020  0.37235384  1
  Al  Al28  1  0.11164443  0.76084373  0.86146916  1
  Al  Al29  1  0.21828530  0.87453528  0.61276116  1
  Al  Al30  1  0.78540527  0.75673432  0.37222352  1
  Al  Al31  1  0.90319895  0.86507090  0.11567098  1
  Al  Al32  1  0.43950200  0.75903308  0.85136834  1
  Al  Al33  1  0.55728510  0.86939202  0.60861243  1
  Gd  Gd34  1  0.55967395  0.20750193  0.10600636  1
  Gd  Gd35  1  0.55967098  0.86614429  0.10600649  1
  N  N36  1  0.21975767  0.20678820  0.35232335  1
  N  N37  1  0.11014060  0.09551465  0.09781332  1
  N  N38  1  0.89016130  0.20849535  0.84461873  1
  N  N39  1  0.78333254  0.09299815  0.60066409  1
  N  N40  1  0.55676838  0.20552272  0.37322605  1
  N  N41  1  0.41367546  0.10982171  0.08520044  1
  N  N42  1  0.21478932  0.20927195  0.83890252  1
  N  N43  1  0.10866681  0.09485319  0.59493377  1
  N  N44  1  0.88905582  0.20696756  0.34827092  1
  N  N45  1  0.81179850  0.07579663  0.09207098  1
  N  N46  1  0.55873823  0.20591012  0.83494907  1
  N  N47  1  0.43848224  0.09742291  0.60483600  1
  N  N48  1  0.22100456  0.53875538  0.34902112  1
  N  N49  1  0.11014297  0.42767820  0.09781261  1
  N  N50  1  0.89016246  0.53468446  0.84461955  1
  N  N51  1  0.77664967  0.42834663  0.59467303  1
  N  N52  1  0.55438782  0.53947130  0.35122234  1
  N  N53  1  0.42747675  0.45446875  0.09183162  1
  N  N54  1  0.21821768  0.53991010  0.84402465  1
  N  N55  1  0.10866814  0.42981439  0.59493529  1
  N  N56  1  0.88905807  0.53731674  0.34827102  1
  N  N57  1  0.77421844  0.42956301  0.09891404  1
  N  N58  1  0.55770590  0.53781039  0.84236832  1
  N  N59  1  0.43992978  0.43305456  0.60148054  1
  N  N60  1  0.22100179  0.87357478  0.34902084  1
  N  N61  1  0.11423006  0.75955065  0.09732364  1
  N  N62  1  0.89455824  0.86938979  0.83803346  1
  N  N63  1  0.78333071  0.75701088  0.60066301  1
  N  N64  1  0.55676579  0.87103560  0.37322633  1
  N  N65  1  0.42746936  0.75137930  0.09182455  1
  N  N66  1  0.21821218  0.87520847  0.84402287  1
  N  N67  1  0.11377330  0.75977909  0.59513092  1
  N  N68  1  0.89235313  0.87049336  0.35405460  1
  N  N69  1  0.81179546  0.74574822  0.09207377  1
  N  N70  1  0.55873693  0.86867747  0.83494876  1
  N  N71  1  0.43992595  0.76034510  0.60148244  1
