# generated using pymatgen
data_GdAl17N18
_symmetry_space_group_name_H-M   'P 1'
_cell_length_a   9.85986381
_cell_length_b   9.81465294
_cell_length_c   9.21353897
_cell_angle_alpha   90.00003593
_cell_angle_beta   89.97805044
_cell_angle_gamma   60.16380338
_symmetry_Int_Tables_number   1
_chemical_formula_structural   GdAl17N18
_chemical_formula_sum   'Gd2 Al34 N36'
_cell_volume   773.42357957
_cell_formula_units_Z   2
loop_
 _symmetry_equiv_pos_site_id
 _symmetry_equiv_pos_as_xyz
  1  'x, y, z'
loop_
 _atom_site_type_symbol
 _atom_site_label
 _atom_site_symmetry_multiplicity
 _atom_site_fract_x
 _atom_site_fract_y
 _atom_site_fract_z
 _atom_site_occupancy
  Al  Al0  1  0.10963293  0.09672665  0.33227274  1
  Al  Al1  1  0.21267743  0.21033541  0.08075247  1
  Al  Al2  1  0.78318484  0.09238530  0.82460515  1
  Al  Al3  1  0.89061853  0.20829096  0.58359591  1
  Al  Al4  1  0.43543623  0.09894422  0.35636419  1
  Al  Al5  1  0.10999305  0.09392362  0.83507291  1
  Al  Al6  1  0.21308541  0.21012932  0.58631143  1
  Al  Al7  1  0.78890355  0.08870839  0.34469914  1
  Al  Al8  1  0.89396234  0.20325737  0.08429995  1
  Al  Al9  1  0.43990226  0.09670876  0.81529156  1
  Al  Al10  1  0.55803572  0.20709325  0.59007549  1
  Al  Al11  1  0.10963302  0.42696763  0.33227615  1
  Al  Al12  1  0.21800746  0.54314539  0.08487043  1
  Al  Al13  1  0.77649127  0.42841702  0.83710265  1
  Al  Al14  1  0.89061913  0.53443300  0.58359690  1
  Al  Al15  1  0.43984946  0.43510225  0.34500992  1
  Al  Al16  1  0.54840445  0.54247024  0.08386067  1
  Al  Al17  1  0.10999293  0.42940894  0.83507014  1
  Al  Al18  1  0.21739558  0.54107102  0.58317537  1
  Al  Al19  1  0.77698137  0.42817071  0.33202711  1
  Al  Al20  1  0.89396211  0.53611741  0.08429877  1
  Al  Al21  1  0.43990160  0.43290106  0.82385510  1
  Al  Al22  1  0.55830451  0.53751739  0.58395170  1
  Al  Al23  1  0.11081415  0.76125616  0.33211248  1
  Al  Al24  1  0.21801269  0.87219218  0.08487271  1
  Al  Al25  1  0.78318533  0.75775286  0.82460632  1
  Al  Al26  1  0.89504756  0.86914698  0.58660914  1
  Al  Al27  1  0.43985267  0.75836983  0.34501474  1
  Al  Al28  1  0.11386899  0.75972852  0.83426358  1
  Al  Al29  1  0.21739454  0.87487926  0.58317337  1
  Al  Al30  1  0.78890454  0.75570733  0.34469743  1
  Al  Al31  1  0.90223041  0.86555419  0.08178152  1
  Al  Al32  1  0.43990204  0.76051946  0.82385206  1
  Al  Al33  1  0.55803722  0.86821085  0.59007437  1
  Gd  Gd34  1  0.55828705  0.20727329  0.09640688  1
  Gd  Gd35  1  0.55828849  0.86779953  0.09640750  1
  N  N36  1  0.21196764  0.21069387  0.38213333  1
  N  N37  1  0.11044707  0.09563941  0.12212925  1
  N  N38  1  0.88810772  0.20584692  0.87474131  1
  N  N39  1  0.78322357  0.09307650  0.61779005  1
  N  N40  1  0.55990174  0.20627687  0.37510264  1
  N  N41  1  0.41086268  0.11122690  0.14689228  1
  N  N42  1  0.22292699  0.20521327  0.86978179  1
  N  N43  1  0.10877031  0.09457156  0.62839902  1
  N  N44  1  0.89084837  0.20911859  0.37653833  1
  N  N45  1  0.81328088  0.07485236  0.13512088  1
  N  N46  1  0.55577205  0.20522273  0.84308044  1
  N  N47  1  0.43934284  0.09698376  0.60728819  1
  N  N48  1  0.21687227  0.54051822  0.37649397  1
  N  N49  1  0.11044662  0.42723158  0.12213120  1
  N  N50  1  0.88810946  0.53939526  0.87473960  1
  N  N51  1  0.77715777  0.42807745  0.62902577  1
  N  N52  1  0.55962797  0.53686138  0.37879967  1
  N  N53  1  0.42676733  0.45588704  0.13533434  1
  N  N54  1  0.22280758  0.53809132  0.87427152  1
  N  N55  1  0.10877191  0.42997333  0.62839795  1
  N  N56  1  0.89084938  0.53338217  0.37654116  1
  N  N57  1  0.77397858  0.42966381  0.12121293  1
  N  N58  1  0.55276450  0.54029383  0.87191397  1
  N  N59  1  0.44013887  0.43292075  0.61647337  1
  N  N60  1  0.21687436  0.87596417  0.37649088  1
  N  N61  1  0.11375906  0.75978061  0.12317132  1
  N  N62  1  0.89020813  0.87157111  0.86950121  1
  N  N63  1  0.78322422  0.75701227  0.61779203  1
  N  N64  1  0.55990350  0.86717066  0.37510199  1
  N  N65  1  0.42677347  0.75065878  0.13533544  1
  N  N66  1  0.22281084  0.87245314  0.87427343  1
  N  N67  1  0.11354354  0.75988713  0.62792247  1
  N  N68  1  0.89553703  0.86890588  0.38251833  1
  N  N69  1  0.81328313  0.74517055  0.13511956  1
  N  N70  1  0.55577180  0.87235279  0.84308045  1
  N  N71  1  0.44013866  0.76025175  0.61646870  1
