# generated using pymatgen
data_GdAl17N18
_symmetry_space_group_name_H-M   'P 1'
_cell_length_a   9.51112620
_cell_length_b   9.49322478
_cell_length_c   10.14332231
_cell_angle_alpha   90.00016262
_cell_angle_beta   90.08975906
_cell_angle_gamma   60.06276187
_symmetry_Int_Tables_number   1
_chemical_formula_structural   GdAl17N18
_chemical_formula_sum   'Gd2 Al34 N36'
_cell_volume   793.65210282
_cell_formula_units_Z   2
loop_
 _symmetry_equiv_pos_site_id
 _symmetry_equiv_pos_as_xyz
  1  'x, y, z'
loop_
 _atom_site_type_symbol
 _atom_site_label
 _atom_site_symmetry_multiplicity
 _atom_site_fract_x
 _atom_site_fract_y
 _atom_site_fract_z
 _atom_site_occupancy
  Al  Al0  1  0.11053822  0.09448554  0.38591763  1
  Al  Al1  1  0.21470314  0.20931634  0.13609230  1
  Al  Al2  1  0.78619857  0.09052360  0.88059346  1
  Al  Al3  1  0.89030220  0.20690006  0.63709021  1
  Al  Al4  1  0.44078208  0.09627514  0.40473099  1
  Al  Al5  1  0.11057121  0.09540920  0.88707681  1
  Al  Al6  1  0.21685971  0.20823656  0.63764557  1
  Al  Al7  1  0.78021985  0.09309356  0.39588783  1
  Al  Al8  1  0.89474737  0.20345684  0.13554865  1
  Al  Al9  1  0.43850529  0.09741584  0.87477801  1
  Al  Al10  1  0.55665308  0.20702015  0.63780609  1
  Al  Al11  1  0.11053797  0.42830795  0.38591753  1
  Al  Al12  1  0.21780523  0.54365871  0.13510135  1
  Al  Al13  1  0.77764469  0.42784348  0.88626794  1
  Al  Al14  1  0.89030197  0.53612919  0.63709008  1
  Al  Al15  1  0.44124751  0.43152661  0.39603575  1
  Al  Al16  1  0.54922712  0.54205533  0.13459093  1
  Al  Al17  1  0.11057036  0.42735344  0.88707689  1
  Al  Al18  1  0.21909888  0.54065024  0.63717224  1
  Al  Al19  1  0.77633165  0.42849925  0.38529730  1
  Al  Al20  1  0.89474572  0.53512787  0.13554902  1
  Al  Al21  1  0.44080596  0.43354013  0.88093230  1
  Al  Al22  1  0.55679843  0.53826762  0.63839090  1
  Al  Al23  1  0.11092360  0.76120417  0.38578336  1
  Al  Al24  1  0.21780700  0.87187008  0.13510183  1
  Al  Al25  1  0.78619884  0.75660965  0.88059357  1
  Al  Al26  1  0.89245238  0.87043967  0.63769854  1
  Al  Al27  1  0.44124821  0.76055795  0.39603508  1
  Al  Al28  1  0.11138737  0.76097322  0.88755798  1
  Al  Al29  1  0.21909977  0.87358317  0.63717244  1
  Al  Al30  1  0.78021999  0.76001690  0.39588808  1
  Al  Al31  1  0.90123212  0.86604999  0.13441999  1
  Al  Al32  1  0.44080744  0.75898911  0.88093340  1
  Al  Al33  1  0.55665311  0.86966043  0.63780645  1
  Gd  Gd34  1  0.55825395  0.20837225  0.13672479  1
  Gd  Gd35  1  0.55825438  0.86671744  0.13672483  1
  N  N36  1  0.22377783  0.20477751  0.32862575  1
  N  N37  1  0.11161355  0.09467477  0.07811133  1
  N  N38  1  0.89059674  0.20782638  0.82547824  1
  N  N39  1  0.78138421  0.09304406  0.58369424  1
  N  N40  1  0.55423447  0.20571644  0.35910570  1
  N  N41  1  0.41528607  0.10902792  0.05738533  1
  N  N42  1  0.21547471  0.20893006  0.82371318  1
  N  N43  1  0.11027790  0.09466044  0.57523636  1
  N  N44  1  0.88716596  0.20549380  0.32694354  1
  N  N45  1  0.81110422  0.07724707  0.06600046  1
  N  N46  1  0.55839525  0.20643136  0.83052855  1
  N  N47  1  0.44088531  0.09622331  0.59207285  1
  N  N48  1  0.22262635  0.53844312  0.32709935  1
  N  N49  1  0.11161180  0.42704556  0.07811142  1
  N  N50  1  0.89059619  0.53490991  0.82547798  1
  N  N51  1  0.77698889  0.42817033  0.57529641  1
  N  N52  1  0.55286987  0.54023135  0.32755156  1
  N  N53  1  0.42754824  0.45486429  0.06633569  1
  N  N54  1  0.21855505  0.54022249  0.82561464  1
  N  N55  1  0.11027764  0.42839276  0.57523616  1
  N  N56  1  0.88716575  0.54067161  0.32694394  1
  N  N57  1  0.77512807  0.42910037  0.07858023  1
  N  N58  1  0.55823998  0.53754829  0.82499682  1
  N  N59  1  0.44161372  0.43176722  0.58394549  1
  N  N60  1  0.22262669  0.87226328  0.32709954  1
  N  N61  1  0.11386240  0.75973588  0.07708360  1
  N  N62  1  0.89321981  0.87005668  0.82350576  1
  N  N63  1  0.78138426  0.75890173  0.58369447  1
  N  N64  1  0.55423484  0.87338222  0.35910570  1
  N  N65  1  0.42755184  0.75092480  0.06633781  1
  N  N66  1  0.21855653  0.87455625  0.82561522  1
  N  N67  1  0.11124609  0.76104269  0.57496630  1
  N  N68  1  0.88684470  0.87324334  0.32777029  1
  N  N69  1  0.81110472  0.74497813  0.06600055  1
  N  N70  1  0.55839520  0.86851060  0.83052927  1
  N  N71  1  0.44161430  0.75995078  0.58394519  1
