# generated using pymatgen
data_GdAl17N18
_symmetry_space_group_name_H-M   'P 1'
_cell_length_a   9.88431748
_cell_length_b   9.83817812
_cell_length_c   9.14336992
_cell_angle_alpha   90.00003441
_cell_angle_beta   89.98135646
_cell_angle_gamma   60.16475674
_symmetry_Int_Tables_number   1
_chemical_formula_structural   GdAl17N18
_chemical_formula_sum   'Gd2 Al34 N36'
_cell_volume   771.28854753
_cell_formula_units_Z   2
loop_
 _symmetry_equiv_pos_site_id
 _symmetry_equiv_pos_as_xyz
  1  'x, y, z'
loop_
 _atom_site_type_symbol
 _atom_site_label
 _atom_site_symmetry_multiplicity
 _atom_site_fract_x
 _atom_site_fract_y
 _atom_site_fract_z
 _atom_site_occupancy
  Al  Al0  1  0.10961452  0.09673178  0.33344763  1
  Al  Al1  1  0.21248156  0.21043228  0.08157944  1
  Al  Al2  1  0.78345415  0.09229832  0.82558698  1
  Al  Al3  1  0.89060791  0.20832403  0.58470058  1
  Al  Al4  1  0.43539259  0.09896591  0.35748583  1
  Al  Al5  1  0.10996562  0.09392458  0.83601873  1
  Al  Al6  1  0.21309582  0.21012340  0.58749515  1
  Al  Al7  1  0.78883499  0.08870411  0.34611451  1
  Al  Al8  1  0.89394989  0.20332447  0.08532144  1
  Al  Al9  1  0.43974283  0.09678898  0.81629115  1
  Al  Al10  1  0.55801520  0.20706401  0.59150220  1
  Al  Al11  1  0.10961498  0.42698165  0.33345085  1
  Al  Al12  1  0.21796936  0.54312834  0.08590787  1
  Al  Al13  1  0.77650650  0.42841061  0.83811817  1
  Al  Al14  1  0.89060852  0.53441065  0.58470131  1
  Al  Al15  1  0.43984982  0.43506677  0.34642233  1
  Al  Al16  1  0.54854511  0.54239868  0.08486273  1
  Al  Al17  1  0.10996574  0.42943665  0.83601610  1
  Al  Al18  1  0.21738277  0.54104678  0.58426606  1
  Al  Al19  1  0.77693603  0.42819482  0.33314469  1
  Al  Al20  1  0.89395019  0.53606381  0.08532048  1
  Al  Al21  1  0.43977164  0.43308601  0.82483657  1
  Al  Al22  1  0.55829715  0.53752035  0.58512862  1
  Al  Al23  1  0.11081003  0.76125858  0.33335309  1
  Al  Al24  1  0.21797317  0.87224588  0.08590988  1
  Al  Al25  1  0.78345439  0.75757288  0.82558829  1
  Al  Al26  1  0.89509745  0.86912189  0.58788588  1
  Al  Al27  1  0.43985166  0.75840574  0.34642714  1
  Al  Al28  1  0.11399108  0.75966786  0.83513532  1
  Al  Al29  1  0.21738108  0.87491507  0.58426443  1
  Al  Al30  1  0.78883543  0.75578350  0.34611282  1
  Al  Al31  1  0.90228375  0.86552786  0.08256965  1
  Al  Al32  1  0.43977149  0.76046544  0.82483328  1
  Al  Al33  1  0.55801636  0.86825888  0.59150128  1
  Gd  Gd34  1  0.55837966  0.20726846  0.09746422  1
  Gd  Gd35  1  0.55838011  0.86770533  0.09746470  1
  N  N36  1  0.21205346  0.21064921  0.38123781  1
  N  N37  1  0.11040882  0.09566436  0.12103928  1
  N  N38  1  0.88819438  0.20592476  0.87355564  1
  N  N39  1  0.78328708  0.09309285  0.61671919  1
  N  N40  1  0.55986142  0.20624850  0.37488680  1
  N  N41  1  0.41103183  0.11114230  0.14523662  1
  N  N42  1  0.22274231  0.20530415  0.86847136  1
  N  N43  1  0.10872607  0.09457942  0.62731379  1
  N  N44  1  0.89081419  0.20911623  0.37546196  1
  N  N45  1  0.81313584  0.07489628  0.13365900  1
  N  N46  1  0.55585906  0.20523853  0.84188178  1
  N  N47  1  0.43922150  0.09704580  0.60653483  1
  N  N48  1  0.21689293  0.54048432  0.37545950  1
  N  N49  1  0.11040889  0.42724727  0.12104119  1
  N  N50  1  0.88819620  0.53922926  0.87355425  1
  N  N51  1  0.77714796  0.42808465  0.62793810  1
  N  N52  1  0.55957490  0.53688601  0.37781545  1
  N  N53  1  0.42686150  0.45573317  0.13394085  1
  N  N54  1  0.22270302  0.53813178  0.87306874  1
  N  N55  1  0.10872769  0.43001261  0.62731260  1
  N  N56  1  0.89081522  0.53341752  0.37546428  1
  N  N57  1  0.77398590  0.42966329  0.12007887  1
  N  N58  1  0.55284305  0.54025299  0.87058818  1
  N  N59  1  0.44006565  0.43298158  0.61537906  1
  N  N60  1  0.21689377  0.87597463  0.37545709  1
  N  N61  1  0.11376148  0.75978024  0.12210895  1
  N  N62  1  0.89043160  0.87145858  0.86798590  1
  N  N63  1  0.78328740  0.75693685  0.61672115  1
  N  N64  1  0.55986276  0.86723547  0.37488640  1
  N  N65  1  0.42686520  0.75072006  0.13394303  1
  N  N66  1  0.22270548  0.87251454  0.87307033  1
  N  N67  1  0.11365270  0.75983362  0.62677674  1
  N  N68  1  0.89551449  0.86891634  0.38168475  1
  N  N69  1  0.81313714  0.74527823  0.13365755  1
  N  N70  1  0.55585842  0.87224676  0.84188171  1
  N  N71  1  0.44006489  0.76026697  0.61537457  1
