# generated using pymatgen
data_GdAl17N18
_symmetry_space_group_name_H-M   'P 1'
_cell_length_a   9.51113000
_cell_length_b   9.49322848
_cell_length_c   10.14333566
_cell_angle_alpha   90.00011096
_cell_angle_beta   90.08979088
_cell_angle_gamma   60.06255348
_symmetry_Int_Tables_number   1
_chemical_formula_structural   GdAl17N18
_chemical_formula_sum   'Gd2 Al34 N36'
_cell_volume   793.65210949
_cell_formula_units_Z   2
loop_
 _symmetry_equiv_pos_site_id
 _symmetry_equiv_pos_as_xyz
  1  'x, y, z'
loop_
 _atom_site_type_symbol
 _atom_site_label
 _atom_site_symmetry_multiplicity
 _atom_site_fract_x
 _atom_site_fract_y
 _atom_site_fract_z
 _atom_site_occupancy
  Al  Al0  1  0.11053335  0.09448829  0.38770798  1
  Al  Al1  1  0.21469895  0.20931800  0.13788512  1
  Al  Al2  1  0.78619366  0.09052645  0.88238766  1
  Al  Al3  1  0.89029773  0.20690287  0.63888177  1
  Al  Al4  1  0.44077719  0.09627773  0.40652859  1
  Al  Al5  1  0.11056633  0.09541161  0.88886914  1
  Al  Al6  1  0.21685485  0.20823905  0.63943880  1
  Al  Al7  1  0.78021493  0.09309649  0.39768272  1
  Al  Al8  1  0.89474242  0.20345986  0.13733963  1
  Al  Al9  1  0.43850106  0.09741732  0.87657602  1
  Al  Al10  1  0.55664817  0.20702257  0.63960301  1
  Al  Al11  1  0.11053320  0.42831061  0.38770792  1
  Al  Al12  1  0.21780092  0.54366049  0.13689281  1
  Al  Al13  1  0.77764047  0.42784592  0.88805944  1
  Al  Al14  1  0.89029758  0.53613151  0.63888169  1
  Al  Al15  1  0.44124271  0.43152943  0.39783090  1
  Al  Al16  1  0.54922253  0.54205683  0.13638276  1
  Al  Al17  1  0.11056578  0.42735574  0.88886919  1
  Al  Al18  1  0.21909379  0.54065302  0.63896446  1
  Al  Al19  1  0.77632649  0.42850240  0.38708786  1
  Al  Al20  1  0.89474136  0.53513034  0.13733987  1
  Al  Al21  1  0.44080151  0.43354165  0.88272752  1
  Al  Al22  1  0.55679383  0.53826985  0.64018569  1
  Al  Al23  1  0.11091845  0.76120697  0.38757334  1
  Al  Al24  1  0.21780203  0.87187237  0.13689312  1
  Al  Al25  1  0.78619382  0.75661232  0.88238774  1
  Al  Al26  1  0.89244804  0.87044213  0.63949166  1
  Al  Al27  1  0.44124316  0.76056033  0.39783047  1
  Al  Al28  1  0.11138245  0.76097560  0.88935067  1
  Al  Al29  1  0.21909436  0.87358581  0.63896459  1
  Al  Al30  1  0.78021501  0.76001996  0.39768288  1
  Al  Al31  1  0.90122684  0.86605288  0.13621162  1
  Al  Al32  1  0.44080244  0.75899140  0.88272823  1
  Al  Al33  1  0.55664817  0.86966277  0.63960325  1
  Gd  Gd34  1  0.55825007  0.20837312  0.13852232  1
  Gd  Gd35  1  0.55825029  0.86671677  0.13852234  1
  N  N36  1  0.22377358  0.20477967  0.33041847  1
  N  N37  1  0.11160903  0.09467734  0.07990369  1
  N  N38  1  0.89059185  0.20782876  0.82727031  1
  N  N39  1  0.78137940  0.09304700  0.58548876  1
  N  N40  1  0.55422908  0.20571897  0.36090255  1
  N  N41  1  0.41528376  0.10902759  0.05918255  1
  N  N42  1  0.21547076  0.20893175  0.82550721  1
  N  N43  1  0.11027348  0.09466321  0.57702763  1
  N  N44  1  0.88716030  0.20549652  0.32873512  1
  N  N45  1  0.81109902  0.07725046  0.06779383  1
  N  N46  1  0.55839017  0.20643305  0.83232455  1
  N  N47  1  0.44088092  0.09622577  0.59386953  1
  N  N48  1  0.22262196  0.53844531  0.32889112  1
  N  N49  1  0.11160789  0.42704739  0.07990374  1
  N  N50  1  0.89059149  0.53491254  0.82727015  1
  N  N51  1  0.77698383  0.42817355  0.57708797  1
  N  N52  1  0.55286436  0.54023419  0.32934414  1
  N  N53  1  0.42754469  0.45486453  0.06812996  1
  N  N54  1  0.21855045  0.54022465  0.82740752  1
  N  N55  1  0.11027331  0.42839520  0.57702751  1
  N  N56  1  0.88716017  0.54067519  0.32873538  1
  N  N57  1  0.77512367  0.42910346  0.08037198  1
  N  N58  1  0.55823500  0.53755018  0.82679128  1
  N  N59  1  0.44160927  0.43176980  0.58574046  1
  N  N60  1  0.22262216  0.87226560  0.32889125  1
  N  N61  1  0.11385756  0.75973817  0.07887616  1
  N  N62  1  0.89321459  0.87005931  0.82529922  1
  N  N63  1  0.78137942  0.75890483  0.58548891  1
  N  N64  1  0.55422931  0.87338504  0.36090254  1
  N  N65  1  0.42754695  0.75092674  0.06813132  1
  N  N66  1  0.21855138  0.87455848  0.82740789  1
  N  N67  1  0.11124117  0.76104548  0.57675729  1
  N  N68  1  0.88683846  0.87324678  0.32956258  1
  N  N69  1  0.81109930  0.74498149  0.06779390  1
  N  N70  1  0.55839012  0.86851258  0.83232502  1
  N  N71  1  0.44160964  0.75995324  0.58574025  1
