# generated using pymatgen
data_GdAl17N18
_symmetry_space_group_name_H-M   'P 1'
_cell_length_a   9.86025833
_cell_length_b   9.81480833
_cell_length_c   9.21262460
_cell_angle_alpha   89.99995796
_cell_angle_beta   90.02987994
_cell_angle_gamma   60.16501708
_symmetry_Int_Tables_number   1
_chemical_formula_structural   GdAl17N18
_chemical_formula_sum   'Gd2 Al34 N36'
_cell_volume   773.39934367
_cell_formula_units_Z   2
loop_
 _symmetry_equiv_pos_site_id
 _symmetry_equiv_pos_as_xyz
  1  'x, y, z'
loop_
 _atom_site_type_symbol
 _atom_site_label
 _atom_site_symmetry_multiplicity
 _atom_site_fract_x
 _atom_site_fract_y
 _atom_site_fract_z
 _atom_site_occupancy
  Al  Al0  1  0.10991251  0.09397008  0.37418676  1
  Al  Al1  1  0.21263037  0.21035916  0.12841063  1
  Al  Al2  1  0.78895862  0.08865754  0.86420534  1
  Al  Al3  1  0.89055546  0.20840742  0.62553434  1
  Al  Al4  1  0.43985453  0.09673222  0.39338574  1
  Al  Al5  1  0.10967822  0.09671558  0.87668337  1
  Al  Al6  1  0.21330090  0.21002168  0.62276933  1
  Al  Al7  1  0.78314767  0.09242772  0.38461904  1
  Al  Al8  1  0.89405878  0.20316263  0.12471298  1
  Al  Al9  1  0.43552315  0.09890030  0.85318360  1
  Al  Al10  1  0.55791404  0.20703623  0.61896209  1
  Al  Al11  1  0.10991246  0.42944284  0.37418975  1
  Al  Al12  1  0.21802570  0.54303947  0.12422926  1
  Al  Al13  1  0.77693924  0.42819193  0.87721136  1
  Al  Al14  1  0.89055611  0.53438054  0.62553344  1
  Al  Al15  1  0.43986391  0.43290474  0.38529106  1
  Al  Al16  1  0.54826799  0.54253844  0.12522175  1
  Al  Al17  1  0.10967853  0.42693309  0.87667972  1
  Al  Al18  1  0.21733417  0.54116801  0.62589848  1
  Al  Al19  1  0.77645553  0.42843511  0.37178449  1
  Al  Al20  1  0.89405864  0.53611658  0.12471405  1
  Al  Al21  1  0.43981566  0.43511908  0.86396313  1
  Al  Al22  1  0.55833851  0.53750037  0.62509713  1
  Al  Al23  1  0.11385677  0.75973439  0.37460418  1
  Al  Al24  1  0.21803081  0.87228016  0.12422692  1
  Al  Al25  1  0.78895938  0.75570339  0.86420729  1
  Al  Al26  1  0.89513464  0.86910373  0.62242161  1
  Al  Al27  1  0.43986406  0.76055286  0.38529455  1
  Al  Al28  1  0.11081917  0.76125343  0.87718345  1
  Al  Al29  1  0.21733266  0.87484421  0.62590050  1
  Al  Al30  1  0.78314811  0.75774776  0.38461768  1
  Al  Al31  1  0.90219498  0.86557232  0.12733612  1
  Al  Al32  1  0.43981852  0.75838613  0.86395768  1
  Al  Al33  1  0.55791550  0.86838955  0.61896321  1
  Gd  Gd34  1  0.55851959  0.20732423  0.11266540  1
  Gd  Gd35  1  0.55852059  0.86751597  0.11266478  1
  N  N36  1  0.22270006  0.20532711  0.33940374  1
  N  N37  1  0.11048448  0.09565338  0.08684006  1
  N  N38  1  0.89082894  0.20921362  0.83258325  1
  N  N39  1  0.78317954  0.09311793  0.59145377  1
  N  N40  1  0.55580086  0.20528647  0.36598433  1
  N  N41  1  0.41105951  0.11112772  0.06286312  1
  N  N42  1  0.21225321  0.21055136  0.82704644  1
  N  N43  1  0.10873632  0.09460769  0.58088092  1
  N  N44  1  0.88810298  0.20579060  0.33432856  1
  N  N45  1  0.81343789  0.07475880  0.07378496  1
  N  N46  1  0.55983187  0.20621116  0.83402177  1
  N  N47  1  0.43934568  0.09698180  0.60143717  1
  N  N48  1  0.22279346  0.53800949  0.33485804  1
  N  N49  1  0.11048409  0.42717967  0.08683790  1
  N  N50  1  0.89083002  0.53330779  0.83258046  1
  N  N51  1  0.77711893  0.42809691  0.57990819  1
  N  N52  1  0.55264970  0.54035150  0.33719572  1
  N  N53  1  0.42671383  0.45591521  0.07366771  1
  N  N54  1  0.21682177  0.54061139  0.83259879  1
  N  N55  1  0.10873811  0.42997057  0.58088221  1
  N  N56  1  0.88810496  0.53945737  0.33433025  1
  N  N57  1  0.77393049  0.42968783  0.08804625  1
  N  N58  1  0.55966700  0.53684193  0.83027621  1
  N  N59  1  0.44010775  0.43291668  0.59270931  1
  N  N60  1  0.22279665  0.87254969  0.33485614  1
  N  N61  1  0.11378190  0.75976883  0.08618311  1
  N  N62  1  0.89566373  0.86884296  0.82650628  1
  N  N63  1  0.78318005  0.75701480  0.59145159  1
  N  N64  1  0.55580042  0.87226034  0.36598440  1
  N  N65  1  0.42671947  0.75068274  0.07366598  1
  N  N66  1  0.21682342  0.87592237  0.83260185  1
  N  N67  1  0.11353666  0.75989018  0.58096572  1
  N  N68  1  0.89007294  0.87163923  0.33965010  1
  N  N69  1  0.81343984  0.74510710  0.07378654  1
  N  N70  1  0.55983349  0.86730634  0.83402239  1
  N  N71  1  0.44010727  0.76028605  0.59271444  1
