# generated using pymatgen
data_GdAl17N18
_symmetry_space_group_name_H-M   'P 1'
_cell_length_a   9.51113901
_cell_length_b   9.49323322
_cell_length_c   10.14332830
_cell_angle_alpha   90.00001206
_cell_angle_beta   90.08970768
_cell_angle_gamma   60.06228995
_symmetry_Int_Tables_number   1
_chemical_formula_structural   GdAl17N18
_chemical_formula_sum   'Gd2 Al34 N36'
_cell_volume   793.65057990
_cell_formula_units_Z   2
loop_
 _symmetry_equiv_pos_site_id
 _symmetry_equiv_pos_as_xyz
  1  'x, y, z'
loop_
 _atom_site_type_symbol
 _atom_site_label
 _atom_site_symmetry_multiplicity
 _atom_site_fract_x
 _atom_site_fract_y
 _atom_site_fract_z
 _atom_site_occupancy
  Al  Al0  1  0.11048056  0.09451507  0.40775015  1
  Al  Al1  1  0.21464638  0.20934355  0.15792523  1
  Al  Al2  1  0.78614068  0.09055345  0.90242671  1
  Al  Al3  1  0.89024460  0.20692999  0.65892376  1
  Al  Al4  1  0.44072425  0.09630450  0.42656404  1
  Al  Al5  1  0.11051347  0.09543802  0.90891077  1
  Al  Al6  1  0.21680167  0.20826580  0.65947924  1
  Al  Al7  1  0.78016220  0.09312366  0.41772168  1
  Al  Al8  1  0.89468911  0.20348681  0.15738178  1
  Al  Al9  1  0.43844819  0.09744269  0.89660884  1
  Al  Al10  1  0.55659537  0.20704906  0.65963876  1
  Al  Al11  1  0.11048055  0.42833756  0.40775015  1
  Al  Al12  1  0.21774872  0.54368635  0.15693400  1
  Al  Al13  1  0.77758762  0.42787280  0.90810148  1
  Al  Al14  1  0.89024458  0.53615862  0.65892375  1
  Al  Al15  1  0.44119007  0.43155608  0.41786889  1
  Al  Al16  1  0.54916980  0.54208190  0.15642238  1
  Al  Al17  1  0.11051340  0.42738187  0.90891078  1
  Al  Al18  1  0.21904120  0.54067949  0.65900597  1
  Al  Al19  1  0.77627386  0.42852962  0.40712913  1
  Al  Al20  1  0.89468901  0.53515734  0.15738181  1
  Al  Al21  1  0.44074928  0.43356712  0.90276542  1
  Al  Al22  1  0.55674114  0.53829611  0.66022458  1
  Al  Al23  1  0.11086543  0.76123389  0.40761553  1
  Al  Al24  1  0.21774883  0.87189830  0.15693404  1
  Al  Al25  1  0.78614070  0.75663910  0.90242671  1
  Al  Al26  1  0.89239472  0.87046925  0.65953292  1
  Al  Al27  1  0.44119013  0.76058709  0.41786884  1
  Al  Al28  1  0.11132978  0.76100179  0.90939189  1
  Al  Al29  1  0.21904127  0.87361255  0.65900597  1
  Al  Al30  1  0.78016221  0.76004728  0.41772170  1
  Al  Al31  1  0.90117380  0.86607973  0.15625190  1
  Al  Al32  1  0.44074938  0.75901707  0.90276549  1
  Al  Al33  1  0.55659537  0.86968893  0.65963878  1
  Gd  Gd34  1  0.55819603  0.20839621  0.15855763  1
  Gd  Gd35  1  0.55819604  0.86674178  0.15855763  1
  N  N36  1  0.22372017  0.20480655  0.35045768  1
  N  N37  1  0.11155580  0.09470382  0.09994414  1
  N  N38  1  0.89053884  0.20785561  0.84731112  1
  N  N39  1  0.78132709  0.09307414  0.60552743  1
  N  N40  1  0.55417643  0.20574557  0.38093854  1
  N  N41  1  0.41522929  0.10905231  0.07921620  1
  N  N42  1  0.21541654  0.20895844  0.84554620  1
  N  N43  1  0.11022050  0.09469024  0.59706869  1
  N  N44  1  0.88710782  0.20552358  0.34877606  1
  N  N45  1  0.81104664  0.07727786  0.08783287  1
  N  N46  1  0.55833743  0.20645870  0.85236037  1
  N  N47  1  0.44082768  0.09625278  0.61390553  1
  N  N48  1  0.22256863  0.53847224  0.34893149  1
  N  N49  1  0.11155568  0.42707374  0.09994415  1
  N  N50  1  0.89053879  0.53493886  0.84731110  1
  N  N51  1  0.77693158  0.42820074  0.59712849  1
  N  N52  1  0.55281173  0.54026077  0.34938318  1
  N  N53  1  0.42749280  0.45488926  0.08816839  1
  N  N54  1  0.21849761  0.54025073  0.84744789  1
  N  N55  1  0.11022048  0.42842242  0.59706868  1
  N  N56  1  0.88710780  0.54070180  0.34877610  1
  N  N57  1  0.77507137  0.42913084  0.10041258  1
  N  N58  1  0.55818257  0.53757549  0.84682965  1
  N  N59  1  0.44155636  0.43179686  0.60577824  1
  N  N60  1  0.22256867  0.87229239  0.34893151  1
  N  N61  1  0.11380489  0.75976425  0.09891632  1
  N  N62  1  0.89316168  0.87008582  0.84533957  1
  N  N63  1  0.78132710  0.75893187  0.60552745  1
  N  N64  1  0.55417646  0.87341131  0.38093854  1
  N  N65  1  0.42749303  0.75095154  0.08816852  1
  N  N66  1  0.21849772  0.87458501  0.84744792  1
  N  N67  1  0.11118826  0.76107247  0.59679868  1
  N  N68  1  0.88678599  0.87327361  0.34960212  1
  N  N69  1  0.81104666  0.74500859  0.08783287  1
  N  N70  1  0.55833742  0.86853747  0.85236041  1
  N  N71  1  0.44155641  0.75998000  0.60577821  1
