# generated using pymatgen
data_GdAl17N18
_symmetry_space_group_name_H-M   'P 1'
_cell_length_a   9.51113220
_cell_length_b   9.49322904
_cell_length_c   10.14333262
_cell_angle_alpha   90.00006927
_cell_angle_beta   90.08974632
_cell_angle_gamma   60.06244733
_symmetry_Int_Tables_number   1
_chemical_formula_structural   GdAl17N18
_chemical_formula_sum   'Gd2 Al34 N36'
_cell_volume   793.65125584
_cell_formula_units_Z   2
loop_
 _symmetry_equiv_pos_site_id
 _symmetry_equiv_pos_as_xyz
  1  'x, y, z'
loop_
 _atom_site_type_symbol
 _atom_site_label
 _atom_site_symmetry_multiplicity
 _atom_site_fract_x
 _atom_site_fract_y
 _atom_site_fract_z
 _atom_site_occupancy
  Al  Al0  1  0.11052027  0.09449498  0.39275511  1
  Al  Al1  1  0.21468558  0.20932437  0.14292958  1
  Al  Al2  1  0.78618016  0.09053340  0.88743096  1
  Al  Al3  1  0.89028423  0.20690971  0.64392820  1
  Al  Al4  1  0.44076389  0.09628451  0.41156813  1
  Al  Al5  1  0.11055308  0.09541820  0.89391487  1
  Al  Al6  1  0.21684151  0.20824579  0.64448352  1
  Al  Al7  1  0.78020195  0.09310333  0.40272572  1
  Al  Al8  1  0.89472887  0.20346663  0.14238643  1
  Al  Al9  1  0.43848766  0.09742358  0.88161366  1
  Al  Al10  1  0.55663502  0.20702920  0.64464280  1
  Al  Al11  1  0.11052017  0.42831739  0.39275507  1
  Al  Al12  1  0.21778785  0.54366705  0.14193878  1
  Al  Al13  1  0.77762695  0.42785286  0.89310586  1
  Al  Al14  1  0.89028414  0.53613862  0.64392815  1
  Al  Al15  1  0.44122965  0.43153606  0.40287314  1
  Al  Al16  1  0.54920927  0.54206292  0.14142750  1
  Al  Al17  1  0.11055274  0.42736226  0.89391491  1
  Al  Al18  1  0.21908090  0.54065950  0.64401024  1
  Al  Al19  1  0.77631365  0.42850919  0.39213441  1
  Al  Al20  1  0.89472821  0.53513738  0.14238658  1
  Al  Al21  1  0.44078854  0.43354797  0.88776956  1
  Al  Al22  1  0.55678065  0.53827640  0.64522860  1
  Al  Al23  1  0.11090526  0.76121374  0.39262067  1
  Al  Al24  1  0.21778855  0.87187870  0.14193898  1
  Al  Al25  1  0.78618026  0.75661919  0.88743101  1
  Al  Al26  1  0.89243428  0.87044920  0.64453697  1
  Al  Al27  1  0.44122993  0.76056709  0.40287287  1
  Al  Al28  1  0.11136927  0.76098212  0.89439601  1
  Al  Al29  1  0.21908126  0.87359248  0.64401031  1
  Al  Al30  1  0.78020200  0.76002683  0.40272583  1
  Al  Al31  1  0.90121347  0.86605970  0.14125692  1
  Al  Al32  1  0.44078913  0.75899759  0.88777000  1
  Al  Al33  1  0.55663503  0.86966923  0.64464295  1
  Gd  Gd34  1  0.55823549  0.20837826  0.14356228  1
  Gd  Gd35  1  0.55823564  0.86672373  0.14356229  1
  N  N36  1  0.22375974  0.20478667  0.33546235  1
  N  N37  1  0.11159536  0.09468392  0.08494859  1
  N  N38  1  0.89057845  0.20783568  0.83231564  1
  N  N39  1  0.78136665  0.09305382  0.59053164  1
  N  N40  1  0.55421624  0.20572563  0.36594301  1
  N  N41  1  0.41526853  0.10903415  0.06422106  1
  N  N42  1  0.21545626  0.20893882  0.83055052  1
  N  N43  1  0.11026010  0.09467005  0.58207350  1
  N  N44  1  0.88714770  0.20550341  0.33378082  1
  N  N45  1  0.81108593  0.07725755  0.07283749  1
  N  N46  1  0.55837699  0.20643950  0.83736473  1
  N  N47  1  0.44086724  0.09623276  0.59890968  1
  N  N48  1  0.22260825  0.53845233  0.33393635  1
  N  N49  1  0.11159465  0.42705429  0.08494862  1
  N  N50  1  0.89057822  0.53491908  0.83231554  1
  N  N51  1  0.77697121  0.42818030  0.58213342  1
  N  N52  1  0.55285164  0.54024067  0.33438811  1
  N  N53  1  0.42753156  0.45487090  0.07317274  1
  N  N54  1  0.21853706  0.54023120  0.83245216  1
  N  N55  1  0.11025999  0.42840226  0.58207343  1
  N  N56  1  0.88714762  0.54068141  0.33378099  1
  N  N57  1  0.77511063  0.42911048  0.08541722  1
  N  N58  1  0.55822205  0.53755628  0.83183388  1
  N  N59  1  0.44159587  0.43177682  0.59078253  1
  N  N60  1  0.22260839  0.87227245  0.33393643  1
  N  N61  1  0.11384428  0.75974470  0.08392086  1
  N  N62  1  0.89320129  0.87006598  0.83034370  1
  N  N63  1  0.78136667  0.75891153  0.59053173  1
  N  N64  1  0.55421639  0.87339132  0.36594300  1
  N  N65  1  0.42753299  0.75093251  0.07317359  1
  N  N66  1  0.21853765  0.87456523  0.83245239  1
  N  N67  1  0.11122792  0.76105232  0.58180350  1
  N  N68  1  0.88682606  0.87325323  0.33460698  1
  N  N69  1  0.81108612  0.74498835  0.07283753  1
  N  N70  1  0.55837696  0.86851840  0.83736502  1
  N  N71  1  0.44159611  0.75995999  0.59078240  1
