# generated using pymatgen
data_GdAl17N18
_symmetry_space_group_name_H-M   'P 1'
_cell_length_a   9.67536660
_cell_length_b   9.63926800
_cell_length_c   9.72680970
_cell_angle_alpha   90.00011201
_cell_angle_beta   90.04980829
_cell_angle_gamma   60.15161676
_symmetry_Int_Tables_number   1
_chemical_formula_structural   GdAl17N18
_chemical_formula_sum   'Gd2 Al34 N36'
_cell_volume   786.81712531
_cell_formula_units_Z   2
loop_
 _symmetry_equiv_pos_site_id
 _symmetry_equiv_pos_as_xyz
  1  'x, y, z'
loop_
 _atom_site_type_symbol
 _atom_site_label
 _atom_site_symmetry_multiplicity
 _atom_site_fract_x
 _atom_site_fract_y
 _atom_site_fract_z
 _atom_site_occupancy
  Al  Al0  1  0.11025087  0.09419745  0.37992998  1
  Al  Al1  1  0.21350283  0.20993230  0.13225058  1
  Al  Al2  1  0.78868397  0.08907801  0.87303203  1
  Al  Al3  1  0.89039630  0.20767381  0.63121315  1
  Al  Al4  1  0.44114585  0.09608284  0.39819499  1
  Al  Al5  1  0.10993787  0.09626639  0.88228400  1
  Al  Al6  1  0.21466647  0.20934458  0.62990516  1
  Al  Al7  1  0.78104490  0.09298037  0.38932656  1
  Al  Al8  1  0.89431410  0.20324003  0.13034325  1
  Al  Al9  1  0.43603428  0.09864806  0.86322339  1
  Al  Al10  1  0.55765460  0.20705957  0.62982749  1
  Al  Al11  1  0.11024839  0.42886723  0.37993310  1
  Al  Al12  1  0.21781873  0.54342841  0.12996237  1
  Al  Al13  1  0.77720335  0.42804703  0.88191709  1
  Al  Al14  1  0.89039657  0.53526909  0.63121001  1
  Al  Al15  1  0.44107147  0.43129868  0.38985393  1
  Al  Al16  1  0.54826805  0.54255051  0.13034750  1
  Al  Al17  1  0.10993381  0.42711898  0.88227926  1
  Al  Al18  1  0.21827647  0.54081757  0.63149269  1
  Al  Al19  1  0.77635331  0.42847514  0.37859498  1
  Al  Al20  1  0.89430597  0.53576772  0.13034652  1
  Al  Al21  1  0.43985191  0.43508904  0.87313563  1
  Al  Al22  1  0.55756470  0.53789371  0.63152458  1
  Al  Al23  1  0.11256220  0.76037818  0.38021169  1
  Al  Al24  1  0.21783865  0.87210901  0.12996010  1
  Al  Al25  1  0.78869052  0.75552673  0.87303336  1
  Al  Al26  1  0.89388698  0.86972768  0.62996977  1
  Al  Al27  1  0.44107642  0.76094463  0.38985376  1
  Al  Al28  1  0.11119597  0.76106334  0.88280282  1
  Al  Al29  1  0.21828187  0.87426080  0.63149764  1
  Al  Al30  1  0.78104786  0.75927732  0.38932718  1
  Al  Al31  1  0.90220422  0.86556113  0.13094811  1
  Al  Al32  1  0.43986877  0.75837656  0.87313568  1
  Al  Al33  1  0.55765850  0.86863917  0.62983100  1
  Gd  Gd34  1  0.55811654  0.20750152  0.12181606  1
  Gd  Gd35  1  0.55812983  0.86781165  0.12181514  1
  N  N36  1  0.22357743  0.20490122  0.33118353  1
  N  N37  1  0.11080226  0.09530285  0.07998212  1
  N  N38  1  0.89081650  0.20865229  0.82626801  1
  N  N39  1  0.78201020  0.09315149  0.58440811  1
  N  N40  1  0.55514302  0.20521272  0.35689827  1
  N  N41  1  0.41091669  0.11120597  0.05523006  1
  N  N42  1  0.21290897  0.21023953  0.82236452  1
  N  N43  1  0.10935589  0.09461547  0.57528687  1
  N  N44  1  0.88767692  0.20560548  0.32792287  1
  N  N45  1  0.81361343  0.07516400  0.06676159  1
  N  N46  1  0.55951691  0.20639514  0.83168885  1
  N  N47  1  0.44054391  0.09637008  0.59435675  1
  N  N48  1  0.22293629  0.53811143  0.32830325  1
  N  N49  1  0.11079476  0.42719010  0.07998016  1
  N  N50  1  0.89081666  0.53389063  0.82626088  1
  N  N51  1  0.77701678  0.42812686  0.57496832  1
  N  N52  1  0.55276332  0.54030708  0.32956431  1
  N  N53  1  0.42639769  0.45641292  0.06707530  1
  N  N54  1  0.21754385  0.54043635  0.82647713  1
  N  N55  1  0.10935687  0.42931687  0.57528693  1
  N  N56  1  0.88767783  0.54007984  0.32792796  1
  N  N57  1  0.77414857  0.42954483  0.08053681  1
  N  N58  1  0.55900224  0.53719261  0.82487419  1
  N  N59  1  0.44107040  0.43188743  0.58520829  1
  N  N60  1  0.22294517  0.87232859  0.32829933  1
  N  N61  1  0.11397052  0.75966756  0.07910982  1
  N  N62  1  0.89492048  0.86922120  0.82237861  1
  N  N63  1  0.78201325  0.75811007  0.58440719  1
  N  N64  1  0.55514664  0.87302110  0.35689776  1
  N  N65  1  0.42643333  0.75049343  0.06708843  1
  N  N66  1  0.21755849  0.87540000  0.82648609  1
  N  N67  1  0.11247135  0.76041272  0.57536459  1
  N  N68  1  0.88879929  0.87228198  0.33057399  1
  N  N69  1  0.81362694  0.74445684  0.06676142  1
  N  N70  1  0.55952172  0.86747589  0.83169315  1
  N  N71  1  0.44107509  0.76032666  0.58521204  1
