# generated using pymatgen
data_GdAl17N18
_symmetry_space_group_name_H-M   'P 1'
_cell_length_a   9.51114246
_cell_length_b   9.49323606
_cell_length_c   10.14333442
_cell_angle_alpha   89.99999148
_cell_angle_beta   89.91028061
_cell_angle_gamma   60.06228213
_symmetry_Int_Tables_number   1
_chemical_formula_structural   GdAl17N18
_chemical_formula_sum   'Gd2 Al34 N36'
_cell_volume   793.65152124
_cell_formula_units_Z   2
loop_
 _symmetry_equiv_pos_site_id
 _symmetry_equiv_pos_as_xyz
  1  'x, y, z'
loop_
 _atom_site_type_symbol
 _atom_site_label
 _atom_site_symmetry_multiplicity
 _atom_site_fract_x
 _atom_site_fract_y
 _atom_site_fract_z
 _atom_site_occupancy
  Al  Al0  1  0.11064786  0.09537076  0.29898781  1
  Al  Al1  1  0.21478058  0.20927643  0.04997200  1
  Al  Al2  1  0.78029650  0.09305665  0.79017460  1
  Al  Al3  1  0.89037919  0.20686268  0.54897504  1
  Al  Al4  1  0.43858288  0.09737531  0.31128191  1
  Al  Al5  1  0.11061485  0.09444807  0.80014852  1
  Al  Al6  1  0.21693645  0.20819842  0.54841822  1
  Al  Al7  1  0.78627532  0.09048602  0.30546965  1
  Al  Al8  1  0.89482363  0.20341981  0.05051686  1
  Al  Al9  1  0.44085864  0.09623732  0.78132924  1
  Al  Al10  1  0.55672966  0.20698179  0.54825485  1
  Al  Al11  1  0.11064781  0.42731473  0.29898780  1
  Al  Al12  1  0.21788304  0.54361909  0.05096371  1
  Al  Al13  1  0.77640818  0.42846250  0.80076851  1
  Al  Al14  1  0.89037918  0.53609137  0.54897505  1
  Al  Al15  1  0.44088369  0.43349986  0.30512962  1
  Al  Al16  1  0.54930434  0.54201459  0.05147390  1
  Al  Al17  1  0.11061484  0.42827032  0.80014853  1
  Al  Al18  1  0.21917568  0.54061228  0.54889242  1
  Al  Al19  1  0.77772214  0.42780556  0.29979732  1
  Al  Al20  1  0.89482356  0.53508985  0.05051684  1
  Al  Al21  1  0.44132440  0.43148892  0.79002679  1
  Al  Al22  1  0.55687537  0.53822900  0.54767178  1
  Al  Al23  1  0.11146406  0.76093465  0.29850643  1
  Al  Al24  1  0.21788312  0.87183123  0.05096368  1
  Al  Al25  1  0.78029651  0.75998004  0.79017459  1
  Al  Al26  1  0.89252935  0.87040196  0.54836544  1
  Al  Al27  1  0.44088376  0.75894988  0.30512957  1
  Al  Al28  1  0.11099988  0.76116669  0.80028300  1
  Al  Al29  1  0.21917573  0.87354531  0.54889242  1
  Al  Al30  1  0.78627534  0.75657192  0.30546965  1
  Al  Al31  1  0.90130837  0.86601246  0.05164510  1
  Al  Al32  1  0.44132445  0.76051995  0.79002682  1
  Al  Al33  1  0.55672967  0.86962190  0.54825483  1
  Gd  Gd34  1  0.55833155  0.20832914  0.04933528  1
  Gd  Gd35  1  0.55833156  0.86667313  0.04933528  1
  N  N36  1  0.21555221  0.20889059  0.36234994  1
  N  N37  1  0.11169041  0.09463660  0.10795317  1
  N  N38  1  0.88724175  0.20545652  0.85912148  1
  N  N39  1  0.78146116  0.09300715  0.60236854  1
  N  N40  1  0.55847166  0.20639127  0.35553298  1
  N  N41  1  0.41536541  0.10898417  0.12867533  1
  N  N42  1  0.22385483  0.20473922  0.85743854  1
  N  N43  1  0.11035513  0.09462307  0.61082911  1
  N  N44  1  0.89067324  0.20778825  0.36058664  1
  N  N45  1  0.81118096  0.07721057  0.12006326  1
  N  N46  1  0.55431054  0.20567836  0.82695492  1
  N  N47  1  0.44096255  0.09618536  0.59398822  1
  N  N48  1  0.21863241  0.54018337  0.36044936  1
  N  N49  1  0.11169033  0.42700634  0.10795317  1
  N  N50  1  0.88724174  0.54063497  0.85912146  1
  N  N51  1  0.77706573  0.42813371  0.61076871  1
  N  N52  1  0.55831663  0.53750843  0.36106613  1
  N  N53  1  0.42762760  0.45482150  0.11972662  1
  N  N54  1  0.22270325  0.53840491  0.85896557  1
  N  N55  1  0.11035511  0.42835501  0.61082912  1
  N  N56  1  0.89067321  0.53487182  0.36058665  1
  N  N57  1  0.77520562  0.42906376  0.10748474  1
  N  N58  1  0.55294595  0.54019368  0.85851269  1
  N  N59  1  0.44169109  0.43172935  0.60211714  1
  N  N60  1  0.21863249  0.87451757  0.36044934  1
  N  N61  1  0.11393928  0.75969705  0.10898085  1
  N  N62  1  0.88691990  0.87320668  0.85829428  1
  N  N63  1  0.78146117  0.75886486  0.60236852  1
  N  N64  1  0.55847165  0.86847061  0.35553294  1
  N  N65  1  0.42762776  0.75088443  0.11972652  1
  N  N66  1  0.22270328  0.87222512  0.85896555  1
  N  N67  1  0.11132282  0.76100521  0.61109931  1
  N  N68  1  0.89329600  0.87001866  0.36255794  1
  N  N69  1  0.81118098  0.74494164  0.12006326  1
  N  N70  1  0.55431057  0.87334441  0.82695492  1
  N  N71  1  0.44169112  0.75991282  0.60211716  1
