# generated using pymatgen
data_GdAl17N18
_symmetry_space_group_name_H-M   'P 1'
_cell_length_a   9.93118919
_cell_length_b   9.88338401
_cell_length_c   9.00781036
_cell_angle_alpha   90.00004274
_cell_angle_beta   89.98811878
_cell_angle_gamma   60.16624879
_symmetry_Int_Tables_number   1
_chemical_formula_structural   GdAl17N18
_chemical_formula_sum   'Gd2 Al34 N36'
_cell_volume   766.97620188
_cell_formula_units_Z   2
loop_
 _symmetry_equiv_pos_site_id
 _symmetry_equiv_pos_as_xyz
  1  'x, y, z'
loop_
 _atom_site_type_symbol
 _atom_site_label
 _atom_site_symmetry_multiplicity
 _atom_site_fract_x
 _atom_site_fract_y
 _atom_site_fract_z
 _atom_site_occupancy
  Al  Al0  1  0.10958526  0.09669092  0.33615143  1
  Al  Al1  1  0.21204168  0.21065028  0.08353555  1
  Al  Al2  1  0.78395720  0.09210172  0.82787072  1
  Al  Al3  1  0.89055665  0.20832796  0.58717780  1
  Al  Al4  1  0.43531415  0.09900521  0.35941693  1
  Al  Al5  1  0.10992913  0.09396813  0.83799015  1
  Al  Al6  1  0.21326307  0.21003844  0.58992238  1
  Al  Al7  1  0.78863185  0.08874894  0.34900397  1
  Al  Al8  1  0.89395897  0.20351819  0.08756881  1
  Al  Al9  1  0.43945127  0.09693581  0.81854885  1
  Al  Al10  1  0.55794432  0.20699876  0.59409953  1
  Al  Al11  1  0.10958617  0.42705320  0.33615413  1
  Al  Al12  1  0.21782632  0.54312496  0.08816996  1
  Al  Al13  1  0.77652137  0.42840510  0.84016369  1
  Al  Al14  1  0.89055724  0.53445765  0.58717821  1
  Al  Al15  1  0.43983258  0.43498483  0.34924523  1
  Al  Al16  1  0.54893208  0.54220317  0.08714059  1
  Al  Al17  1  0.10992974  0.42943167  0.83798787  1
  Al  Al18  1  0.21746603  0.54094185  0.58671676  1
  Al  Al19  1  0.77684552  0.42824227  0.33580951  1
  Al  Al20  1  0.89395990  0.53586217  0.08756831  1
  Al  Al21  1  0.43956638  0.43339804  0.82714096  1
  Al  Al22  1  0.55817205  0.53758165  0.58769525  1
  Al  Al23  1  0.11086676  0.76123092  0.33622571  1
  Al  Al24  1  0.21782786  0.87238969  0.08817134  1
  Al  Al25  1  0.78395700  0.75727043  0.82787212  1
  Al  Al26  1  0.89509957  0.86912042  0.59053362  1
  Al  Al27  1  0.43983234  0.75850665  0.34924936  1
  Al  Al28  1  0.11415060  0.75958890  0.83695189  1
  Al  Al29  1  0.21746359  0.87493430  0.58671569  1
  Al  Al30  1  0.78863152  0.75594712  0.34900254  1
  Al  Al31  1  0.90245097  0.86544454  0.08445646  1
  Al  Al32  1  0.43956540  0.76036047  0.82713736  1
  Al  Al33  1  0.55794479  0.86839219  0.59409891  1
  Gd  Gd34  1  0.55857369  0.20726323  0.09933324  1
  Gd  Gd35  1  0.55857299  0.86750630  0.09933360  1
  N  N36  1  0.21233761  0.21050412  0.37922180  1
  N  N37  1  0.11033670  0.09568695  0.11878431  1
  N  N38  1  0.88839102  0.20612722  0.87092651  1
  N  N39  1  0.78335402  0.09311749  0.61459804  1
  N  N40  1  0.55972799  0.20619968  0.37455386  1
  N  N41  1  0.41146877  0.11092436  0.14155331  1
  N  N42  1  0.22232664  0.20550940  0.86579002  1
  N  N43  1  0.10867298  0.09460869  0.62484799  1
  N  N44  1  0.89071288  0.20903883  0.37314709  1
  N  N45  1  0.81277903  0.07505888  0.13028407  1
  N  N46  1  0.55603237  0.20526508  0.83976956  1
  N  N47  1  0.43900935  0.09715433  0.60528309  1
  N  N48  1  0.21704802  0.54036791  0.37324766  1
  N  N49  1  0.11033750  0.42730097  0.11878601  1
  N  N50  1  0.88839289  0.53882714  0.87092564  1
  N  N51  1  0.77709721  0.42811383  0.62536773  1
  N  N52  1  0.55932846  0.53700612  0.37561850  1
  N  N53  1  0.42706453  0.45538873  0.13069737  1
  N  N54  1  0.22241737  0.53825703  0.87040406  1
  N  N55  1  0.10867454  0.43004154  0.62484667  1
  N  N56  1  0.89071389  0.53359370  0.37314854  1
  N  N57  1  0.77402552  0.42964847  0.11778558  1
  N  N58  1  0.55309286  0.54012532  0.86775046  1
  N  N59  1  0.43997086  0.43304750  0.61326317  1
  N  N60  1  0.21704705  0.87593096  0.37324638  1
  N  N61  1  0.11380219  0.75976147  0.11992329  1
  N  N62  1  0.89091802  0.87121379  0.86484388  1
  N  N63  1  0.78335379  0.75685267  0.61459980  1
  N  N64  1  0.55972865  0.86741151  0.37455377  1
  N  N65  1  0.42706468  0.75086491  0.13070095  1
  N  N66  1  0.22241848  0.87267023  0.87040512  1
  N  N67  1  0.11381394  0.75975496  0.62416113  1
  N  N68  1  0.89536743  0.86898832  0.37973182  1
  N  N69  1  0.81277898  0.74548290  0.13028248  1
  N  N70  1  0.55603120  0.87204154  0.83976941  1
  N  N71  1  0.43996930  0.76030088  0.61325930  1
