# generated using pymatgen
data_GdAl17N18
_symmetry_space_group_name_H-M   'P 1'
_cell_length_a   9.51113615
_cell_length_b   9.49323157
_cell_length_c   10.14333312
_cell_angle_alpha   89.99996016
_cell_angle_beta   89.91027619
_cell_angle_gamma   60.06235480
_symmetry_Int_Tables_number   1
_chemical_formula_structural   GdAl17N18
_chemical_formula_sum   'Gd2 Al34 N36'
_cell_volume   793.65109861
_cell_formula_units_Z   2
loop_
 _symmetry_equiv_pos_site_id
 _symmetry_equiv_pos_as_xyz
  1  'x, y, z'
loop_
 _atom_site_type_symbol
 _atom_site_label
 _atom_site_symmetry_multiplicity
 _atom_site_fract_x
 _atom_site_fract_y
 _atom_site_fract_z
 _atom_site_occupancy
  Al  Al0  1  0.11062084  0.09538430  0.30920063  1
  Al  Al1  1  0.21475342  0.20929022  0.06018595  1
  Al  Al2  1  0.78026975  0.09306971  0.80038975  1
  Al  Al3  1  0.89035201  0.20687602  0.55918731  1
  Al  Al4  1  0.43855553  0.09738930  0.32150188  1
  Al  Al5  1  0.11058806  0.09446125  0.81036041  1
  Al  Al6  1  0.21690929  0.20821195  0.55863197  1
  Al  Al7  1  0.78624796  0.09049965  0.31568454  1
  Al  Al8  1  0.89479655  0.20343298  0.06072904  1
  Al  Al9  1  0.44083170  0.09625069  0.79154735  1
  Al  Al10  1  0.55670280  0.20699531  0.55847269  1
  Al  Al11  1  0.11062065  0.42732830  0.30920061  1
  Al  Al12  1  0.21785583  0.54363295  0.06117669  1
  Al  Al13  1  0.77638146  0.42847559  0.81098109  1
  Al  Al14  1  0.89035196  0.53610489  0.55918734  1
  Al  Al15  1  0.44085650  0.43351376  0.31534586  1
  Al  Al16  1  0.54927713  0.54202858  0.06168800  1
  Al  Al17  1  0.11058801  0.42828364  0.81036043  1
  Al  Al18  1  0.21914876  0.54062564  0.55910525  1
  Al  Al19  1  0.77769479  0.42781910  0.31000964  1
  Al  Al20  1  0.89479620  0.53510359  0.06072895  1
  Al  Al21  1  0.44129750  0.43150223  0.80024241  1
  Al  Al22  1  0.55684846  0.53824247  0.55788691  1
  Al  Al23  1  0.11143705  0.76094820  0.30871949  1
  Al  Al24  1  0.21785619  0.87184471  0.06117657  1
  Al  Al25  1  0.78026978  0.75999321  0.80038969  1
  Al  Al26  1  0.89250204  0.87041547  0.55857852  1
  Al  Al27  1  0.44085681  0.75896349  0.31534562  1
  Al  Al28  1  0.11097301  0.76117999  0.81049484  1
  Al  Al29  1  0.21914895  0.87355868  0.55910521  1
  Al  Al30  1  0.78624801  0.75658543  0.31568451  1
  Al  Al31  1  0.90128120  0.86602595  0.06185859  1
  Al  Al32  1  0.44129766  0.76053330  0.80024256  1
  Al  Al33  1  0.55670280  0.86963529  0.55847261  1
  Gd  Gd34  1  0.55830328  0.20834340  0.05955322  1
  Gd  Gd35  1  0.55830334  0.86668888  0.05955322  1
  N  N36  1  0.21552404  0.20890479  0.37256498  1
  N  N37  1  0.11166312  0.09465006  0.11816692  1
  N  N38  1  0.88721543  0.20546973  0.86933466  1
  N  N39  1  0.78143451  0.09302022  0.61258385  1
  N  N40  1  0.55844474  0.20640529  0.36575076  1
  N  N41  1  0.41533646  0.10899939  0.13889452  1
  N  N42  1  0.22382752  0.20475283  0.86765319  1
  N  N43  1  0.11032794  0.09463636  0.62104203  1
  N  N44  1  0.89064617  0.20780188  0.37079990  1
  N  N45  1  0.81115381  0.07722397  0.13027803  1
  N  N46  1  0.55428400  0.20569177  0.83717247  1
  N  N47  1  0.44093510  0.09619897  0.60420582  1
  N  N48  1  0.21860494  0.54019717  0.37066330  1
  N  N49  1  0.11166274  0.42702029  0.11816690  1
  N  N50  1  0.88721539  0.54064772  0.86933457  1
  N  N51  1  0.77703909  0.42814672  0.62098210  1
  N  N52  1  0.55828985  0.53752208  0.37128166  1
  N  N53  1  0.42759978  0.45483628  0.12994262  1
  N  N54  1  0.22267603  0.53841850  0.86917916  1
  N  N55  1  0.11032788  0.42836854  0.62104207  1
  N  N56  1  0.89064604  0.53488523  0.37079995  1
  N  N57  1  0.77517856  0.42907694  0.11769828  1
  N  N58  1  0.55291940  0.54020686  0.86872740  1
  N  N59  1  0.44166377  0.43174302  0.61233301  1
  N  N60  1  0.21860526  0.87453130  0.37066318  1
  N  N61  1  0.11391211  0.75971071  0.11919465  1
  N  N62  1  0.88689375  0.87321957  0.86850855  1
  N  N63  1  0.78143451  0.75887790  0.61258380  1
  N  N64  1  0.55844472  0.86848414  0.36575060  1
  N  N65  1  0.42760054  0.75089816  0.12994216  1
  N  N66  1  0.22267611  0.87223862  0.86917911  1
  N  N67  1  0.11129573  0.76101859  0.62131203  1
  N  N68  1  0.89326900  0.87003215  0.37277181  1
  N  N69  1  0.81115390  0.74495478  0.13027801  1
  N  N70  1  0.55428409  0.87335746  0.83717248  1
  N  N71  1  0.44166389  0.75992620  0.61233308  1
