# generated using pymatgen
data_GdAl17N18
_symmetry_space_group_name_H-M   'P 1'
_cell_length_a   9.62144735
_cell_length_b   9.58926524
_cell_length_c   9.86930327
_cell_angle_alpha   89.99976517
_cell_angle_beta   89.94636284
_cell_angle_gamma   60.14240735
_symmetry_Int_Tables_number   1
_chemical_formula_structural   GdAl17N18
_chemical_formula_sum   'Gd2 Al34 N36'
_cell_volume   789.70344901
_cell_formula_units_Z   2
loop_
 _symmetry_equiv_pos_site_id
 _symmetry_equiv_pos_as_xyz
  1  'x, y, z'
loop_
 _atom_site_type_symbol
 _atom_site_label
 _atom_site_symmetry_multiplicity
 _atom_site_fract_x
 _atom_site_fract_y
 _atom_site_fract_z
 _atom_site_occupancy
  Al  Al0  1  0.11007547  0.09604199  0.32592941  1
  Al  Al1  1  0.21359704  0.20988768  0.07624332  1
  Al  Al2  1  0.78057920  0.09308212  0.81878308  1
  Al  Al3  1  0.89032778  0.20737051  0.57677514  1
  Al  Al4  1  0.43639872  0.09846923  0.34294310  1
  Al  Al5  1  0.11037125  0.09427336  0.82791179  1
  Al  Al6  1  0.21539486  0.20898112  0.57762637  1
  Al  Al7  1  0.78823935  0.08934088  0.33414113  1
  Al  Al8  1  0.89438958  0.20336229  0.07766860  1
  Al  Al9  1  0.44137183  0.09596959  0.81001431  1
  Al  Al10  1  0.55743950  0.20700308  0.57685940  1
  Al  Al11  1  0.11006921  0.42720609  0.32593396  1
  Al  Al12  1  0.21769769  0.54357405  0.07804785  1
  Al  Al13  1  0.77638397  0.42845599  0.82889820  1
  Al  Al14  1  0.89032772  0.53563686  0.57677883  1
  Al  Al15  1  0.43998197  0.43487012  0.33392451  1
  Al  Al16  1  0.54851794  0.54243073  0.07786182  1
  Al  Al17  1  0.11036790  0.42866855  0.82790885  1
  Al  Al18  1  0.21868295  0.54064032  0.57653620  1
  Al  Al19  1  0.77726989  0.42800933  0.32654930  1
  Al  Al20  1  0.89437705  0.53555996  0.07766442  1
  Al  Al21  1  0.44136144  0.43098984  0.81833821  1
  Al  Al22  1  0.55724725  0.53805394  0.57623588  1
  Al  Al23  1  0.11131311  0.76100521  0.32545882  1
  Al  Al24  1  0.21772398  0.87208567  0.07804887  1
  Al  Al25  1  0.78058313  0.75963451  0.81878127  1
  Al  Al26  1  0.89337293  0.86998352  0.57748003  1
  Al  Al27  1  0.44000467  0.75846784  0.33392046  1
  Al  Al28  1  0.11215651  0.76058024  0.82762317  1
  Al  Al29  1  0.21869139  0.87403170  0.57653055  1
  Al  Al30  1  0.78824818  0.75569851  0.33414007  1
  Al  Al31  1  0.90214981  0.86558388  0.07759830  1
  Al  Al32  1  0.44136827  0.76096244  0.81834038  1
  Al  Al33  1  0.55744398  0.86891340  0.57685496  1
  Gd  Gd34  1  0.55804237  0.20766396  0.08421033  1
  Gd  Gd35  1  0.55806121  0.86775306  0.08421095  1
  N  N36  1  0.21349941  0.20994863  0.38761512  1
  N  N37  1  0.11090365  0.09515919  0.13076203  1
  N  N38  1  0.88759319  0.20559640  0.88252014  1
  N  N39  1  0.78160085  0.09318116  0.62627005  1
  N  N40  1  0.55923965  0.20641875  0.37835358  1
  N  N41  1  0.41138876  0.11097792  0.15474474  1
  N  N42  1  0.22369033  0.20484779  0.87982205  1
  N  N43  1  0.10961746  0.09460559  0.63490987  1
  N  N44  1  0.89075030  0.20837591  0.38421223  1
  N  N45  1  0.81323336  0.07554043  0.14362849  1
  N  N46  1  0.55495199  0.20524643  0.85387539  1
  N  N47  1  0.44088713  0.09619506  0.61682724  1
  N  N48  1  0.21791140  0.54032106  0.38398982  1
  N  N49  1  0.11089228  0.42722642  0.13076364  1
  N  N50  1  0.88759350  0.54017289  0.88251376  1
  N  N51  1  0.77700193  0.42812762  0.63498957  1
  N  N52  1  0.55866906  0.53736532  0.38535203  1
  N  N53  1  0.42650751  0.45627750  0.14324488  1
  N  N54  1  0.22288627  0.53820532  0.88219867  1
  N  N55  1  0.10961777  0.42905751  0.63491024  1
  N  N56  1  0.89074954  0.53423337  0.38422050  1
  N  N57  1  0.77430842  0.42945184  0.13035435  1
  N  N58  1  0.55292218  0.54023020  0.88120477  1
  N  N59  1  0.44139621  0.43155631  0.62563320  1
  N  N60  1  0.21793141  0.87515356  0.38397886  1
  N  N61  1  0.11400083  0.75965140  0.13174663  1
  N  N62  1  0.88844939  0.87245713  0.88052041  1
  N  N63  1  0.78160465  0.75847710  0.62626993  1
  N  N64  1  0.55924540  0.86774331  0.37834741  1
  N  N65  1  0.42655715  0.75052370  0.14322427  1
  N  N66  1  0.22289657  0.87229020  0.88220266  1
  N  N67  1  0.11214851  0.76057121  0.63479895  1
  N  N68  1  0.89448532  0.86943970  0.38750299  1
  N  N69  1  0.81325209  0.74443466  0.14362954  1
  N  N70  1  0.55495726  0.87318642  0.85387574  1
  N  N71  1  0.44140293  0.76032493  0.62563079  1
