# generated using pymatgen
data_GdAl17N18
_symmetry_space_group_name_H-M   'P 1'
_cell_length_a   9.56476037
_cell_length_b   9.53780089
_cell_length_c   10.01380360
_cell_angle_alpha   89.99946157
_cell_angle_beta   89.93428994
_cell_angle_gamma   60.12612633
_symmetry_Int_Tables_number   1
_chemical_formula_structural   GdAl17N18
_chemical_formula_sum   'Gd2 Al34 N36'
_cell_volume   792.14051733
_cell_formula_units_Z   2
loop_
 _symmetry_equiv_pos_site_id
 _symmetry_equiv_pos_as_xyz
  1  'x, y, z'
loop_
 _atom_site_type_symbol
 _atom_site_label
 _atom_site_symmetry_multiplicity
 _atom_site_fract_x
 _atom_site_fract_y
 _atom_site_fract_z
 _atom_site_occupancy
  Al  Al0  1  0.11027730  0.09576962  0.32530448  1
  Al  Al1  1  0.21386010  0.20975830  0.07582905  1
  Al  Al2  1  0.78024566  0.09313631  0.81764549  1
  Al  Al3  1  0.89026199  0.20710097  0.57577760  1
  Al  Al4  1  0.43712146  0.09811446  0.33987208  1
  Al  Al5  1  0.11045070  0.09437441  0.82678904  1
  Al  Al6  1  0.21624683  0.20855417  0.57606176  1
  Al  Al7  1  0.78748829  0.08974892  0.33255541  1
  Al  Al8  1  0.89453689  0.20344333  0.07685461  1
  Al  Al9  1  0.44133152  0.09599049  0.80904431  1
  Al  Al10  1  0.55709545  0.20693963  0.57503662  1
  Al  Al11  1  0.11026801  0.42727874  0.32530803  1
  Al  Al12  1  0.21765052  0.54364756  0.07722956  1
  Al  Al13  1  0.77638208  0.42845253  0.82756930  1
  Al  Al14  1  0.89026127  0.53596399  0.57578152  1
  Al  Al15  1  0.44024956  0.43441457  0.33222157  1
  Al  Al16  1  0.54879998  0.54229665  0.07731307  1
  Al  Al17  1  0.11044638  0.42848637  0.82678658  1
  Al  Al18  1  0.21902348  0.54054038  0.57559859  1
  Al  Al19  1  0.77735311  0.42796345  0.32607226  1
  Al  Al20  1  0.89451752  0.53531792  0.07684920  1
  Al  Al21  1  0.44147410  0.43095260  0.81732535  1
  Al  Al22  1  0.55695424  0.53820113  0.57496385  1
  Al  Al23  1  0.11140028  0.76096314  0.32480379  1
  Al  Al24  1  0.21768494  0.87205767  0.07722839  1
  Al  Al25  1  0.78025064  0.75990634  0.81764190  1
  Al  Al26  1  0.89287459  0.87022960  0.57592092  1
  Al  Al27  1  0.44027882  0.75866335  0.33221182  1
  Al  Al28  1  0.11165772  0.76082919  0.82665603  1
  Al  Al29  1  0.21903565  0.87378740  0.57559238  1
  Al  Al30  1  0.78749955  0.75603359  0.33255463  1
  Al  Al31  1  0.90194096  0.86568206  0.07733375  1
  Al  Al32  1  0.44148327  0.76088720  0.81733022  1
  Al  Al33  1  0.55710021  0.86932172  0.57503143  1
  Gd  Gd34  1  0.55814461  0.20794694  0.08041897  1
  Gd  Gd35  1  0.55816928  0.86740436  0.08041867  1
  N  N36  1  0.21441448  0.20949354  0.38824184  1
  N  N37  1  0.11112076  0.09497779  0.13241447  1
  N  N38  1  0.88745400  0.20556265  0.88384567  1
  N  N39  1  0.78128288  0.09317505  0.62759652  1
  N  N40  1  0.55886338  0.20641296  0.37964096  1
  N  N41  1  0.41262252  0.11037681  0.15496862  1
  N  N42  1  0.22369915  0.20484406  0.88165640  1
  N  N43  1  0.10990943  0.09461557  0.63589565  1
  N  N44  1  0.89066660  0.20810414  0.38550707  1
  N  N45  1  0.81255360  0.07610884  0.14492441  1
  N  N46  1  0.55469561  0.20538741  0.85452168  1
  N  N47  1  0.44108180  0.09609591  0.61884215  1
  N  N48  1  0.21827990  0.54024011  0.38529617  1
  N  N49  1  0.11110289  0.42718888  0.13241522  1
  N  N50  1  0.88745329  0.54034005  0.88383767  1
  N  N51  1  0.77697220  0.42813623  0.63587643  1
  N  N52  1  0.55836049  0.53752540  0.38637328  1
  N  N53  1  0.42679997  0.45586124  0.14448399  1
  N  N54  1  0.22278893  0.53830175  0.88357942  1
  N  N55  1  0.10990875  0.42874951  0.63589661  1
  N  N56  1  0.89066398  0.53458505  0.38551610  1
  N  N57  1  0.77455113  0.42931722  0.13202388  1
  N  N58  1  0.55298805  0.54019740  0.88286012  1
  N  N59  1  0.44162661  0.43139100  0.62714546  1
  N  N60  1  0.21830613  0.87486747  0.38528318  1
  N  N61  1  0.11401573  0.75964500  0.13341494  1
  N  N62  1  0.88789091  0.87273345  0.88245061  1
  N  N63  1  0.78128728  0.75878970  0.62759482  1
  N  N64  1  0.55886992  0.86813946  0.37963232  1
  N  N65  1  0.42686707  0.75066224  0.14445391  1
  N  N66  1  0.22280053  0.87229189  0.88358285  1
  N  N67  1  0.11176886  0.76075884  0.63591466  1
  N  N68  1  0.89397241  0.86969526  0.38820396  1
  N  N69  1  0.81257797  0.74452089  0.14492639  1
  N  N70  1  0.55470276  0.87330598  0.85452140  1
  N  N71  1  0.44163580  0.76025570  0.62714492  1
