# generated using pymatgen
data_GdAl17N18
_symmetry_space_group_name_H-M   'P 1'
_cell_length_a   9.51113439
_cell_length_b   9.49323085
_cell_length_c   10.14333709
_cell_angle_alpha   89.99993244
_cell_angle_beta   89.91023017
_cell_angle_gamma   60.06244617
_symmetry_Int_Tables_number   1
_chemical_formula_structural   GdAl17N18
_chemical_formula_sum   'Gd2 Al34 N36'
_cell_volume   793.65192962
_cell_formula_units_Z   2
loop_
 _symmetry_equiv_pos_site_id
 _symmetry_equiv_pos_as_xyz
  1  'x, y, z'
loop_
 _atom_site_type_symbol
 _atom_site_label
 _atom_site_symmetry_multiplicity
 _atom_site_fract_x
 _atom_site_fract_y
 _atom_site_fract_z
 _atom_site_occupancy
  Al  Al0  1  0.11060490  0.09539224  0.31521424  1
  Al  Al1  1  0.21473730  0.20929850  0.06619855  1
  Al  Al2  1  0.78025368  0.09307757  0.80640179  1
  Al  Al3  1  0.89033614  0.20688376  0.56520110  1
  Al  Al4  1  0.43853967  0.09739755  0.32750995  1
  Al  Al5  1  0.11057197  0.09446922  0.81637411  1
  Al  Al6  1  0.21689357  0.20821976  0.56464483  1
  Al  Al7  1  0.78623214  0.09050733  0.32169659  1
  Al  Al8  1  0.89478079  0.20344085  0.06674276  1
  Al  Al9  1  0.44081569  0.09625861  0.79755723  1
  Al  Al10  1  0.55668675  0.20700327  0.56448286  1
  Al  Al11  1  0.11060456  0.42733639  0.31521421  1
  Al  Al12  1  0.21783960  0.54364112  0.06718975  1
  Al  Al13  1  0.77636537  0.42848335  0.81699410  1
  Al  Al14  1  0.89033605  0.53611269  0.56520114  1
  Al  Al15  1  0.44084037  0.43352200  0.32135702  1
  Al  Al16  1  0.54926121  0.54203694  0.06769998  1
  Al  Al17  1  0.11057188  0.42829147  0.81637414  1
  Al  Al18  1  0.21913275  0.54063358  0.56511878  1
  Al  Al19  1  0.77767886  0.42782691  0.31602339  1
  Al  Al20  1  0.89478014  0.53511124  0.06674261  1
  Al  Al21  1  0.44128135  0.43151023  0.80625397  1
  Al  Al22  1  0.55683230  0.53825058  0.56389892  1
  Al  Al23  1  0.11142104  0.76095624  0.31473298  1
  Al  Al24  1  0.21784028  0.87185289  0.06718956  1
  Al  Al25  1  0.78025373  0.76000088  0.80640169  1
  Al  Al26  1  0.89248623  0.87042323  0.56459202  1
  Al  Al27  1  0.44084094  0.75897172  0.32135658  1
  Al  Al28  1  0.11095706  0.76118785  0.81650843  1
  Al  Al29  1  0.21913310  0.87356656  0.56511870  1
  Al  Al30  1  0.78623224  0.75659330  0.32169654  1
  Al  Al31  1  0.90126545  0.86603371  0.06787112  1
  Al  Al32  1  0.44128164  0.76054123  0.80625423  1
  Al  Al33  1  0.55668675  0.86964344  0.56448271  1
  Gd  Gd34  1  0.55828816  0.20835242  0.06556284  1
  Gd  Gd35  1  0.55828830  0.86669682  0.06556284  1
  N  N36  1  0.21550894  0.20891248  0.37857687  1
  N  N37  1  0.11164734  0.09465801  0.12417961  1
  N  N38  1  0.88719915  0.20547763  0.87534764  1
  N  N39  1  0.78141820  0.09302808  0.61859570  1
  N  N40  1  0.55842869  0.20641343  0.37176079  1
  N  N41  1  0.41532156  0.10900760  0.14490312  1
  N  N42  1  0.22381177  0.20476066  0.87366504  1
  N  N43  1  0.11031199  0.09464420  0.62705508  1
  N  N44  1  0.89063026  0.20780967  0.37681293  1
  N  N45  1  0.81113771  0.07723155  0.13628990  1
  N  N46  1  0.55426782  0.20569975  0.84318245  1
  N  N47  1  0.44091936  0.09620671  0.61021609  1
  N  N48  1  0.21858917  0.54020516  0.37667606  1
  N  N49  1  0.11164664  0.42702821  0.12417958  1
  N  N50  1  0.88719906  0.54065576  0.87534748  1
  N  N51  1  0.77702275  0.42815455  0.62699475  1
  N  N52  1  0.55827361  0.53753049  0.37729318  1
  N  N53  1  0.42758365  0.45484458  0.13595379  1
  N  N54  1  0.22266013  0.53842640  0.87519175  1
  N  N55  1  0.11031189  0.42837624  0.62705515  1
  N  N56  1  0.89063004  0.53489329  0.37681302  1
  N  N57  1  0.77516234  0.42908463  0.12371092  1
  N  N58  1  0.55290326  0.54021486  0.87473913  1
  N  N59  1  0.44164787  0.43175072  0.61834441  1
  N  N60  1  0.21858976  0.87453916  0.37667584  1
  N  N61  1  0.11389611  0.75971878  0.12520734  1
  N  N62  1  0.88687748  0.87322753  0.87452062  1
  N  N63  1  0.78141821  0.75888575  0.61859560  1
  N  N64  1  0.55842866  0.86849274  0.37176049  1
  N  N65  1  0.42758505  0.75090670  0.13595295  1
  N  N66  1  0.22266026  0.87224653  0.87519167  1
  N  N67  1  0.11127982  0.76102638  0.62732521  1
  N  N68  1  0.89325306  0.87004010  0.37878469  1
  N  N69  1  0.81113790  0.74496258  0.13628986  1
  N  N70  1  0.55426797  0.87336563  0.84318246  1
  N  N71  1  0.44164810  0.75993410  0.61834453  1
