# generated using pymatgen
data_GdAl17N18
_symmetry_space_group_name_H-M   'P 1'
_cell_length_a   9.51114211
_cell_length_b   9.49323559
_cell_length_c   10.14333150
_cell_angle_alpha   89.99998895
_cell_angle_beta   89.91029130
_cell_angle_gamma   60.06228976
_symmetry_Int_Tables_number   1
_chemical_formula_structural   GdAl17N18
_chemical_formula_sum   'Gd2 Al34 N36'
_cell_volume   793.65128533
_cell_formula_units_Z   2
loop_
 _symmetry_equiv_pos_site_id
 _symmetry_equiv_pos_as_xyz
  1  'x, y, z'
loop_
 _atom_site_type_symbol
 _atom_site_label
 _atom_site_symmetry_multiplicity
 _atom_site_fract_x
 _atom_site_fract_y
 _atom_site_fract_z
 _atom_site_occupancy
  Al  Al0  1  0.11064477  0.09537229  0.30018154  1
  Al  Al1  1  0.21477725  0.20927811  0.05116620  1
  Al  Al2  1  0.78029352  0.09305816  0.79136984  1
  Al  Al3  1  0.89037590  0.20686419  0.55016820  1
  Al  Al4  1  0.43857962  0.09737697  0.31247951  1
  Al  Al5  1  0.11061179  0.09444958  0.80134100  1
  Al  Al6  1  0.21693339  0.20819995  0.54961243  1
  Al  Al7  1  0.78627209  0.09048761  0.30666464  1
  Al  Al8  1  0.89482046  0.20342128  0.05170971  1
  Al  Al9  1  0.44085550  0.09623888  0.78252626  1
  Al  Al10  1  0.55672659  0.20698335  0.54945173  1
  Al  Al11  1  0.11064472  0.42731629  0.30018153  1
  Al  Al12  1  0.21787980  0.54362084  0.05215691  1
  Al  Al13  1  0.77640532  0.42846391  0.80196112  1
  Al  Al14  1  0.89037588  0.53609313  0.55016821  1
  Al  Al15  1  0.44088057  0.43350155  0.30632523  1
  Al  Al16  1  0.54930116  0.54201622  0.05266749  1
  Al  Al17  1  0.11061178  0.42827184  0.80134101  1
  Al  Al18  1  0.21917278  0.54061368  0.55008603  1
  Al  Al19  1  0.77771874  0.42780724  0.30099046  1
  Al  Al20  1  0.89482036  0.53509153  0.05170969  1
  Al  Al21  1  0.44132128  0.43149041  0.79122234  1
  Al  Al22  1  0.55687218  0.53823059  0.54886703  1
  Al  Al23  1  0.11146093  0.76093622  0.29970040  1
  Al  Al24  1  0.21787991  0.87183273  0.05215687  1
  Al  Al25  1  0.78029354  0.75998147  0.79136982  1
  Al  Al26  1  0.89252588  0.87040368  0.54955951  1
  Al  Al27  1  0.44088066  0.75895134  0.30632516  1
  Al  Al28  1  0.11099684  0.76116820  0.80147529  1
  Al  Al29  1  0.21917284  0.87354679  0.55008603  1
  Al  Al30  1  0.78627210  0.75657355  0.30666463  1
  Al  Al31  1  0.90130530  0.86601399  0.05283855  1
  Al  Al32  1  0.44132134  0.76052156  0.79122238  1
  Al  Al33  1  0.55672660  0.86962342  0.54945170  1
  Gd  Gd34  1  0.55832778  0.20833064  0.05053199  1
  Gd  Gd35  1  0.55832779  0.86667555  0.05053200  1
  N  N36  1  0.21554851  0.20889245  0.36354483  1
  N  N37  1  0.11168709  0.09463811  0.10914707  1
  N  N38  1  0.88723906  0.20545811  0.86031484  1
  N  N39  1  0.78145824  0.09300865  0.60356370  1
  N  N40  1  0.55846858  0.20639297  0.35672942  1
  N  N41  1  0.41536110  0.10898639  0.12987245  1
  N  N42  1  0.22385134  0.20474097  0.85863275  1
  N  N43  1  0.11035187  0.09462461  0.61202229  1
  N  N44  1  0.89067006  0.20778994  0.36178029  1
  N  N45  1  0.81117794  0.07721209  0.12125782  1
  N  N46  1  0.55430769  0.20567992  0.82815125  1
  N  N47  1  0.44095921  0.09618702  0.59518483  1
  N  N48  1  0.21862918  0.54018498  0.36164351  1
  N  N49  1  0.11168698  0.42700816  0.10914707  1
  N  N50  1  0.88723904  0.54063605  0.86031481  1
  N  N51  1  0.77706290  0.42813510  0.61196205  1
  N  N52  1  0.55831361  0.53750996  0.36226132  1
  N  N53  1  0.42762418  0.45482354  0.12092162  1
  N  N54  1  0.22269979  0.53840669  0.86015911  1
  N  N55  1  0.11035185  0.42835670  0.61202230  1
  N  N56  1  0.89067002  0.53487331  0.36178030  1
  N  N57  1  0.77520245  0.42906531  0.10867823  1
  N  N58  1  0.55294319  0.54019505  0.85970681  1
  N  N59  1  0.44168781  0.43173104  0.60331268  1
  N  N60  1  0.21862928  0.87451919  0.36164348  1
  N  N61  1  0.11393610  0.75969864  0.11017489  1
  N  N62  1  0.88691739  0.87320792  0.85948826  1
  N  N63  1  0.78145825  0.75886623  0.60356368  1
  N  N64  1  0.55846857  0.86847203  0.35672937  1
  N  N65  1  0.42762440  0.75088586  0.12092149  1
  N  N66  1  0.22269983  0.87222679  0.86015909  1
  N  N67  1  0.11131971  0.76100675  0.61229234  1
  N  N68  1  0.89329290  0.87002021  0.36375240  1
  N  N69  1  0.81117797  0.74494308  0.12125781  1
  N  N70  1  0.55430772  0.87334570  0.82815126  1
  N  N71  1  0.44168785  0.75991439  0.60331270  1
