# generated using pymatgen
data_GdAl17N18
_symmetry_space_group_name_H-M   'P 1'
_cell_length_a   9.88485855
_cell_length_b   9.83845846
_cell_length_c   9.14204704
_cell_angle_alpha   89.99995385
_cell_angle_beta   90.02721718
_cell_angle_gamma   60.16600134
_symmetry_Int_Tables_number   1
_chemical_formula_structural   GdAl17N18
_chemical_formula_sum   'Gd2 Al34 N36'
_cell_volume   771.25069350
_cell_formula_units_Z   2
loop_
 _symmetry_equiv_pos_site_id
 _symmetry_equiv_pos_as_xyz
  1  'x, y, z'
loop_
 _atom_site_type_symbol
 _atom_site_label
 _atom_site_symmetry_multiplicity
 _atom_site_fract_x
 _atom_site_fract_y
 _atom_site_fract_z
 _atom_site_occupancy
  Al  Al0  1  0.10987503  0.09397437  0.37325561  1
  Al  Al1  1  0.21241844  0.21046404  0.12758145  1
  Al  Al2  1  0.78889595  0.08864581  0.86277102  1
  Al  Al3  1  0.89053895  0.20844966  0.62443473  1
  Al  Al4  1  0.43968704  0.09681653  0.39230362  1
  Al  Al5  1  0.10966657  0.09671823  0.87548224  1
  Al  Al6  1  0.21333344  0.21000468  0.62156574  1
  Al  Al7  1  0.78341472  0.09234482  0.38365256  1
  Al  Al8  1  0.89405209  0.20322146  0.12367681  1
  Al  Al9  1  0.43549445  0.09891463  0.85206955  1
  Al  Al10  1  0.55788206  0.20700024  0.61751377  1
  Al  Al11  1  0.10987524  0.42947723  0.37325846  1
  Al  Al12  1  0.21798730  0.54301486  0.12318815  1
  Al  Al13  1  0.77689048  0.42821769  0.87610566  1
  Al  Al14  1  0.89053959  0.53435480  0.62443406  1
  Al  Al15  1  0.43973325  0.43309027  0.38431221  1
  Al  Al16  1  0.54840009  0.54247121  0.12421625  1
  Al  Al17  1  0.10966722  0.42694281  0.87547881  1
  Al  Al18  1  0.21731778  0.54115292  0.62480200  1
  Al  Al19  1  0.77647063  0.42842872  0.37074627  1
  Al  Al20  1  0.89405246  0.53606532  0.12367764  1
  Al  Al21  1  0.43981182  0.43508670  0.86253286  1
  Al  Al22  1  0.55833600  0.53750089  0.62391270  1
  Al  Al23  1  0.11398051  0.75967294  0.37370631  1
  Al  Al24  1  0.21799107  0.87234170  0.12318609  1
  Al  Al25  1  0.78889617  0.75578100  0.86277294  1
  Al  Al26  1  0.89519414  0.86907379  0.62113567  1
  Al  Al27  1  0.43973287  0.76049904  0.38431595  1
  Al  Al28  1  0.11081461  0.76125610  0.87596064  1
  Al  Al29  1  0.21731571  0.87487441  0.62480368  1
  Al  Al30  1  0.78341492  0.75756592  0.38365109  1
  Al  Al31  1  0.90224313  0.86554851  0.12655428  1
  Al  Al32  1  0.43981342  0.75842322  0.86252752  1
  Al  Al33  1  0.55788317  0.86845577  0.61751470  1
  Gd  Gd34  1  0.55862855  0.20732754  0.11159794  1
  Gd  Gd35  1  0.55862859  0.86739750  0.11159747  1
  N  N36  1  0.22248157  0.20543488  0.34073773  1
  N  N37  1  0.11044539  0.09567822  0.08791894  1
  N  N38  1  0.89079230  0.20921927  0.83366949  1
  N  N39  1  0.78324113  0.09313664  0.59254553  1
  N  N40  1  0.55589479  0.20531040  0.36718524  1
  N  N41  1  0.41124539  0.11103488  0.06463756  1
  N  N42  1  0.21237455  0.21048895  0.82795718  1
  N  N43  1  0.10868913  0.09461670  0.58199673  1
  N  N44  1  0.88818934  0.20586249  0.33551676  1
  N  N45  1  0.81330318  0.07479442  0.07523051  1
  N  N46  1  0.55978065  0.20617451  0.83423754  1
  N  N47  1  0.43922746  0.09704231  0.60215461  1
  N  N48  1  0.22268998  0.53804128  0.33607056  1
  N  N49  1  0.11044550  0.42719629  0.08791683  1
  N  N50  1  0.89079340  0.53333747  0.83366721  1
  N  N51  1  0.77710841  0.42810439  0.58098526  1
  N  N52  1  0.55272159  0.54031402  0.33852931  1
  N  N53  1  0.42680332  0.45576659  0.07505596  1
  N  N54  1  0.21683885  0.54058760  0.83363825  1
  N  N55  1  0.10869092  0.43001163  0.58199813  1
  N  N56  1  0.88819138  0.53929753  0.33551813  1
  N  N57  1  0.77393413  0.42968908  0.08920177  1
  N  N58  1  0.55961883  0.53686416  0.83126308  1
  N  N59  1  0.44003337  0.43297719  0.59381784  1
  N  N60  1  0.22269240  0.87261867  0.33606896  1
  N  N61  1  0.11378308  0.75976909  0.08727905  1
  N  N62  1  0.89565324  0.86884737  0.82733545  1
  N  N63  1  0.78324131  0.75693884  0.59254339  1
  N  N64  1  0.55589400  0.87213931  0.36718538  1
  N  N65  1  0.42680665  0.75074361  0.07505323  1
  N  N66  1  0.21683934  0.87592628  0.83364065  1
  N  N67  1  0.11364697  0.75983611  0.58209354  1
  N  N68  1  0.89028526  0.87153224  0.34117869  1
  N  N69  1  0.81330423  0.74521258  0.07523220  1
  N  N70  1  0.55978188  0.86739042  0.83423793  1
  N  N71  1  0.44003238  0.76030279  0.59382279  1
