# generated using pymatgen
data_GdAl17N18
_symmetry_space_group_name_H-M   'P 1'
_cell_length_a   9.51114282
_cell_length_b   9.49323609
_cell_length_c   10.14333370
_cell_angle_alpha   90.00000739
_cell_angle_beta   90.08971295
_cell_angle_gamma   60.06227737
_symmetry_Int_Tables_number   1
_chemical_formula_structural   GdAl17N18
_chemical_formula_sum   'Gd2 Al34 N36'
_cell_volume   793.65145976
_cell_formula_units_Z   2
loop_
 _symmetry_equiv_pos_site_id
 _symmetry_equiv_pos_as_xyz
  1  'x, y, z'
loop_
 _atom_site_type_symbol
 _atom_site_label
 _atom_site_symmetry_multiplicity
 _atom_site_fract_x
 _atom_site_fract_y
 _atom_site_fract_z
 _atom_site_occupancy
  Al  Al0  1  0.11047410  0.09451845  0.41012715  1
  Al  Al1  1  0.21463971  0.20934685  0.16030264  1
  Al  Al2  1  0.78613458  0.09055637  0.90480448  1
  Al  Al3  1  0.89023832  0.20693303  0.66130013  1
  Al  Al4  1  0.44071784  0.09630772  0.42894372  1
  Al  Al5  1  0.11050718  0.09544108  0.91128701  1
  Al  Al6  1  0.21679579  0.20826875  0.66185634  1
  Al  Al7  1  0.78015575  0.09312708  0.42009936  1
  Al  Al8  1  0.89468287  0.20349016  0.15975855  1
  Al  Al9  1  0.43844206  0.09744570  0.89899092  1
  Al  Al10  1  0.55658893  0.20705216  0.66201823  1
  Al  Al11  1  0.11047409  0.42834068  0.41012714  1
  Al  Al12  1  0.21774225  0.54368955  0.15931157  1
  Al  Al13  1  0.77758128  0.42787599  0.91047786  1
  Al  Al14  1  0.89023831  0.53616191  0.66130013  1
  Al  Al15  1  0.44118361  0.43155928  0.42024699  1
  Al  Al16  1  0.54916363  0.54208493  0.15880121  1
  Al  Al17  1  0.11050714  0.42738508  0.91128702  1
  Al  Al18  1  0.21903505  0.54068256  0.66138248  1
  Al  Al19  1  0.77626758  0.42853281  0.40950716  1
  Al  Al20  1  0.89468281  0.53516028  0.15975857  1
  Al  Al21  1  0.44074299  0.43357028  0.90514422  1
  Al  Al22  1  0.55673453  0.53829941  0.66260217  1
  Al  Al23  1  0.11085912  0.76123706  0.40999282  1
  Al  Al24  1  0.21774231  0.87190155  0.15931159  1
  Al  Al25  1  0.78613458  0.75664234  0.90480449  1
  Al  Al26  1  0.89238831  0.87047248  0.66190915  1
  Al  Al27  1  0.44118365  0.76059039  0.42024696  1
  Al  Al28  1  0.11132335  0.76100500  0.91176824  1
  Al  Al29  1  0.21903510  0.87361565  0.66138248  1
  Al  Al30  1  0.78015576  0.76005038  0.42009937  1
  Al  Al31  1  0.90116773  0.86608278  0.15863006  1
  Al  Al32  1  0.44074305  0.75902014  0.90514426  1
  Al  Al33  1  0.55658893  0.86969227  0.66201824  1
  Gd  Gd34  1  0.55819051  0.20839935  0.16093791  1
  Gd  Gd35  1  0.55819051  0.86674386  0.16093791  1
  N  N36  1  0.22371383  0.20480972  0.35283615  1
  N  N37  1  0.11154958  0.09470693  0.10232165  1
  N  N38  1  0.89053249  0.20785866  0.84968827  1
  N  N39  1  0.78132047  0.09307757  0.60790548  1
  N  N40  1  0.55416988  0.20574877  0.38331847  1
  N  N41  1  0.41522400  0.10905483  0.08159773  1
  N  N42  1  0.21541119  0.20896109  0.84792427  1
  N  N43  1  0.11021426  0.09469348  0.59944615  1
  N  N44  1  0.88710121  0.20552697  0.35115366  1
  N  N45  1  0.81104036  0.07728090  0.09021118  1
  N  N46  1  0.55833096  0.20646166  0.85474041  1
  N  N47  1  0.44082170  0.09625579  0.61628495  1
  N  N48  1  0.22256221  0.53847547  0.35130952  1
  N  N49  1  0.11154951  0.42707684  0.10232165  1
  N  N50  1  0.89053247  0.53494216  0.84968826  1
  N  N51  1  0.77692511  0.42820403  0.59950649  1
  N  N52  1  0.55280541  0.54026394  0.35176207  1
  N  N53  1  0.42748675  0.45489207  0.09054765  1
  N  N54  1  0.21849166  0.54025374  0.84982526  1
  N  N55  1  0.11021424  0.42842548  0.59944614  1
  N  N56  1  0.88710120  0.54070507  0.35115368  1
  N  N57  1  0.77506489  0.42913415  0.10279031  1
  N  N58  1  0.55817596  0.53757875  0.84920792  1
  N  N59  1  0.44155024  0.43179980  0.60815667  1
  N  N60  1  0.22256223  0.87229559  0.35130953  1
  N  N61  1  0.11379855  0.75976740  0.10129387  1
  N  N62  1  0.89315528  0.87008902  0.84771646  1
  N  N63  1  0.78132048  0.75893516  0.60790549  1
  N  N64  1  0.55416991  0.87341465  0.38331847  1
  N  N65  1  0.42748688  0.75095466  0.09054773  1
  N  N66  1  0.21849173  0.87458794  0.84982528  1
  N  N67  1  0.11118203  0.76107561  0.59917603  1
  N  N68  1  0.88677946  0.87327690  0.35198055  1
  N  N69  1  0.81104037  0.74501195  0.09021118  1
  N  N70  1  0.55833095  0.86854087  0.85474043  1
  N  N71  1  0.44155027  0.75998324  0.60815665  1
