# generated using pymatgen
data_GdAl17N18
_symmetry_space_group_name_H-M   'P 1'
_cell_length_a   9.70390608
_cell_length_b   9.66622798
_cell_length_c   9.64953241
_cell_angle_alpha   89.99992437
_cell_angle_beta   89.95865937
_cell_angle_gamma   60.15383604
_symmetry_Int_Tables_number   1
_chemical_formula_structural   GdAl17N18
_chemical_formula_sum   'Gd2 Al34 N36'
_cell_volume   785.07564928
_cell_formula_units_Z   2
loop_
 _symmetry_equiv_pos_site_id
 _symmetry_equiv_pos_as_xyz
  1  'x, y, z'
loop_
 _atom_site_type_symbol
 _atom_site_label
 _atom_site_symmetry_multiplicity
 _atom_site_fract_x
 _atom_site_fract_y
 _atom_site_fract_z
 _atom_site_occupancy
  Al  Al0  1  0.10985689  0.09637413  0.32734321  1
  Al  Al1  1  0.21342735  0.20996834  0.07730366  1
  Al  Al2  1  0.78137422  0.09288154  0.82037361  1
  Al  Al3  1  0.89047368  0.20776163  0.57855275  1
  Al  Al4  1  0.43585700  0.09873589  0.34778222  1
  Al  Al5  1  0.11023717  0.09411944  0.82998936  1
  Al  Al6  1  0.21420430  0.20957478  0.58012017  1
  Al  Al7  1  0.78879634  0.08899780  0.33711896  1
  Al  Al8  1  0.89420012  0.20323080  0.07939187  1
  Al  Al9  1  0.44100100  0.09615598  0.81123831  1
  Al  Al10  1  0.55781376  0.20711008  0.58076842  1
  Al  Al11  1  0.10985372  0.42709256  0.32734767  1
  Al  Al12  1  0.21786793  0.54341206  0.07982495  1
  Al  Al13  1  0.77639135  0.42845792  0.83134104  1
  Al  Al14  1  0.89047406  0.53510452  0.57855560  1
  Al  Al15  1  0.43983954  0.43514184  0.33712666  1
  Al  Al16  1  0.54825310  0.54255563  0.07931675  1
  Al  Al17  1  0.11023506  0.42896063  0.82998642  1
  Al  Al18  1  0.21810671  0.54086343  0.57824069  1
  Al  Al19  1  0.77719655  0.42805264  0.32767065  1
  Al  Al20  1  0.89419390  0.53589449  0.07938901  1
  Al  Al21  1  0.44092524  0.43151782  0.81977544  1
  Al  Al22  1  0.55773424  0.53780801  0.57833030  1
  Al  Al23  1  0.11111839  0.76110225  0.32694163  1
  Al  Al24  1  0.21788473  0.87207461  0.07982737  1
  Al  Al25  1  0.78137669  0.75905011  0.82037345  1
  Al  Al26  1  0.89411754  0.86961240  0.58005173  1
  Al  Al27  1  0.43985375  0.75833639  0.33712792  1
  Al  Al28  1  0.11280041  0.76025976  0.82953820  1
  Al  Al29  1  0.21811100  0.87438342  0.57823634  1
  Al  Al30  1  0.78880191  0.75549994  0.33711754  1
  Al  Al31  1  0.90218910  0.86557027  0.07851722  1
  Al  Al32  1  0.44092950  0.76087307  0.81977509  1
  Al  Al33  1  0.55781720  0.86842770  0.58076532  1
  Gd  Gd34  1  0.55798615  0.20742711  0.08880838  1
  Gd  Gd35  1  0.55799721  0.86800229  0.08880944  1
  N  N36  1  0.21250512  0.21043848  0.38623285  1
  N  N37  1  0.11071638  0.09535987  0.12812323  1
  N  N38  1  0.88774094  0.20562799  0.88036839  1
  N  N39  1  0.78228002  0.09310116  0.62380478  1
  N  N40  1  0.55966076  0.20641216  0.37699717  1
  N  N41  1  0.41064553  0.11133948  0.15350560  1
  N  N42  1  0.22360863  0.20488326  0.87685462  1
  N  N43  1  0.10925617  0.09458630  0.63322985  1
  N  N44  1  0.89084862  0.20873403  0.38201210  1
  N  N45  1  0.81359103  0.07508324  0.14144835  1
  N  N46  1  0.55524302  0.20517404  0.85098204  1
  N  N47  1  0.44034609  0.09647157  0.61338592  1
  N  N48  1  0.21739260  0.54045135  0.38181426  1
  N  N49  1  0.11071061  0.42722314  0.12812517  1
  N  N50  1  0.88774196  0.53999116  0.88036398  1
  N  N51  1  0.77707382  0.42810209  0.63351931  1
  N  N52  1  0.55916706  0.53710680  0.38353441  1
  N  N53  1  0.42641686  0.45641345  0.14124442  1
  N  N54  1  0.22298293  0.53809771  0.87999265  1
  N  N55  1  0.10925725  0.42945080  0.63322970  1
  N  N56  1  0.89084909  0.53377485  0.38201850  1
  N  N57  1  0.77411515  0.42956845  0.12758767  1
  N  N58  1  0.55276821  0.54030255  0.87855773  1
  N  N59  1  0.44091899  0.43208711  0.62289232  1
  N  N60  1  0.21740488  0.87553156  0.38180637  1
  N  N61  1  0.11390844  0.75969987  0.12909882  1
  N  N62  1  0.88905527  0.87215287  0.87736466  1
  N  N63  1  0.78228275  0.75789778  0.62380593  1
  N  N64  1  0.55966509  0.86730759  0.37699368  1
  N  N65  1  0.42644609  0.75047463  0.14123427  1
  N  N66  1  0.22299093  0.87229141  0.87999632  1
  N  N67  1  0.11266158  0.76031963  0.63300039  1
  N  N68  1  0.89505306  0.86915366  0.38619452  1
  N  N69  1  0.81360220  0.74457393  0.14144827  1
  N  N70  1  0.55524594  0.87295469  0.85098263  1
  N  N71  1  0.44092287  0.76028354  0.62288835  1
