
#======================================================================
# CRYSTAL DATA
#----------------------------------------------------------------------
data_VESTA_phase_1

_chemical_name_common                  'Al   Hf   Mg   N                      '
_cell_length_a                         9.605427
_cell_length_b                         9.586512
_cell_length_c                         10.102592
_cell_angle_alpha                      89.975342
_cell_angle_beta                       89.976906
_cell_angle_gamma                      60.060089
_cell_volume                           806.126745
_space_group_name_H-M_alt              'P 1'
_space_group_IT_number                 1

loop_
_space_group_symop_operation_xyz
   'x, y, z'

loop_
   _atom_site_label
   _atom_site_occupancy
   _atom_site_fract_x
   _atom_site_fract_y
   _atom_site_fract_z
   _atom_site_adp_type
   _atom_site_U_iso_or_equiv
   _atom_site_type_symbol
   Al1        1.0     0.117122     0.088574     0.310270    Uiso  ? Al
   Al2        1.0     0.216807     0.210373     0.060370    Uiso  ? Al
   Al3        1.0     0.895184     0.199310     0.561543    Uiso  ? Al
   Al4        1.0     0.440458     0.099710     0.314551    Uiso  ? Al
   Al5        1.0     0.545931     0.215010     0.065309    Uiso  ? Al
   Al6        1.0     0.117938     0.093448     0.808903    Uiso  ? Al
   Al7        1.0     0.219914     0.208591     0.561925    Uiso  ? Al
   Al8        1.0     0.777222     0.089448     0.308717    Uiso  ? Al
   Al9        1.0     0.894551     0.206529     0.062155    Uiso  ? Al
   Al10       1.0     0.436131     0.099272     0.804253    Uiso  ? Al
   Al11       1.0     0.550505     0.209565     0.557269    Uiso  ? Al
   Al12       1.0     0.117236     0.428992     0.308245    Uiso  ? Al
   Al13       1.0     0.223431     0.538014     0.061902    Uiso  ? Al
   Al14       1.0     0.777148     0.433901     0.802984    Uiso  ? Al
   Al15       1.0     0.897125     0.539600     0.566366    Uiso  ? Al
   Al16       1.0     0.435065     0.430528     0.308725    Uiso  ? Al
   Al17       1.0     0.112488     0.425943     0.809652    Uiso  ? Al
   Al18       1.0     0.898603     0.532308     0.056659    Uiso  ? Al
   Al19       1.0     0.440676     0.432314     0.806768    Uiso  ? Al
   Al20       1.0     0.547170     0.540979     0.568239    Uiso  ? Al
   Al21       1.0     0.113692     0.759152     0.310480    Uiso  ? Al
   Al22       1.0     0.216516     0.873330     0.059476    Uiso  ? Al
   Al23       1.0     0.782110     0.754104     0.805485    Uiso  ? Al
   Al24       1.0     0.893714     0.868105     0.558185    Uiso  ? Al
   Al25       1.0     0.433690     0.765296     0.313748    Uiso  ? Al
   Al26       1.0     0.115800     0.757339     0.808413    Uiso  ? Al
   Al27       1.0     0.219222     0.872825     0.562488    Uiso  ? Al
   Al28       1.0     0.785119     0.761948     0.313802    Uiso  ? Al
   Al29       1.0     0.898672     0.864698     0.064727    Uiso  ? Al
   Al30       1.0     0.442056     0.758896     0.803671    Uiso  ? Al
   Hf1        1.0     0.776033     0.094057     0.817057    Uiso  ? Hf
   Hf2        1.0     0.777301     0.429726     0.323385    Uiso  ? Hf
   Hf3        1.0     0.555655     0.871479     0.073509    Uiso  ? Hf
   Mg1        1.0     0.553483     0.534762     0.055833    Uiso  ? Mg
   Mg2        1.0     0.221195     0.539415     0.563624    Uiso  ? Mg
   Mg3        1.0     0.555801     0.871936     0.558630    Uiso  ? Mg
   N1         1.0     0.219269     0.207013     0.368909    Uiso  ? N
   N2         1.0     0.111701     0.093859     0.119545    Uiso  ? N
   N3         1.0     0.897453     0.214451     0.870074    Uiso  ? N
   N4         1.0     0.776414     0.093682     0.611392    Uiso  ? N
   N5         1.0     0.556974     0.205754     0.366144    Uiso  ? N
   N6         1.0     0.432090     0.112452     0.123984    Uiso  ? N
   N7         1.0     0.222360     0.204410     0.871548    Uiso  ? N
   N8         1.0     0.112165     0.094388     0.619732    Uiso  ? N
   N9         1.0     0.898217     0.186287     0.370880    Uiso  ? N
   N10        1.0     0.777166     0.094250     0.111233    Uiso  ? N
   N11        1.0     0.537795     0.213131     0.875461    Uiso  ? N
   N12        1.0     0.436632     0.109084     0.618167    Uiso  ? N
   N13        1.0     0.219832     0.541028     0.358629    Uiso  ? N
   N14        1.0     0.111837     0.427042     0.116829    Uiso  ? N
   N15        1.0     0.889061     0.537863     0.867674    Uiso  ? N
   N16        1.0     0.779517     0.426924     0.605800    Uiso  ? N
   N17        1.0     0.536023     0.547774     0.373746    Uiso  ? N
   N18        1.0     0.436523     0.423933     0.122737    Uiso  ? N
   N19        1.0     0.222278     0.539033     0.868719    Uiso  ? N
   N20        1.0     0.105768     0.418567     0.625516    Uiso  ? N
   N21        1.0     0.900918     0.546744     0.375145    Uiso  ? N
   N22        1.0     0.792848     0.422335     0.119503    Uiso  ? N
   N23        1.0     0.558734     0.537628     0.852968    Uiso  ? N
   N24        1.0     0.458345     0.417434     0.622209    Uiso  ? N
   N25        1.0     0.218342     0.874203     0.371259    Uiso  ? N
   N26        1.0     0.112507     0.761342     0.119256    Uiso  ? N
   N27        1.0     0.896933     0.855115     0.876019    Uiso  ? N
   N28        1.0     0.792373     0.755634     0.620385    Uiso  ? N
   N29        1.0     0.557940     0.870766     0.342747    Uiso  ? N
   N30        1.0     0.425802     0.766071     0.125641    Uiso  ? N
   N31        1.0     0.221331     0.873539     0.869995    Uiso  ? N
   N32        1.0     0.101632     0.778472     0.623882    Uiso  ? N
   N33        1.0     0.890770     0.873168     0.366745    Uiso  ? N
   N34        1.0     0.800052     0.747400     0.123580    Uiso  ? N
   N35        1.0     0.555965     0.872862     0.861602    Uiso  ? N
   N36        1.0     0.434069     0.757989     0.618281    Uiso  ? N
