
#======================================================================
# CRYSTAL DATA
#----------------------------------------------------------------------
data_VESTA_phase_1

_chemical_name_common                  'Al   Hf   Mg   N                      '
_cell_length_a                         9.605442
_cell_length_b                         9.586535
_cell_length_c                         10.102532
_cell_angle_alpha                      89.975243
_cell_angle_beta                       89.976799
_cell_angle_gamma                      60.060192
_cell_volume                           806.125990
_space_group_name_H-M_alt              'P 1'
_space_group_IT_number                 1

loop_
_space_group_symop_operation_xyz
   'x, y, z'

loop_
   _atom_site_label
   _atom_site_occupancy
   _atom_site_fract_x
   _atom_site_fract_y
   _atom_site_fract_z
   _atom_site_adp_type
   _atom_site_U_iso_or_equiv
   _atom_site_type_symbol
   Al1        1.0     0.117111     0.088582     0.317774    Uiso  ? Al
   Al2        1.0     0.216796     0.210382     0.067874    Uiso  ? Al
   Al3        1.0     0.895174     0.199317     0.569048    Uiso  ? Al
   Al4        1.0     0.440446     0.099719     0.322055    Uiso  ? Al
   Al5        1.0     0.545919     0.215019     0.072813    Uiso  ? Al
   Al6        1.0     0.117927     0.093456     0.816407    Uiso  ? Al
   Al7        1.0     0.219902     0.208599     0.569428    Uiso  ? Al
   Al8        1.0     0.777211     0.089456     0.316220    Uiso  ? Al
   Al9        1.0     0.894540     0.206538     0.069659    Uiso  ? Al
   Al10       1.0     0.436120     0.099280     0.811756    Uiso  ? Al
   Al11       1.0     0.550495     0.209573     0.564772    Uiso  ? Al
   Al12       1.0     0.117225     0.429001     0.315749    Uiso  ? Al
   Al13       1.0     0.223420     0.538023     0.069405    Uiso  ? Al
   Al14       1.0     0.777137     0.433909     0.810487    Uiso  ? Al
   Al15       1.0     0.897115     0.539608     0.573870    Uiso  ? Al
   Al16       1.0     0.435054     0.430536     0.316229    Uiso  ? Al
   Al17       1.0     0.112477     0.425951     0.817156    Uiso  ? Al
   Al18       1.0     0.898592     0.532316     0.064163    Uiso  ? Al
   Al19       1.0     0.440665     0.432322     0.814272    Uiso  ? Al
   Al20       1.0     0.547159     0.540988     0.575743    Uiso  ? Al
   Al21       1.0     0.113681     0.759160     0.317985    Uiso  ? Al
   Al22       1.0     0.216505     0.873338     0.066980    Uiso  ? Al
   Al23       1.0     0.782099     0.754113     0.812988    Uiso  ? Al
   Al24       1.0     0.893703     0.868113     0.565689    Uiso  ? Al
   Al25       1.0     0.433679     0.765305     0.321251    Uiso  ? Al
   Al26       1.0     0.115789     0.757347     0.815917    Uiso  ? Al
   Al27       1.0     0.219211     0.872833     0.569991    Uiso  ? Al
   Al28       1.0     0.785108     0.761955     0.321305    Uiso  ? Al
   Al29       1.0     0.898662     0.864705     0.072230    Uiso  ? Al
   Al30       1.0     0.442044     0.758905     0.811175    Uiso  ? Al
   Hf1        1.0     0.776022     0.094065     0.824563    Uiso  ? Hf
   Hf2        1.0     0.777290     0.429734     0.330891    Uiso  ? Hf
   Hf3        1.0     0.555643     0.871488     0.081013    Uiso  ? Hf
   Mg1        1.0     0.553473     0.534770     0.063338    Uiso  ? Mg
   Mg2        1.0     0.221184     0.539423     0.571128    Uiso  ? Mg
   Mg3        1.0     0.555790     0.871944     0.566133    Uiso  ? Mg
   N1         1.0     0.219258     0.207021     0.376412    Uiso  ? N
   N2         1.0     0.111690     0.093867     0.127048    Uiso  ? N
   N3         1.0     0.897442     0.214460     0.877577    Uiso  ? N
   N4         1.0     0.776403     0.093690     0.618897    Uiso  ? N
   N5         1.0     0.556963     0.205762     0.373647    Uiso  ? N
   N6         1.0     0.432078     0.112461     0.131487    Uiso  ? N
   N7         1.0     0.222349     0.204418     0.879051    Uiso  ? N
   N8         1.0     0.112154     0.094395     0.627235    Uiso  ? N
   N9         1.0     0.898206     0.186294     0.378384    Uiso  ? N
   N10        1.0     0.777155     0.094258     0.118734    Uiso  ? N
   N11        1.0     0.537783     0.213139     0.882964    Uiso  ? N
   N12        1.0     0.436621     0.109092     0.625669    Uiso  ? N
   N13        1.0     0.219821     0.541037     0.366132    Uiso  ? N
   N14        1.0     0.111826     0.427051     0.124332    Uiso  ? N
   N15        1.0     0.889050     0.537871     0.875176    Uiso  ? N
   N16        1.0     0.779507     0.426932     0.613302    Uiso  ? N
   N17        1.0     0.536012     0.547783     0.381249    Uiso  ? N
   N18        1.0     0.436512     0.423942     0.130240    Uiso  ? N
   N19        1.0     0.222267     0.539042     0.876222    Uiso  ? N
   N20        1.0     0.105757     0.418574     0.633019    Uiso  ? N
   N21        1.0     0.900907     0.546752     0.382648    Uiso  ? N
   N22        1.0     0.792837     0.422342     0.127007    Uiso  ? N
   N23        1.0     0.558723     0.537637     0.860471    Uiso  ? N
   N24        1.0     0.458334     0.417442     0.629712    Uiso  ? N
   N25        1.0     0.218331     0.874211     0.378761    Uiso  ? N
   N26        1.0     0.112496     0.761350     0.126759    Uiso  ? N
   N27        1.0     0.896922     0.855122     0.883522    Uiso  ? N
   N28        1.0     0.792362     0.755642     0.627887    Uiso  ? N
   N29        1.0     0.557929     0.870774     0.350249    Uiso  ? N
   N30        1.0     0.425791     0.766080     0.133143    Uiso  ? N
   N31        1.0     0.221320     0.873548     0.877498    Uiso  ? N
   N32        1.0     0.101621     0.778480     0.631384    Uiso  ? N
   N33        1.0     0.890759     0.873176     0.374247    Uiso  ? N
   N34        1.0     0.800041     0.747407     0.131082    Uiso  ? N
   N35        1.0     0.555953     0.872871     0.869105    Uiso  ? N
   N36        1.0     0.434057     0.757997     0.625784    Uiso  ? N
