
#======================================================================
# CRYSTAL DATA
#----------------------------------------------------------------------
data_VESTA_phase_1

_chemical_name_common                  'Al   Hf   Mg   N                      '
_cell_length_a                         10.006550
_cell_length_b                         9.988778
_cell_length_c                         8.931473
_cell_angle_alpha                      89.888672
_cell_angle_beta                       89.913834
_cell_angle_gamma                      60.116154
_cell_volume                           774.027987
_space_group_name_H-M_alt              'P 1'
_space_group_IT_number                 1

loop_
_space_group_symop_operation_xyz
   'x, y, z'

loop_
   _atom_site_label
   _atom_site_occupancy
   _atom_site_fract_x
   _atom_site_fract_y
   _atom_site_fract_z
   _atom_site_adp_type
   _atom_site_U_iso_or_equiv
   _atom_site_type_symbol
   Al1        1.0     0.116030     0.088416     0.334757    Uiso  ? Al
   Al2        1.0     0.219491     0.209271     0.090910    Uiso  ? Al
   Al3        1.0     0.895552     0.199153     0.593817    Uiso  ? Al
   Al4        1.0     0.439515     0.098307     0.356166    Uiso  ? Al
   Al5        1.0     0.542631     0.213396     0.102074    Uiso  ? Al
   Al6        1.0     0.118216     0.093939     0.837453    Uiso  ? Al
   Al7        1.0     0.215292     0.209785     0.581781    Uiso  ? Al
   Al8        1.0     0.778834     0.091591     0.334607    Uiso  ? Al
   Al9        1.0     0.897261     0.205698     0.088178    Uiso  ? Al
   Al10       1.0     0.436235     0.100997     0.820929    Uiso  ? Al
   Al11       1.0     0.553800     0.211370     0.576961    Uiso  ? Al
   Al12       1.0     0.114801     0.429453     0.337362    Uiso  ? Al
   Al13       1.0     0.220430     0.539966     0.092939    Uiso  ? Al
   Al14       1.0     0.777885     0.432197     0.841186    Uiso  ? Al
   Al15       1.0     0.898500     0.536024     0.597370    Uiso  ? Al
   Al16       1.0     0.436287     0.433271     0.334549    Uiso  ? Al
   Al17       1.0     0.116041     0.424432     0.835242    Uiso  ? Al
   Al18       1.0     0.898316     0.535634     0.079490    Uiso  ? Al
   Al19       1.0     0.439154     0.429170     0.840282    Uiso  ? Al
   Al20       1.0     0.550236     0.537842     0.608867    Uiso  ? Al
   Al21       1.0     0.116422     0.758832     0.342382    Uiso  ? Al
   Al22       1.0     0.216105     0.872967     0.084403    Uiso  ? Al
   Al23       1.0     0.782920     0.757270     0.824912    Uiso  ? Al
   Al24       1.0     0.893362     0.871858     0.576890    Uiso  ? Al
   Al25       1.0     0.436184     0.764362     0.359698    Uiso  ? Al
   Al26       1.0     0.112725     0.757275     0.831051    Uiso  ? Al
   Al27       1.0     0.216834     0.875473     0.590769    Uiso  ? Al
   Al28       1.0     0.783065     0.759504     0.354292    Uiso  ? Al
   Al29       1.0     0.899549     0.860266     0.102591    Uiso  ? Al
   Al30       1.0     0.439659     0.761558     0.834646    Uiso  ? Al
   Hf1        1.0     0.774390     0.091920     0.854755    Uiso  ? Hf
   Hf2        1.0     0.777197     0.429423     0.351596    Uiso  ? Hf
   Hf3        1.0     0.555249     0.873631     0.103362    Uiso  ? Hf
   Mg1        1.0     0.550614     0.539333     0.089263    Uiso  ? Mg
   Mg2        1.0     0.223265     0.537585     0.593893    Uiso  ? Mg
   Mg3        1.0     0.556076     0.871541     0.597356    Uiso  ? Mg
   N1         1.0     0.215560     0.207644     0.365568    Uiso  ? N
   N2         1.0     0.111888     0.093264     0.116985    Uiso  ? N
   N3         1.0     0.897308     0.211647     0.864957    Uiso  ? N
   N4         1.0     0.776348     0.092694     0.613405    Uiso  ? N
   N5         1.0     0.559310     0.206677     0.359873    Uiso  ? N
   N6         1.0     0.432463     0.109659     0.133187    Uiso  ? N
   N7         1.0     0.225093     0.203069     0.872922    Uiso  ? N
   N8         1.0     0.112688     0.094919     0.620777    Uiso  ? N
   N9         1.0     0.898210     0.187741     0.369827    Uiso  ? N
   N10        1.0     0.778804     0.095187     0.111730    Uiso  ? N
   N11        1.0     0.537430     0.209745     0.877029    Uiso  ? N
   N12        1.0     0.434896     0.112004     0.604058    Uiso  ? N
   N13        1.0     0.220621     0.539710     0.356706    Uiso  ? N
   N14        1.0     0.110629     0.427203     0.116125    Uiso  ? N
   N15        1.0     0.889324     0.540289     0.861364    Uiso  ? N
   N16        1.0     0.781193     0.424971     0.611673    Uiso  ? N
   N17        1.0     0.540046     0.546520     0.369501    Uiso  ? N
   N18        1.0     0.435562     0.424790     0.116704    Uiso  ? N
   N19        1.0     0.220056     0.540857     0.868829    Uiso  ? N
   N20        1.0     0.108249     0.417913     0.622399    Uiso  ? N
   N21        1.0     0.899936     0.543375     0.375857    Uiso  ? N
   N22        1.0     0.793002     0.422361     0.111065    Uiso  ? N
   N23        1.0     0.557589     0.538374     0.849851    Uiso  ? N
   N24        1.0     0.457505     0.417440     0.621652    Uiso  ? N
   N25        1.0     0.219360     0.875210     0.371257    Uiso  ? N
   N26        1.0     0.113502     0.761315     0.122592    Uiso  ? N
   N27        1.0     0.896985     0.854320     0.878333    Uiso  ? N
   N28        1.0     0.794598     0.755637     0.610004    Uiso  ? N
   N29        1.0     0.557402     0.869758     0.357971    Uiso  ? N
   N30        1.0     0.426707     0.769877     0.113918    Uiso  ? N
   N31        1.0     0.217827     0.873871     0.865702    Uiso  ? N
   N32        1.0     0.101717     0.776467     0.615863    Uiso  ? N
   N33        1.0     0.889775     0.874485     0.359277    Uiso  ? N
   N34        1.0     0.796229     0.747212     0.127463    Uiso  ? N
   N35        1.0     0.557385     0.875909     0.855829    Uiso  ? N
   N36        1.0     0.433554     0.757331     0.613500    Uiso  ? N
