
#======================================================================
# CRYSTAL DATA
#----------------------------------------------------------------------
data_VESTA_phase_1

_chemical_name_common                  'Al   Hf   Mg   N                      '
_cell_length_a                         9.734740
_cell_length_b                         9.725627
_cell_length_c                         9.729858
_cell_angle_alpha                      89.942749
_cell_angle_beta                       90.031578
_cell_angle_gamma                      60.083035
_cell_volume                           798.438302
_space_group_name_H-M_alt              'P 1'
_space_group_IT_number                 1

loop_
_space_group_symop_operation_xyz
   'x, y, z'

loop_
   _atom_site_label
   _atom_site_occupancy
   _atom_site_fract_x
   _atom_site_fract_y
   _atom_site_fract_z
   _atom_site_adp_type
   _atom_site_U_iso_or_equiv
   _atom_site_type_symbol
   Al1        1.0     0.117520     0.088256     0.381520    Uiso  ? Al
   Al2        1.0     0.216654     0.211068     0.130515    Uiso  ? Al
   Al3        1.0     0.895047     0.208899     0.626357    Uiso  ? Al
   Al4        1.0     0.440089     0.098429     0.385437    Uiso  ? Al
   Al5        1.0     0.550547     0.211317     0.135178    Uiso  ? Al
   Al6        1.0     0.116664     0.093975     0.881079    Uiso  ? Al
   Al7        1.0     0.218753     0.207951     0.629324    Uiso  ? Al
   Al8        1.0     0.777416     0.088609     0.388026    Uiso  ? Al
   Al9        1.0     0.895985     0.196303     0.129300    Uiso  ? Al
   Al10       1.0     0.435302     0.101336     0.874685    Uiso  ? Al
   Al11       1.0     0.544989     0.213487     0.623063    Uiso  ? Al
   Al12       1.0     0.114882     0.427977     0.384466    Uiso  ? Al
   Al13       1.0     0.222771     0.536295     0.129225    Uiso  ? Al
   Al14       1.0     0.781213     0.430602     0.888834    Uiso  ? Al
   Al15       1.0     0.893136     0.535443     0.632847    Uiso  ? Al
   Al16       1.0     0.440457     0.431415     0.381722    Uiso  ? Al
   Al17       1.0     0.114546     0.427555     0.878745    Uiso  ? Al
   Al18       1.0     0.902996     0.536245     0.124903    Uiso  ? Al
   Al19       1.0     0.435005     0.431270     0.883592    Uiso  ? Al
   Al20       1.0     0.554388     0.536367     0.633583    Uiso  ? Al
   Al21       1.0     0.112386     0.762200     0.380359    Uiso  ? Al
   Al22       1.0     0.217494     0.873559     0.130863    Uiso  ? Al
   Al23       1.0     0.785427     0.752760     0.873035    Uiso  ? Al
   Al24       1.0     0.898500     0.861677     0.625036    Uiso  ? Al
   Al25       1.0     0.436556     0.763137     0.390992    Uiso  ? Al
   Al26       1.0     0.117202     0.754513     0.883074    Uiso  ? Al
   Al27       1.0     0.217301     0.873193     0.630458    Uiso  ? Al
   Al28       1.0     0.782143     0.762898     0.387381    Uiso  ? Al
   Al29       1.0     0.895206     0.868940     0.134136    Uiso  ? Al
   Al30       1.0     0.438352     0.762546     0.870115    Uiso  ? Al
   Hf1        1.0     0.776253     0.094324     0.860257    Uiso  ? Hf
   Hf2        1.0     0.775437     0.430966     0.360226    Uiso  ? Hf
   Hf3        1.0     0.555603     0.871879     0.113174    Uiso  ? Hf
   Mg1        1.0     0.546067     0.540324     0.115387    Uiso  ? Mg
   Mg2        1.0     0.222138     0.540211     0.624933    Uiso  ? Mg
   Mg3        1.0     0.556051     0.873120     0.628014    Uiso  ? Mg
   N1         1.0     0.220171     0.206050     0.325815    Uiso  ? N
   N2         1.0     0.111704     0.093696     0.077286    Uiso  ? N
   N3         1.0     0.898340     0.215747     0.825421    Uiso  ? N
   N4         1.0     0.777984     0.094071     0.592123    Uiso  ? N
   N5         1.0     0.557913     0.203602     0.331294    Uiso  ? N
   N6         1.0     0.433313     0.113054     0.074457    Uiso  ? N
   N7         1.0     0.219658     0.206222     0.826871    Uiso  ? N
   N8         1.0     0.112414     0.094020     0.576581    Uiso  ? N
   N9         1.0     0.897381     0.184272     0.327560    Uiso  ? N
   N10        1.0     0.776252     0.092786     0.077994    Uiso  ? N
   N11        1.0     0.536113     0.215818     0.821226    Uiso  ? N
   N12        1.0     0.433737     0.109616     0.577103    Uiso  ? N
   N13        1.0     0.221308     0.539335     0.328716    Uiso  ? N
   N14        1.0     0.114741     0.425261     0.075518    Uiso  ? N
   N15        1.0     0.890961     0.534942     0.830242    Uiso  ? N
   N16        1.0     0.777397     0.429579     0.578140    Uiso  ? N
   N17        1.0     0.536995     0.551662     0.329770    Uiso  ? N
   N18        1.0     0.436252     0.418513     0.076583    Uiso  ? N
   N19        1.0     0.220521     0.540481     0.837634    Uiso  ? N
   N20        1.0     0.102671     0.419738     0.575766    Uiso  ? N
   N21        1.0     0.898691     0.550704     0.320896    Uiso  ? N
   N22        1.0     0.795063     0.419018     0.090550    Uiso  ? N
   N23        1.0     0.559373     0.534090     0.835263    Uiso  ? N
   N24        1.0     0.458970     0.422582     0.573517    Uiso  ? N
   N25        1.0     0.223030     0.873186     0.326198    Uiso  ? N
   N26        1.0     0.110262     0.762233     0.081083    Uiso  ? N
   N27        1.0     0.901221     0.853485     0.822824    Uiso  ? N
   N28        1.0     0.793440     0.750883     0.579624    Uiso  ? N
   N29        1.0     0.555662     0.871286     0.335639    Uiso  ? N
   N30        1.0     0.423223     0.771384     0.065044    Uiso  ? N
   N31        1.0     0.215253     0.875935     0.826667    Uiso  ? N
   N32        1.0     0.105428     0.776114     0.570900    Uiso  ? N
   N33        1.0     0.887010     0.874064     0.329351    Uiso  ? N
   N34        1.0     0.799879     0.751356     0.070723    Uiso  ? N
   N35        1.0     0.558409     0.873774     0.851106    Uiso  ? N
   N36        1.0     0.435659     0.754551     0.586236    Uiso  ? N
