
#======================================================================
# CRYSTAL DATA
#----------------------------------------------------------------------
data_VESTA_phase_1

_chemical_name_common                  'Al   Hf   Mg   N                      '
_cell_length_a                         9.605438
_cell_length_b                         9.586525
_cell_length_c                         10.102567
_cell_angle_alpha                      89.975372
_cell_angle_beta                       89.976982
_cell_angle_gamma                      60.060112
_cell_volume                           806.126960
_space_group_name_H-M_alt              'P 1'
_space_group_IT_number                 1

loop_
_space_group_symop_operation_xyz
   'x, y, z'

loop_
   _atom_site_label
   _atom_site_occupancy
   _atom_site_fract_x
   _atom_site_fract_y
   _atom_site_fract_z
   _atom_site_adp_type
   _atom_site_U_iso_or_equiv
   _atom_site_type_symbol
   Al1        1.0     0.117139     0.088563     0.299274    Uiso  ? Al
   Al2        1.0     0.216823     0.210361     0.049372    Uiso  ? Al
   Al3        1.0     0.895201     0.199298     0.550545    Uiso  ? Al
   Al4        1.0     0.440474     0.099699     0.303545    Uiso  ? Al
   Al5        1.0     0.545946     0.215000     0.054303    Uiso  ? Al
   Al6        1.0     0.117955     0.093437     0.797904    Uiso  ? Al
   Al7        1.0     0.219930     0.208580     0.550926    Uiso  ? Al
   Al8        1.0     0.777239     0.089437     0.297711    Uiso  ? Al
   Al9        1.0     0.894568     0.206518     0.051157    Uiso  ? Al
   Al10       1.0     0.436147     0.099260     0.793250    Uiso  ? Al
   Al11       1.0     0.550523     0.209552     0.546263    Uiso  ? Al
   Al12       1.0     0.117252     0.428981     0.297241    Uiso  ? Al
   Al13       1.0     0.223449     0.538003     0.050903    Uiso  ? Al
   Al14       1.0     0.777164     0.433889     0.791983    Uiso  ? Al
   Al15       1.0     0.897143     0.539588     0.555362    Uiso  ? Al
   Al16       1.0     0.435082     0.430516     0.297726    Uiso  ? Al
   Al17       1.0     0.112505     0.425932     0.798654    Uiso  ? Al
   Al18       1.0     0.898619     0.532297     0.045654    Uiso  ? Al
   Al19       1.0     0.440692     0.432303     0.795762    Uiso  ? Al
   Al20       1.0     0.547187     0.540969     0.557239    Uiso  ? Al
   Al21       1.0     0.113708     0.759140     0.299482    Uiso  ? Al
   Al22       1.0     0.216532     0.873319     0.048477    Uiso  ? Al
   Al23       1.0     0.782126     0.754093     0.794477    Uiso  ? Al
   Al24       1.0     0.893730     0.868094     0.547181    Uiso  ? Al
   Al25       1.0     0.433707     0.765284     0.302742    Uiso  ? Al
   Al26       1.0     0.115817     0.757327     0.797412    Uiso  ? Al
   Al27       1.0     0.219240     0.872813     0.551488    Uiso  ? Al
   Al28       1.0     0.785137     0.761936     0.302796    Uiso  ? Al
   Al29       1.0     0.898690     0.864684     0.053720    Uiso  ? Al
   Al30       1.0     0.442072     0.758885     0.792671    Uiso  ? Al
   Hf1        1.0     0.776050     0.094046     0.806057    Uiso  ? Hf
   Hf2        1.0     0.777318     0.429714     0.312385    Uiso  ? Hf
   Hf3        1.0     0.555672     0.871467     0.062506    Uiso  ? Hf
   Mg1        1.0     0.553501     0.534749     0.044831    Uiso  ? Mg
   Mg2        1.0     0.221210     0.539403     0.552623    Uiso  ? Mg
   Mg3        1.0     0.555817     0.871925     0.547625    Uiso  ? Mg
   N1         1.0     0.219287     0.207002     0.357908    Uiso  ? N
   N2         1.0     0.111717     0.093848     0.108548    Uiso  ? N
   N3         1.0     0.897470     0.214440     0.859075    Uiso  ? N
   N4         1.0     0.776431     0.093670     0.600392    Uiso  ? N
   N5         1.0     0.556992     0.205741     0.355140    Uiso  ? N
   N6         1.0     0.432107     0.112441     0.112980    Uiso  ? N
   N7         1.0     0.222377     0.204397     0.860549    Uiso  ? N
   N8         1.0     0.112182     0.094376     0.608732    Uiso  ? N
   N9         1.0     0.898233     0.186274     0.359881    Uiso  ? N
   N10        1.0     0.777182     0.094238     0.100226    Uiso  ? N
   N11        1.0     0.537811     0.213120     0.864456    Uiso  ? N
   N12        1.0     0.436650     0.109072     0.607164    Uiso  ? N
   N13        1.0     0.219849     0.541017     0.347627    Uiso  ? N
   N14        1.0     0.111853     0.427031     0.105825    Uiso  ? N
   N15        1.0     0.889077     0.537853     0.856669    Uiso  ? N
   N16        1.0     0.779534     0.426913     0.594798    Uiso  ? N
   N17        1.0     0.536040     0.547764     0.362745    Uiso  ? N
   N18        1.0     0.436540     0.423921     0.111736    Uiso  ? N
   N19        1.0     0.222296     0.539022     0.857719    Uiso  ? N
   N20        1.0     0.105784     0.418555     0.614517    Uiso  ? N
   N21        1.0     0.900935     0.546733     0.364141    Uiso  ? N
   N22        1.0     0.792865     0.422324     0.108502    Uiso  ? N
   N23        1.0     0.558750     0.537616     0.841966    Uiso  ? N
   N24        1.0     0.458362     0.417422     0.611203    Uiso  ? N
   N25        1.0     0.218360     0.874191     0.360259    Uiso  ? N
   N26        1.0     0.112523     0.761331     0.108255    Uiso  ? N
   N27        1.0     0.896949     0.855102     0.865014    Uiso  ? N
   N28        1.0     0.792389     0.755623     0.609377    Uiso  ? N
   N29        1.0     0.557957     0.870754     0.331741    Uiso  ? N
   N30        1.0     0.425819     0.766059     0.114636    Uiso  ? N
   N31        1.0     0.221347     0.873528     0.858995    Uiso  ? N
   N32        1.0     0.101648     0.778461     0.612879    Uiso  ? N
   N33        1.0     0.890786     0.873157     0.355740    Uiso  ? N
   N34        1.0     0.800069     0.747388     0.112574    Uiso  ? N
   N35        1.0     0.555982     0.872850     0.850599    Uiso  ? N
   N36        1.0     0.434086     0.757977     0.607281    Uiso  ? N
