
#======================================================================
# CRYSTAL DATA
#----------------------------------------------------------------------
data_VESTA_phase_1

_chemical_name_common                  'Al   Hf   Mg   N                      '
_cell_length_a                         9.603020
_cell_length_b                         9.591711
_cell_length_c                         10.099061
_cell_angle_alpha                      90.015022
_cell_angle_beta                       90.101814
_cell_angle_gamma                      60.057541
_cell_volume                           806.057934
_space_group_name_H-M_alt              'P 1'
_space_group_IT_number                 1

loop_
_space_group_symop_operation_xyz
   'x, y, z'

loop_
   _atom_site_label
   _atom_site_occupancy
   _atom_site_fract_x
   _atom_site_fract_y
   _atom_site_fract_z
   _atom_site_adp_type
   _atom_site_U_iso_or_equiv
   _atom_site_type_symbol
   Al1        1.0     0.117367     0.088421     0.390820    Uiso  ? Al
   Al2        1.0     0.216171     0.210827     0.139645    Uiso  ? Al
   Al3        1.0     0.894424     0.205497     0.637619    Uiso  ? Al
   Al4        1.0     0.440498     0.098695     0.393686    Uiso  ? Al
   Al5        1.0     0.549505     0.213094     0.144223    Uiso  ? Al
   Al6        1.0     0.117364     0.093433     0.889208    Uiso  ? Al
   Al7        1.0     0.219670     0.208039     0.636886    Uiso  ? Al
   Al8        1.0     0.777137     0.089368     0.394077    Uiso  ? Al
   Al9        1.0     0.894763     0.201228     0.138049    Uiso  ? Al
   Al10       1.0     0.435267     0.100817     0.886767    Uiso  ? Al
   Al11       1.0     0.547028     0.211523     0.632646    Uiso  ? Al
   Al12       1.0     0.115519     0.427768     0.391312    Uiso  ? Al
   Al13       1.0     0.223628     0.536551     0.138016    Uiso  ? Al
   Al14       1.0     0.780067     0.432069     0.892790    Uiso  ? Al
   Al15       1.0     0.893775     0.538027     0.641561    Uiso  ? Al
   Al16       1.0     0.440597     0.430211     0.392719    Uiso  ? Al
   Al17       1.0     0.113875     0.427756     0.889478    Uiso  ? Al
   Al18       1.0     0.901207     0.534064     0.134534    Uiso  ? Al
   Al19       1.0     0.435218     0.432394     0.891842    Uiso  ? Al
   Al20       1.0     0.550765     0.539162     0.642482    Uiso  ? Al
   Al21       1.0     0.112265     0.762052     0.390122    Uiso  ? Al
   Al22       1.0     0.216951     0.873498     0.140081    Uiso  ? Al
   Al23       1.0     0.785041     0.752811     0.885651    Uiso  ? Al
   Al24       1.0     0.896019     0.864347     0.632901    Uiso  ? Al
   Al25       1.0     0.436671     0.763384     0.398008    Uiso  ? Al
   Al26       1.0     0.117316     0.754605     0.891022    Uiso  ? Al
   Al27       1.0     0.218968     0.872183     0.638095    Uiso  ? Al
   Al28       1.0     0.782008     0.763620     0.394521    Uiso  ? Al
   Al29       1.0     0.896710     0.868141     0.143901    Uiso  ? Al
   Al30       1.0     0.439133     0.761617     0.885012    Uiso  ? Al
   Hf1        1.0     0.775950     0.094047     0.878291    Uiso  ? Hf
   Hf2        1.0     0.777412     0.430177     0.383126    Uiso  ? Hf
   Hf3        1.0     0.556127     0.871079     0.126950    Uiso  ? Hf
   Mg1        1.0     0.550352     0.536619     0.131536    Uiso  ? Mg
   Mg2        1.0     0.221123     0.539734     0.636012    Uiso  ? Mg
   Mg3        1.0     0.555499     0.873233     0.640939    Uiso  ? Mg
   N1         1.0     0.220384     0.205499     0.328852    Uiso  ? N
   N2         1.0     0.111693     0.093528     0.079932    Uiso  ? N
   N3         1.0     0.898126     0.213488     0.828459    Uiso  ? N
   N4         1.0     0.777412     0.094376     0.590375    Uiso  ? N
   N5         1.0     0.556728     0.204787     0.333337    Uiso  ? N
   N6         1.0     0.433540     0.112739     0.078777    Uiso  ? N
   N7         1.0     0.219970     0.206615     0.829632    Uiso  ? N
   N8         1.0     0.111839     0.094177     0.580033    Uiso  ? N
   N9         1.0     0.897006     0.187217     0.329348    Uiso  ? N
   N10        1.0     0.776356     0.093141     0.086267    Uiso  ? N
   N11        1.0     0.537058     0.214759     0.824725    Uiso  ? N
   N12        1.0     0.434546     0.109102     0.578489    Uiso  ? N
   N13        1.0     0.222143     0.539389     0.331098    Uiso  ? N
   N14        1.0     0.114357     0.425573     0.080099    Uiso  ? N
   N15        1.0     0.891623     0.536379     0.832018    Uiso  ? N
   N16        1.0     0.776841     0.429486     0.589734    Uiso  ? N
   N17        1.0     0.540033     0.548797     0.336312    Uiso  ? N
   N18        1.0     0.436928     0.419258     0.078005    Uiso  ? N
   N19        1.0     0.220086     0.539935     0.841281    Uiso  ? N
   N20        1.0     0.101985     0.419826     0.575935    Uiso  ? N
   N21        1.0     0.897599     0.549516     0.323651    Uiso  ? N
   N22        1.0     0.794323     0.420059     0.085006    Uiso  ? N
   N23        1.0     0.556923     0.536246     0.836241    Uiso  ? N
   N24        1.0     0.458363     0.421983     0.577471    Uiso  ? N
   N25        1.0     0.222239     0.873181     0.329298    Uiso  ? N
   N26        1.0     0.110463     0.762131     0.083014    Uiso  ? N
   N27        1.0     0.899616     0.854667     0.825295    Uiso  ? N
   N28        1.0     0.792134     0.752185     0.579665    Uiso  ? N
   N29        1.0     0.555478     0.871668     0.338738    Uiso  ? N
   N30        1.0     0.424479     0.768893     0.072066    Uiso  ? N
   N31        1.0     0.217645     0.874485     0.829707    Uiso  ? N
   N32        1.0     0.104767     0.776206     0.574314    Uiso  ? N
   N33        1.0     0.888075     0.873574     0.331855    Uiso  ? N
   N34        1.0     0.800308     0.751036     0.075781    Uiso  ? N
   N35        1.0     0.557924     0.873180     0.856743    Uiso  ? N
   N36        1.0     0.435741     0.755458     0.584891    Uiso  ? N
