
#======================================================================
# CRYSTAL DATA
#----------------------------------------------------------------------
data_VESTA_phase_1

_chemical_name_common                  'Al   Hf   Mg   N                      '
_cell_length_a                         9.685975
_cell_length_b                         9.676181
_cell_length_c                         9.868966
_cell_angle_alpha                      89.957893
_cell_angle_beta                       90.046463
_cell_angle_gamma                      60.075600
_cell_volume                           801.640099
_space_group_name_H-M_alt              'P 1'
_space_group_IT_number                 1

loop_
_space_group_symop_operation_xyz
   'x, y, z'

loop_
   _atom_site_label
   _atom_site_occupancy
   _atom_site_fract_x
   _atom_site_fract_y
   _atom_site_fract_z
   _atom_site_adp_type
   _atom_site_U_iso_or_equiv
   _atom_site_type_symbol
   Al1        1.0     0.117443     0.088273     0.382847    Uiso  ? Al
   Al2        1.0     0.216300     0.211053     0.131677    Uiso  ? Al
   Al3        1.0     0.894907     0.208263     0.628082    Uiso  ? Al
   Al4        1.0     0.440305     0.098492     0.385872    Uiso  ? Al
   Al5        1.0     0.550457     0.211877     0.135929    Uiso  ? Al
   Al6        1.0     0.116940     0.093834     0.881751    Uiso  ? Al
   Al7        1.0     0.219285     0.207923     0.630003    Uiso  ? Al
   Al8        1.0     0.777316     0.088721     0.388712    Uiso  ? Al
   Al9        1.0     0.895621     0.197443     0.130181    Uiso  ? Al
   Al10       1.0     0.435165     0.101311     0.877473    Uiso  ? Al
   Al11       1.0     0.545312     0.212923     0.624639    Uiso  ? Al
   Al12       1.0     0.115174     0.427782     0.385024    Uiso  ? Al
   Al13       1.0     0.223091     0.536304     0.130548    Uiso  ? Al
   Al14       1.0     0.780935     0.431200     0.888909    Uiso  ? Al
   Al15       1.0     0.893218     0.536304     0.633344    Uiso  ? Al
   Al16       1.0     0.440554     0.430903     0.383577    Uiso  ? Al
   Al17       1.0     0.114261     0.427747     0.880367    Uiso  ? Al
   Al18       1.0     0.902711     0.535580     0.126724    Uiso  ? Al
   Al19       1.0     0.434925     0.431748     0.884265    Uiso  ? Al
   Al20       1.0     0.553457     0.537312     0.634319    Uiso  ? Al
   Al21       1.0     0.112175     0.762285     0.381646    Uiso  ? Al
   Al22       1.0     0.217165     0.873605     0.132127    Uiso  ? Al
   Al23       1.0     0.785504     0.752495     0.875753    Uiso  ? Al
   Al24       1.0     0.897874     0.862130     0.626010    Uiso  ? Al
   Al25       1.0     0.436549     0.763281     0.391112    Uiso  ? Al
   Al26       1.0     0.117403     0.754364     0.883913    Uiso  ? Al
   Al27       1.0     0.218027     0.872756     0.630972    Uiso  ? Al
   Al28       1.0     0.781978     0.763341     0.387607    Uiso  ? Al
   Al29       1.0     0.895627     0.868904     0.135195    Uiso  ? Al
   Al30       1.0     0.438561     0.762212     0.873514    Uiso  ? Al
   Hf1        1.0     0.776257     0.094251     0.863228    Uiso  ? Hf
   Hf2        1.0     0.775903     0.430569     0.364812    Uiso  ? Hf
   Hf3        1.0     0.555790     0.871524     0.115598    Uiso  ? Hf
   Mg1        1.0     0.546957     0.539262     0.118906    Uiso  ? Mg
   Mg2        1.0     0.221857     0.540120     0.626634    Uiso  ? Mg
   Mg3        1.0     0.555870     0.873243     0.630833    Uiso  ? Mg
   N1         1.0     0.220099     0.205901     0.324441    Uiso  ? N
   N2         1.0     0.111675     0.093606     0.075647    Uiso  ? N
   N3         1.0     0.898346     0.215575     0.823990    Uiso  ? N
   N4         1.0     0.777819     0.094137     0.590203    Uiso  ? N
   N5         1.0     0.557779     0.203978     0.329375    Uiso  ? N
   N6         1.0     0.433258     0.113077     0.073804    Uiso  ? N
   N7         1.0     0.219887     0.206352     0.825473    Uiso  ? N
   N8         1.0     0.112343     0.094078     0.575475    Uiso  ? N
   N9         1.0     0.897399     0.184537     0.325678    Uiso  ? N
   N10        1.0     0.776299     0.092860     0.077297    Uiso  ? N
   N11        1.0     0.536005     0.215600     0.820123    Uiso  ? N
   N12        1.0     0.434071     0.109410     0.574801    Uiso  ? N
   N13        1.0     0.221595     0.539279     0.327318    Uiso  ? N
   N14        1.0     0.114636     0.425402     0.074657    Uiso  ? N
   N15        1.0     0.891065     0.535335     0.828222    Uiso  ? N
   N16        1.0     0.777227     0.429607     0.578364    Uiso  ? N
   N17        1.0     0.537407     0.550926     0.329249    Uiso  ? N
   N18        1.0     0.436254     0.418717     0.074415    Uiso  ? N
   N19        1.0     0.220356     0.540337     0.836211    Uiso  ? N
   N20        1.0     0.102590     0.419683     0.573566    Uiso  ? N
   N21        1.0     0.898585     0.550445     0.319710    Uiso  ? N
   N22        1.0     0.794821     0.419424     0.087368    Uiso  ? N
   N23        1.0     0.558800     0.534759     0.833173    Uiso  ? N
   N24        1.0     0.458979     0.422297     0.572521    Uiso  ? N
   N25        1.0     0.222658     0.873275     0.324889    Uiso  ? N
   N26        1.0     0.110404     0.762083     0.079412    Uiso  ? N
   N27        1.0     0.900971     0.853339     0.821383    Uiso  ? N
   N28        1.0     0.792925     0.751433     0.576982    Uiso  ? N
   N29        1.0     0.555587     0.871416     0.333770    Uiso  ? N
   N30        1.0     0.423338     0.770650     0.065081    Uiso  ? N
   N31        1.0     0.216097     0.875404     0.825208    Uiso  ? N
   N32        1.0     0.105156     0.776279     0.569587    Uiso  ? N
   N33        1.0     0.887220     0.874123     0.327635    Uiso  ? N
   N34        1.0     0.800265     0.751038     0.070220    Uiso  ? N
   N35        1.0     0.558286     0.873592     0.851230    Uiso  ? N
   N36        1.0     0.435798     0.754860     0.583005    Uiso  ? N
