
#======================================================================
# CRYSTAL DATA
#----------------------------------------------------------------------
data_VESTA_phase_1

_chemical_name_common                  'Al   Hf   Mg   N                      '
_cell_length_a                         9.602976
_cell_length_b                         9.591666
_cell_length_c                         10.099174
_cell_angle_alpha                      90.015160
_cell_angle_beta                       90.101944
_cell_angle_gamma                      60.057533
_cell_volume                           806.059403
_space_group_name_H-M_alt              'P 1'
_space_group_IT_number                 1

loop_
_space_group_symop_operation_xyz
   'x, y, z'

loop_
   _atom_site_label
   _atom_site_occupancy
   _atom_site_fract_x
   _atom_site_fract_y
   _atom_site_fract_z
   _atom_site_adp_type
   _atom_site_U_iso_or_equiv
   _atom_site_type_symbol
   Al1        1.0     0.117340     0.088441     0.409258    Uiso  ? Al
   Al2        1.0     0.216144     0.210846     0.158085    Uiso  ? Al
   Al3        1.0     0.894397     0.205514     0.656059    Uiso  ? Al
   Al4        1.0     0.440471     0.098714     0.412119    Uiso  ? Al
   Al5        1.0     0.549478     0.213114     0.162658    Uiso  ? Al
   Al6        1.0     0.117337     0.093453     0.907649    Uiso  ? Al
   Al7        1.0     0.219642     0.208058     0.655324    Uiso  ? Al
   Al8        1.0     0.777109     0.089389     0.412512    Uiso  ? Al
   Al9        1.0     0.894734     0.201250     0.156488    Uiso  ? Al
   Al10       1.0     0.435240     0.100837     0.905205    Uiso  ? Al
   Al11       1.0     0.547001     0.211542     0.651080    Uiso  ? Al
   Al12       1.0     0.115492     0.427788     0.409748    Uiso  ? Al
   Al13       1.0     0.223601     0.536571     0.156454    Uiso  ? Al
   Al14       1.0     0.780038     0.432089     0.911221    Uiso  ? Al
   Al15       1.0     0.893748     0.538047     0.659996    Uiso  ? Al
   Al16       1.0     0.440571     0.430229     0.411153    Uiso  ? Al
   Al17       1.0     0.113848     0.427775     0.907918    Uiso  ? Al
   Al18       1.0     0.901178     0.534083     0.152966    Uiso  ? Al
   Al19       1.0     0.435191     0.432414     0.910277    Uiso  ? Al
   Al20       1.0     0.550736     0.539181     0.660916    Uiso  ? Al
   Al21       1.0     0.112238     0.762072     0.408562    Uiso  ? Al
   Al22       1.0     0.216925     0.873515     0.158520    Uiso  ? Al
   Al23       1.0     0.785012     0.752831     0.904085    Uiso  ? Al
   Al24       1.0     0.895989     0.864369     0.651334    Uiso  ? Al
   Al25       1.0     0.436644     0.763404     0.416447    Uiso  ? Al
   Al26       1.0     0.117288     0.754624     0.909456    Uiso  ? Al
   Al27       1.0     0.218939     0.872204     0.656536    Uiso  ? Al
   Al28       1.0     0.781981     0.763640     0.412953    Uiso  ? Al
   Al29       1.0     0.896685     0.868159     0.162336    Uiso  ? Al
   Al30       1.0     0.439106     0.761636     0.903446    Uiso  ? Al
   Hf1        1.0     0.775921     0.094066     0.896732    Uiso  ? Hf
   Hf2        1.0     0.777387     0.430198     0.401570    Uiso  ? Hf
   Hf3        1.0     0.556100     0.871097     0.145387    Uiso  ? Hf
   Mg1        1.0     0.550328     0.536637     0.149974    Uiso  ? Mg
   Mg2        1.0     0.221095     0.539753     0.654449    Uiso  ? Mg
   Mg3        1.0     0.555471     0.873253     0.659374    Uiso  ? Mg
   N1         1.0     0.220356     0.205518     0.347288    Uiso  ? N
   N2         1.0     0.111665     0.093547     0.098371    Uiso  ? N
   N3         1.0     0.898099     0.213504     0.846896    Uiso  ? N
   N4         1.0     0.777383     0.094396     0.608806    Uiso  ? N
   N5         1.0     0.556701     0.204807     0.351770    Uiso  ? N
   N6         1.0     0.433513     0.112758     0.097213    Uiso  ? N
   N7         1.0     0.219942     0.206635     0.848069    Uiso  ? N
   N8         1.0     0.111811     0.094196     0.598470    Uiso  ? N
   N9         1.0     0.896978     0.187240     0.347784    Uiso  ? N
   N10        1.0     0.776329     0.093160     0.104705    Uiso  ? N
   N11        1.0     0.537031     0.214778     0.843158    Uiso  ? N
   N12        1.0     0.434518     0.109122     0.596921    Uiso  ? N
   N13        1.0     0.222116     0.539409     0.349534    Uiso  ? N
   N14        1.0     0.114331     0.425592     0.098536    Uiso  ? N
   N15        1.0     0.891597     0.536399     0.850451    Uiso  ? N
   N16        1.0     0.776814     0.429505     0.608175    Uiso  ? N
   N17        1.0     0.540008     0.548817     0.354749    Uiso  ? N
   N18        1.0     0.436901     0.419279     0.096439    Uiso  ? N
   N19        1.0     0.220058     0.539954     0.859716    Uiso  ? N
   N20        1.0     0.101957     0.419845     0.594368    Uiso  ? N
   N21        1.0     0.897571     0.549534     0.342082    Uiso  ? N
   N22        1.0     0.794296     0.420078     0.103434    Uiso  ? N
   N23        1.0     0.556894     0.536266     0.854672    Uiso  ? N
   N24        1.0     0.458334     0.422002     0.595903    Uiso  ? N
   N25        1.0     0.222212     0.873200     0.347735    Uiso  ? N
   N26        1.0     0.110436     0.762150     0.101447    Uiso  ? N
   N27        1.0     0.899587     0.854688     0.843727    Uiso  ? N
   N28        1.0     0.792106     0.752205     0.598096    Uiso  ? N
   N29        1.0     0.555450     0.871688     0.357173    Uiso  ? N
   N30        1.0     0.424453     0.768912     0.090499    Uiso  ? N
   N31        1.0     0.217617     0.874505     0.848144    Uiso  ? N
   N32        1.0     0.104740     0.776226     0.592752    Uiso  ? N
   N33        1.0     0.888049     0.873593     0.350288    Uiso  ? N
   N34        1.0     0.800281     0.751056     0.094213    Uiso  ? N
   N35        1.0     0.557896     0.873200     0.875176    Uiso  ? N
   N36        1.0     0.435713     0.755479     0.603328    Uiso  ? N
