
#======================================================================
# CRYSTAL DATA
#----------------------------------------------------------------------
data_VESTA_phase_1

_chemical_name_common                  'Al   Hf   Mg   N                      '
_cell_length_a                         9.605426
_cell_length_b                         9.586514
_cell_length_c                         10.102587
_cell_angle_alpha                      89.975365
_cell_angle_beta                       89.976959
_cell_angle_gamma                      60.060089
_cell_volume                           806.126450
_space_group_name_H-M_alt              'P 1'
_space_group_IT_number                 1

loop_
_space_group_symop_operation_xyz
   'x, y, z'

loop_
   _atom_site_label
   _atom_site_occupancy
   _atom_site_fract_x
   _atom_site_fract_y
   _atom_site_fract_z
   _atom_site_adp_type
   _atom_site_U_iso_or_equiv
   _atom_site_type_symbol
   Al1        1.0     0.117128     0.088570     0.306570    Uiso  ? Al
   Al2        1.0     0.216812     0.210369     0.056667    Uiso  ? Al
   Al3        1.0     0.895189     0.199306     0.557841    Uiso  ? Al
   Al4        1.0     0.440463     0.099707     0.310841    Uiso  ? Al
   Al5        1.0     0.545935     0.215008     0.061598    Uiso  ? Al
   Al6        1.0     0.117944     0.093445     0.805199    Uiso  ? Al
   Al7        1.0     0.219920     0.208588     0.558222    Uiso  ? Al
   Al8        1.0     0.777228     0.089444     0.305006    Uiso  ? Al
   Al9        1.0     0.894557     0.206525     0.058452    Uiso  ? Al
   Al10       1.0     0.436136     0.099268     0.800547    Uiso  ? Al
   Al11       1.0     0.550512     0.209560     0.553559    Uiso  ? Al
   Al12       1.0     0.117241     0.428988     0.304536    Uiso  ? Al
   Al13       1.0     0.223438     0.538011     0.058199    Uiso  ? Al
   Al14       1.0     0.777153     0.433897     0.799278    Uiso  ? Al
   Al15       1.0     0.897132     0.539595     0.562657    Uiso  ? Al
   Al16       1.0     0.435071     0.430523     0.305021    Uiso  ? Al
   Al17       1.0     0.112494     0.425939     0.805950    Uiso  ? Al
   Al18       1.0     0.898607     0.532304     0.052949    Uiso  ? Al
   Al19       1.0     0.440681     0.432311     0.803057    Uiso  ? Al
   Al20       1.0     0.547176     0.540976     0.564534    Uiso  ? Al
   Al21       1.0     0.113697     0.759148     0.306777    Uiso  ? Al
   Al22       1.0     0.216521     0.873327     0.055772    Uiso  ? Al
   Al23       1.0     0.782115     0.754101     0.801773    Uiso  ? Al
   Al24       1.0     0.893719     0.868102     0.554476    Uiso  ? Al
   Al25       1.0     0.433696     0.765292     0.310038    Uiso  ? Al
   Al26       1.0     0.115806     0.757334     0.804707    Uiso  ? Al
   Al27       1.0     0.219229     0.872821     0.558785    Uiso  ? Al
   Al28       1.0     0.785125     0.761943     0.310092    Uiso  ? Al
   Al29       1.0     0.898679     0.864692     0.061016    Uiso  ? Al
   Al30       1.0     0.442061     0.758892     0.799968    Uiso  ? Al
   Hf1        1.0     0.776040     0.094053     0.813351    Uiso  ? Hf
   Hf2        1.0     0.777307     0.429722     0.319680    Uiso  ? Hf
   Hf3        1.0     0.555661     0.871475     0.069802    Uiso  ? Hf
   Mg1        1.0     0.553489     0.534756     0.052127    Uiso  ? Mg
   Mg2        1.0     0.221199     0.539411     0.559918    Uiso  ? Mg
   Mg3        1.0     0.555806     0.871933     0.554921    Uiso  ? Mg
   N1         1.0     0.219276     0.207009     0.365204    Uiso  ? N
   N2         1.0     0.111706     0.093855     0.115844    Uiso  ? N
   N3         1.0     0.897459     0.214448     0.866370    Uiso  ? N
   N4         1.0     0.776420     0.093678     0.607687    Uiso  ? N
   N5         1.0     0.556981     0.205748     0.362436    Uiso  ? N
   N6         1.0     0.432096     0.112448     0.120275    Uiso  ? N
   N7         1.0     0.222366     0.204405     0.867845    Uiso  ? N
   N8         1.0     0.112171     0.094384     0.616028    Uiso  ? N
   N9         1.0     0.898222     0.186282     0.367176    Uiso  ? N
   N10        1.0     0.777171     0.094245     0.107523    Uiso  ? N
   N11        1.0     0.537800     0.213128     0.871751    Uiso  ? N
   N12        1.0     0.436639     0.109080     0.614461    Uiso  ? N
   N13        1.0     0.219838     0.541024     0.354922    Uiso  ? N
   N14        1.0     0.111842     0.427039     0.113121    Uiso  ? N
   N15        1.0     0.889065     0.537861     0.863965    Uiso  ? N
   N16        1.0     0.779523     0.426921     0.602094    Uiso  ? N
   N17        1.0     0.536028     0.547771     0.370040    Uiso  ? N
   N18        1.0     0.436529     0.423929     0.119032    Uiso  ? N
   N19        1.0     0.222285     0.539029     0.865015    Uiso  ? N
   N20        1.0     0.105773     0.418563     0.621813    Uiso  ? N
   N21        1.0     0.900924     0.546740     0.371437    Uiso  ? N
   N22        1.0     0.792853     0.422331     0.115797    Uiso  ? N
   N23        1.0     0.558739     0.537623     0.849262    Uiso  ? N
   N24        1.0     0.458351     0.417430     0.618499    Uiso  ? N
   N25        1.0     0.218349     0.874198     0.367555    Uiso  ? N
   N26        1.0     0.112512     0.761338     0.115551    Uiso  ? N
   N27        1.0     0.896938     0.855110     0.872310    Uiso  ? N
   N28        1.0     0.792378     0.755630     0.616673    Uiso  ? N
   N29        1.0     0.557945     0.870762     0.339038    Uiso  ? N
   N30        1.0     0.425808     0.766066     0.121932    Uiso  ? N
   N31        1.0     0.221336     0.873536     0.866291    Uiso  ? N
   N32        1.0     0.101637     0.778468     0.620175    Uiso  ? N
   N33        1.0     0.890775     0.873165     0.363036    Uiso  ? N
   N34        1.0     0.800058     0.747396     0.119871    Uiso  ? N
   N35        1.0     0.555971     0.872858     0.857895    Uiso  ? N
   N36        1.0     0.434075     0.757985     0.614578    Uiso  ? N
