
#======================================================================
# CRYSTAL DATA
#----------------------------------------------------------------------
data_VESTA_phase_1

_chemical_name_common                  'Al   Hf   Mg   N                      '
_cell_length_a                         9.789393
_cell_length_b                         9.772483
_cell_length_c                         9.584420
_cell_angle_alpha                      89.901871
_cell_angle_beta                       89.920029
_cell_angle_gamma                      60.104153
_cell_volume                           794.897804
_space_group_name_H-M_alt              'P 1'
_space_group_IT_number                 1

loop_
_space_group_symop_operation_xyz
   'x, y, z'

loop_
   _atom_site_label
   _atom_site_occupancy
   _atom_site_fract_x
   _atom_site_fract_y
   _atom_site_fract_z
   _atom_site_adp_type
   _atom_site_U_iso_or_equiv
   _atom_site_type_symbol
   Al1        1.0     0.115928     0.088575     0.327091    Uiso  ? Al
   Al2        1.0     0.218146     0.209838     0.079724    Uiso  ? Al
   Al3        1.0     0.895698     0.195752     0.582329    Uiso  ? Al
   Al4        1.0     0.439943     0.099840     0.341027    Uiso  ? Al
   Al5        1.0     0.541322     0.215722     0.086225    Uiso  ? Al
   Al6        1.0     0.118517     0.093501     0.827245    Uiso  ? Al
   Al7        1.0     0.217159     0.209517     0.576486    Uiso  ? Al
   Al8        1.0     0.778202     0.090246     0.321629    Uiso  ? Al
   Al9        1.0     0.896453     0.209175     0.079332    Uiso  ? Al
   Al10       1.0     0.435897     0.099990     0.817090    Uiso  ? Al
   Al11       1.0     0.554059     0.209606     0.573210    Uiso  ? Al
   Al12       1.0     0.116418     0.429600     0.325663    Uiso  ? Al
   Al13       1.0     0.222036     0.539096     0.079870    Uiso  ? Al
   Al14       1.0     0.777478     0.433542     0.820454    Uiso  ? Al
   Al15       1.0     0.899521     0.538785     0.584462    Uiso  ? Al
   Al16       1.0     0.435133     0.432056     0.326051    Uiso  ? Al
   Al17       1.0     0.113509     0.424903     0.827802    Uiso  ? Al
   Al18       1.0     0.897380     0.533339     0.073998    Uiso  ? Al
   Al19       1.0     0.440485     0.430731     0.826571    Uiso  ? Al
   Al20       1.0     0.546647     0.540446     0.590466    Uiso  ? Al
   Al21       1.0     0.114907     0.758411     0.330261    Uiso  ? Al
   Al22       1.0     0.216529     0.873206     0.077068    Uiso  ? Al
   Al23       1.0     0.782476     0.755125     0.820631    Uiso  ? Al
   Al24       1.0     0.892928     0.871479     0.573691    Uiso  ? Al
   Al25       1.0     0.433971     0.764818     0.335757    Uiso  ? Al
   Al26       1.0     0.114402     0.757751     0.824181    Uiso  ? Al
   Al27       1.0     0.217974     0.874064     0.579246    Uiso  ? Al
   Al28       1.0     0.784866     0.760860     0.337225    Uiso  ? Al
   Al29       1.0     0.900386     0.859964     0.086135    Uiso  ? Al
   Al30       1.0     0.440979     0.760198     0.821540    Uiso  ? Al
   Hf1        1.0     0.775381     0.093286     0.847979    Uiso  ? Hf
   Hf2        1.0     0.777792     0.428597     0.348687    Uiso  ? Hf
   Hf3        1.0     0.555092     0.873306     0.096861    Uiso  ? Hf
   Mg1        1.0     0.553940     0.536661     0.077236    Uiso  ? Mg
   Mg2        1.0     0.222101     0.538341     0.584424    Uiso  ? Mg
   Mg3        1.0     0.556145     0.871260     0.582208    Uiso  ? Mg
   N1         1.0     0.216382     0.207978     0.376769    Uiso  ? N
   N2         1.0     0.111723     0.093747     0.128019    Uiso  ? N
   N3         1.0     0.898014     0.215522     0.877419    Uiso  ? N
   N4         1.0     0.776264     0.092749     0.628222    Uiso  ? N
   N5         1.0     0.559808     0.206004     0.372791    Uiso  ? N
   N6         1.0     0.431012     0.112522     0.138871    Uiso  ? N
   N7         1.0     0.224018     0.203277     0.881245    Uiso  ? N
   N8         1.0     0.112748     0.094079     0.629346    Uiso  ? N
   N9         1.0     0.898209     0.184298     0.380569    Uiso  ? N
   N10        1.0     0.777879     0.094623     0.114258    Uiso  ? N
   N11        1.0     0.535138     0.212420     0.885600    Uiso  ? N
   N12        1.0     0.435699     0.110622     0.619470    Uiso  ? N
   N13        1.0     0.220242     0.540191     0.368496    Uiso  ? N
   N14        1.0     0.111114     0.427452     0.124914    Uiso  ? N
   N15        1.0     0.888337     0.538695     0.874869    Uiso  ? N
   N16        1.0     0.780894     0.425579     0.612945    Uiso  ? N
   N17        1.0     0.536747     0.547347     0.382946    Uiso  ? N
   N18        1.0     0.435429     0.425456     0.129730    Uiso  ? N
   N19        1.0     0.221327     0.539958     0.876796    Uiso  ? N
   N20        1.0     0.107019     0.417516     0.634304    Uiso  ? N
   N21        1.0     0.901812     0.545546     0.384644    Uiso  ? N
   N22        1.0     0.793432     0.422373     0.131318    Uiso  ? N
   N23        1.0     0.558847     0.538000     0.860638    Uiso  ? N
   N24        1.0     0.458450     0.416450     0.631589    Uiso  ? N
   N25        1.0     0.217868     0.874951     0.380250    Uiso  ? N
   N26        1.0     0.113569     0.760759     0.130034    Uiso  ? N
   N27        1.0     0.898029     0.852389     0.886599    Uiso  ? N
   N28        1.0     0.793859     0.755661     0.625078    Uiso  ? N
   N29        1.0     0.558048     0.870583     0.355963    Uiso  ? N
   N30        1.0     0.425559     0.767900     0.135066    Uiso  ? N
   N31        1.0     0.220383     0.873449     0.878692    Uiso  ? N
   N32        1.0     0.101305     0.778390     0.629757    Uiso  ? N
   N33        1.0     0.890001     0.875056     0.372791    Uiso  ? N
   N34        1.0     0.798852     0.746519     0.135475    Uiso  ? N
   N35        1.0     0.556147     0.874191     0.869514    Uiso  ? N
   N36        1.0     0.432911     0.758319     0.625554    Uiso  ? N
