
#======================================================================
# CRYSTAL DATA
#----------------------------------------------------------------------
data_VESTA_phase_1

_chemical_name_common                  'Al   Hf   Mg   N                      '
_cell_length_a                         10.074216
_cell_length_b                         10.060172
_cell_length_c                         8.724530
_cell_angle_alpha                      89.892281
_cell_angle_beta                       89.989136
_cell_angle_gamma                      60.104977
_cell_volume                           766.561227
_space_group_name_H-M_alt              'P 1'
_space_group_IT_number                 1

loop_
_space_group_symop_operation_xyz
   'x, y, z'

loop_
   _atom_site_label
   _atom_site_occupancy
   _atom_site_fract_x
   _atom_site_fract_y
   _atom_site_fract_z
   _atom_site_adp_type
   _atom_site_U_iso_or_equiv
   _atom_site_type_symbol
   Al1        1.0     0.117167     0.088206     0.364016    Uiso  ? Al
   Al2        1.0     0.217856     0.211136     0.115200    Uiso  ? Al
   Al3        1.0     0.895483     0.203818     0.608724    Uiso  ? Al
   Al4        1.0     0.438953     0.098428     0.364519    Uiso  ? Al
   Al5        1.0     0.546585     0.211758     0.119198    Uiso  ? Al
   Al6        1.0     0.116859     0.093869     0.866650    Uiso  ? Al
   Al7        1.0     0.216029     0.208259     0.607999    Uiso  ? Al
   Al8        1.0     0.778609     0.089488     0.358675    Uiso  ? Al
   Al9        1.0     0.897209     0.199971     0.112566    Uiso  ? Al
   Al10       1.0     0.437560     0.099102     0.829591    Uiso  ? Al
   Al11       1.0     0.550870     0.212176     0.591320    Uiso  ? Al
   Al12       1.0     0.113302     0.430491     0.371137    Uiso  ? Al
   Al13       1.0     0.220500     0.537481     0.108264    Uiso  ? Al
   Al14       1.0     0.778817     0.429538     0.864849    Uiso  ? Al
   Al15       1.0     0.894564     0.534503     0.624678    Uiso  ? Al
   Al16       1.0     0.437570     0.433879     0.358436    Uiso  ? Al
   Al17       1.0     0.116701     0.424869     0.858192    Uiso  ? Al
   Al18       1.0     0.900727     0.536522     0.100004    Uiso  ? Al
   Al19       1.0     0.438187     0.430073     0.863835    Uiso  ? Al
   Al20       1.0     0.552544     0.536378     0.617893    Uiso  ? Al
   Al21       1.0     0.115062     0.759707     0.367401    Uiso  ? Al
   Al22       1.0     0.218230     0.872931     0.112827    Uiso  ? Al
   Al23       1.0     0.783022     0.756731     0.848115    Uiso  ? Al
   Al24       1.0     0.896859     0.866461     0.605589    Uiso  ? Al
   Al25       1.0     0.436390     0.763644     0.380646    Uiso  ? Al
   Al26       1.0     0.114869     0.756834     0.863369    Uiso  ? Al
   Al27       1.0     0.215783     0.875008     0.620013    Uiso  ? Al
   Al28       1.0     0.782548     0.759812     0.378141    Uiso  ? Al
   Al29       1.0     0.896703     0.864268     0.121934    Uiso  ? Al
   Al30       1.0     0.438827     0.761972     0.849732    Uiso  ? Al
   Hf1        1.0     0.774507     0.094061     0.854333    Uiso  ? Hf
   Hf2        1.0     0.776035     0.432393     0.350739    Uiso  ? Hf
   Hf3        1.0     0.555129     0.873781     0.102586    Uiso  ? Hf
   Mg1        1.0     0.547248     0.541649     0.098255    Uiso  ? Mg
   Mg2        1.0     0.223161     0.539977     0.609486    Uiso  ? Mg
   Mg3        1.0     0.556461     0.871180     0.605805    Uiso  ? Mg
   N1         1.0     0.216772     0.208610     0.347864    Uiso  ? N
   N2         1.0     0.112357     0.094401     0.095549    Uiso  ? N
   N3         1.0     0.897831     0.210477     0.844530    Uiso  ? N
   N4         1.0     0.778037     0.094109     0.596246    Uiso  ? N
   N5         1.0     0.557854     0.204764     0.351777    Uiso  ? N
   N6         1.0     0.433916     0.109446     0.114032    Uiso  ? N
   N7         1.0     0.222770     0.203302     0.844402    Uiso  ? N
   N8         1.0     0.112171     0.093158     0.592360    Uiso  ? N
   N9         1.0     0.897021     0.189850     0.347303    Uiso  ? N
   N10        1.0     0.777898     0.092434     0.105356    Uiso  ? N
   N11        1.0     0.539120     0.211896     0.849662    Uiso  ? N
   N12        1.0     0.434629     0.110228     0.595948    Uiso  ? N
   N13        1.0     0.219109     0.540648     0.341872    Uiso  ? N
   N14        1.0     0.113698     0.424846     0.089484    Uiso  ? N
   N15        1.0     0.890648     0.536385     0.849700    Uiso  ? N
   N16        1.0     0.780328     0.427152     0.601458    Uiso  ? N
   N17        1.0     0.540745     0.550511     0.351860    Uiso  ? N
   N18        1.0     0.436968     0.421885     0.100536    Uiso  ? N
   N19        1.0     0.221486     0.540520     0.856928    Uiso  ? N
   N20        1.0     0.104366     0.421551     0.598446    Uiso  ? N
   N21        1.0     0.897396     0.548227     0.338154    Uiso  ? N
   N22        1.0     0.793095     0.419307     0.096582    Uiso  ? N
   N23        1.0     0.558509     0.534589     0.844567    Uiso  ? N
   N24        1.0     0.456068     0.422116     0.593277    Uiso  ? N
   N25        1.0     0.223414     0.872374     0.340780    Uiso  ? N
   N26        1.0     0.109871     0.762867     0.096118    Uiso  ? N
   N27        1.0     0.898034     0.858870     0.840497    Uiso  ? N
   N28        1.0     0.794711     0.750411     0.601447    Uiso  ? N
   N29        1.0     0.557968     0.867727     0.354972    Uiso  ? N
   N30        1.0     0.427403     0.770819     0.079977    Uiso  ? N
   N31        1.0     0.214981     0.876658     0.844744    Uiso  ? N
   N32        1.0     0.106395     0.774226     0.591063    Uiso  ? N
   N33        1.0     0.888542     0.871057     0.348424    Uiso  ? N
   N34        1.0     0.795187     0.753214     0.086068    Uiso  ? N
   N35        1.0     0.557108     0.877043     0.848670    Uiso  ? N
   N36        1.0     0.433543     0.756123     0.606093    Uiso  ? N
