
#======================================================================
# CRYSTAL DATA
#----------------------------------------------------------------------
data_VESTA_phase_1

_chemical_name_common                  'Al   Hf   Mg   N                      '
_cell_length_a                         9.641500
_cell_length_b                         9.623848
_cell_length_c                         10.002906
_cell_angle_alpha                      89.943359
_cell_angle_beta                       89.945267
_cell_angle_gamma                      60.082153
_cell_volume                           804.468056
_space_group_name_H-M_alt              'P 1'
_space_group_IT_number                 1

loop_
_space_group_symop_operation_xyz
   'x, y, z'

loop_
   _atom_site_label
   _atom_site_occupancy
   _atom_site_fract_x
   _atom_site_fract_y
   _atom_site_fract_z
   _atom_site_adp_type
   _atom_site_U_iso_or_equiv
   _atom_site_type_symbol
   Al1        1.0     0.116863     0.088465     0.324705    Uiso  ? Al
   Al2        1.0     0.216899     0.210427     0.075086    Uiso  ? Al
   Al3        1.0     0.895371     0.197734     0.576914    Uiso  ? Al
   Al4        1.0     0.440211     0.100170     0.330535    Uiso  ? Al
   Al5        1.0     0.544277     0.215724     0.079968    Uiso  ? Al
   Al6        1.0     0.118064     0.093525     0.823440    Uiso  ? Al
   Al7        1.0     0.219385     0.208750     0.575819    Uiso  ? Al
   Al8        1.0     0.777404     0.089410     0.321511    Uiso  ? Al
   Al9        1.0     0.895010     0.207655     0.076795    Uiso  ? Al
   Al10       1.0     0.436000     0.099289     0.817953    Uiso  ? Al
   Al11       1.0     0.551484     0.209307     0.572004    Uiso  ? Al
   Al12       1.0     0.117173     0.429227     0.322482    Uiso  ? Al
   Al13       1.0     0.223180     0.538339     0.076130    Uiso  ? Al
   Al14       1.0     0.777170     0.433961     0.816653    Uiso  ? Al
   Al15       1.0     0.897891     0.539721     0.580648    Uiso  ? Al
   Al16       1.0     0.434983     0.430842     0.323281    Uiso  ? Al
   Al17       1.0     0.112491     0.425737     0.824365    Uiso  ? Al
   Al18       1.0     0.898166     0.532326     0.071521    Uiso  ? Al
   Al19       1.0     0.440690     0.432206     0.821476    Uiso  ? Al
   Al20       1.0     0.546504     0.541243     0.583067    Uiso  ? Al
   Al21       1.0     0.113840     0.758951     0.325511    Uiso  ? Al
   Al22       1.0     0.216353     0.873426     0.073905    Uiso  ? Al
   Al23       1.0     0.782020     0.754154     0.819837    Uiso  ? Al
   Al24       1.0     0.893322     0.868966     0.572834    Uiso  ? Al
   Al25       1.0     0.433566     0.765225     0.328565    Uiso  ? Al
   Al26       1.0     0.115630     0.757388     0.822290    Uiso  ? Al
   Al27       1.0     0.219124     0.872946     0.576728    Uiso  ? Al
   Al28       1.0     0.785303     0.761782     0.329074    Uiso  ? Al
   Al29       1.0     0.899384     0.863176     0.079443    Uiso  ? Al
   Al30       1.0     0.442006     0.759068     0.818643    Uiso  ? Al
   Hf1        1.0     0.775944     0.094053     0.835891    Uiso  ? Hf
   Hf2        1.0     0.777674     0.429161     0.341221    Uiso  ? Hf
   Hf3        1.0     0.555460     0.872162     0.089910    Uiso  ? Hf
   Mg1        1.0     0.554197     0.534896     0.071563    Uiso  ? Mg
   Mg2        1.0     0.221343     0.539074     0.578838    Uiso  ? Mg
   Mg3        1.0     0.555869     0.871762     0.573885    Uiso  ? Mg
   N1         1.0     0.218561     0.207341     0.381850    Uiso  ? N
   N2         1.0     0.111695     0.093875     0.132672    Uiso  ? N
   N3         1.0     0.897763     0.215404     0.883016    Uiso  ? N
   N4         1.0     0.776341     0.093355     0.627803    Uiso  ? N
   N5         1.0     0.557876     0.205703     0.379071    Uiso  ? N
   N6         1.0     0.431471     0.113060     0.138229    Uiso  ? N
   N7         1.0     0.222625     0.204178     0.884739    Uiso  ? N
   N8         1.0     0.112358     0.094164     0.632878    Uiso  ? N
   N9         1.0     0.898329     0.184939     0.384310    Uiso  ? N
   N10        1.0     0.777165     0.094276     0.121803    Uiso  ? N
   N11        1.0     0.536501     0.213489     0.888587    Uiso  ? N
   N12        1.0     0.436376     0.109262     0.629948    Uiso  ? N
   N13        1.0     0.219921     0.540835     0.372121    Uiso  ? N
   N14        1.0     0.111692     0.427240     0.129598    Uiso  ? N
   N15        1.0     0.888695     0.537868     0.880670    Uiso  ? N
   N16        1.0     0.779763     0.426610     0.617155    Uiso  ? N
   N17        1.0     0.535737     0.548040     0.386757    Uiso  ? N
   N18        1.0     0.436120     0.424473     0.135575    Uiso  ? N
   N19        1.0     0.222109     0.539270     0.881408    Uiso  ? N
   N20        1.0     0.105918     0.418218     0.638682    Uiso  ? N
   N21        1.0     0.901413     0.546857     0.388252    Uiso  ? N
   N22        1.0     0.793210     0.422215     0.134869    Uiso  ? N
   N23        1.0     0.559070     0.537491     0.866143    Uiso  ? N
   N24        1.0     0.458399     0.417263     0.635217    Uiso  ? N
   N25        1.0     0.218344     0.874253     0.384317    Uiso  ? N
   N26        1.0     0.112727     0.761190     0.132780    Uiso  ? N
   N27        1.0     0.897555     0.853900     0.889192    Uiso  ? N
   N28        1.0     0.792535     0.755555     0.632941    Uiso  ? N
   N29        1.0     0.557905     0.870891     0.355841    Uiso  ? N
   N30        1.0     0.425543     0.766486     0.138576    Uiso  ? N
   N31        1.0     0.220981     0.873618     0.883019    Uiso  ? N
   N32        1.0     0.101637     0.778391     0.636157    Uiso  ? N
   N33        1.0     0.890407     0.873819     0.379570    Uiso  ? N
   N34        1.0     0.800054     0.747097     0.137147    Uiso  ? N
   N35        1.0     0.555975     0.873205     0.875274    Uiso  ? N
   N36        1.0     0.433849     0.758075     0.631377    Uiso  ? N
