
#======================================================================
# CRYSTAL DATA
#----------------------------------------------------------------------
data_VESTA_phase_1

_chemical_name_common                  'Al   Hf   Mg   N                      '
_cell_length_a                         9.604542
_cell_length_b                         9.593246
_cell_length_c                         10.094970
_cell_angle_alpha                      90.012489
_cell_angle_beta                       90.099266
_cell_angle_gamma                      60.057922
_cell_volume                           805.991235
_space_group_name_H-M_alt              'P 1'
_space_group_IT_number                 1

loop_
_space_group_symop_operation_xyz
   'x, y, z'

loop_
   _atom_site_label
   _atom_site_occupancy
   _atom_site_fract_x
   _atom_site_fract_y
   _atom_site_fract_z
   _atom_site_adp_type
   _atom_site_U_iso_or_equiv
   _atom_site_type_symbol
   Al1        1.0     0.117370     0.088413     0.386990    Uiso  ? Al
   Al2        1.0     0.216167     0.210830     0.135818    Uiso  ? Al
   Al3        1.0     0.894447     0.205566     0.633752    Uiso  ? Al
   Al4        1.0     0.440504     0.098682     0.389833    Uiso  ? Al
   Al5        1.0     0.549537     0.213063     0.140367    Uiso  ? Al
   Al6        1.0     0.117365     0.093441     0.885382    Uiso  ? Al
   Al7        1.0     0.219684     0.208028     0.633077    Uiso  ? Al
   Al8        1.0     0.777146     0.089345     0.390318    Uiso  ? Al
   Al9        1.0     0.894781     0.201137     0.134209    Uiso  ? Al
   Al10       1.0     0.435266     0.100831     0.882937    Uiso  ? Al
   Al11       1.0     0.546990     0.211547     0.628816    Uiso  ? Al
   Al12       1.0     0.115521     0.427760     0.387522    Uiso  ? Al
   Al13       1.0     0.223621     0.536538     0.134200    Uiso  ? Al
   Al14       1.0     0.780089     0.432059     0.889056    Uiso  ? Al
   Al15       1.0     0.893769     0.537993     0.637698    Uiso  ? Al
   Al16       1.0     0.440598     0.430216     0.388859    Uiso  ? Al
   Al17       1.0     0.113886     0.427757     0.885620    Uiso  ? Al
   Al18       1.0     0.901251     0.534087     0.130721    Uiso  ? Al
   Al19       1.0     0.435215     0.432382     0.888003    Uiso  ? Al
   Al20       1.0     0.550832     0.539126     0.638622    Uiso  ? Al
   Al21       1.0     0.112261     0.762056     0.386277    Uiso  ? Al
   Al22       1.0     0.216950     0.873497     0.136250    Uiso  ? Al
   Al23       1.0     0.785069     0.752788     0.881795    Uiso  ? Al
   Al24       1.0     0.896070     0.864285     0.629094    Uiso  ? Al
   Al25       1.0     0.436667     0.763387     0.394179    Uiso  ? Al
   Al26       1.0     0.117330     0.754590     0.887206    Uiso  ? Al
   Al27       1.0     0.218963     0.872189     0.634275    Uiso  ? Al
   Al28       1.0     0.782003     0.763620     0.390694    Uiso  ? Al
   Al29       1.0     0.896690     0.868160     0.140040    Uiso  ? Al
   Al30       1.0     0.439125     0.761619     0.881119    Uiso  ? Al
   Hf1        1.0     0.775966     0.094049     0.874272    Uiso  ? Hf
   Hf2        1.0     0.777374     0.430175     0.379054    Uiso  ? Hf
   Hf3        1.0     0.556124     0.871073     0.123028    Uiso  ? Hf
   Mg1        1.0     0.550268     0.536666     0.127619    Uiso  ? Mg
   Mg2        1.0     0.221152     0.539737     0.632151    Uiso  ? Mg
   Mg3        1.0     0.555516     0.873228     0.637086    Uiso  ? Mg
   N1         1.0     0.220375     0.205505     0.325078    Uiso  ? N
   N2         1.0     0.111694     0.093526     0.076153    Uiso  ? N
   N3         1.0     0.898141     0.213552     0.824677    Uiso  ? N
   N4         1.0     0.777430     0.094367     0.586719    Uiso  ? N
   N5         1.0     0.556766     0.204766     0.329560    Uiso  ? N
   N6         1.0     0.433532     0.112746     0.075007    Uiso  ? N
   N7         1.0     0.219984     0.206605     0.825864    Uiso  ? N
   N8         1.0     0.111863     0.094173     0.576257    Uiso  ? N
   N9         1.0     0.897023     0.187132     0.325579    Uiso  ? N
   N10        1.0     0.776359     0.093130     0.082352    Uiso  ? N
   N11        1.0     0.537025     0.214776     0.820944    Uiso  ? N
   N12        1.0     0.434552     0.109097     0.574708    Uiso  ? N
   N13        1.0     0.222134     0.539380     0.327338    Uiso  ? N
   N14        1.0     0.114366     0.425565     0.076302    Uiso  ? N
   N15        1.0     0.891614     0.536354     0.828240    Uiso  ? N
   N16        1.0     0.776859     0.429490     0.585771    Uiso  ? N
   N17        1.0     0.539958     0.548847     0.332473    Uiso  ? N
   N18        1.0     0.436909     0.419241     0.074231    Uiso  ? N
   N19        1.0     0.220097     0.539941     0.837484    Uiso  ? N
   N20        1.0     0.102018     0.419817     0.572208    Uiso  ? N
   N21        1.0     0.897633     0.549531     0.319895    Uiso  ? N
   N22        1.0     0.794332     0.420049     0.081387    Uiso  ? N
   N23        1.0     0.556975     0.536212     0.832476    Uiso  ? N
   N24        1.0     0.458391     0.421980     0.573680    Uiso  ? N
   N25        1.0     0.222244     0.873184     0.325521    Uiso  ? N
   N26        1.0     0.110467     0.762121     0.079253    Uiso  ? N
   N27        1.0     0.899662     0.854614     0.821529    Uiso  ? N
   N28        1.0     0.792151     0.752177     0.575909    Uiso  ? N
   N29        1.0     0.555484     0.871658     0.334922    Uiso  ? N
   N30        1.0     0.424447     0.768919     0.068241    Uiso  ? N
   N31        1.0     0.217623     0.874500     0.825925    Uiso  ? N
   N32        1.0     0.104783     0.776209     0.570530    Uiso  ? N
   N33        1.0     0.888057     0.873590     0.328074    Uiso  ? N
   N34        1.0     0.800325     0.751020     0.071991    Uiso  ? N
   N35        1.0     0.557940     0.873184     0.852980    Uiso  ? N
   N36        1.0     0.435753     0.755449     0.581147    Uiso  ? N
