
#======================================================================
# CRYSTAL DATA
#----------------------------------------------------------------------
data_VESTA_phase_1

_chemical_name_common                  'Al   Hf   Mg   N                      '
_cell_length_a                         9.875244
_cell_length_b                         9.866192
_cell_length_c                         9.317364
_cell_angle_alpha                      89.912384
_cell_angle_beta                       90.004105
_cell_angle_gamma                      60.095116
_cell_volume                           786.929493
_space_group_name_H-M_alt              'P 1'
_space_group_IT_number                 1

loop_
_space_group_symop_operation_xyz
   'x, y, z'

loop_
   _atom_site_label
   _atom_site_occupancy
   _atom_site_fract_x
   _atom_site_fract_y
   _atom_site_fract_z
   _atom_site_adp_type
   _atom_site_U_iso_or_equiv
   _atom_site_type_symbol
   Al1        1.0     0.117628     0.088139     0.376223    Uiso  ? Al
   Al2        1.0     0.217787     0.211072     0.126618    Uiso  ? Al
   Al3        1.0     0.895312     0.208284     0.620818    Uiso  ? Al
   Al4        1.0     0.439412     0.098109     0.383346    Uiso  ? Al
   Al5        1.0     0.549757     0.210360     0.133125    Uiso  ? Al
   Al6        1.0     0.116179     0.094215     0.878188    Uiso  ? Al
   Al7        1.0     0.216948     0.208080     0.625057    Uiso  ? Al
   Al8        1.0     0.777946     0.088615     0.381769    Uiso  ? Al
   Al9        1.0     0.896505     0.195992     0.125453    Uiso  ? Al
   Al10       1.0     0.436229     0.100520     0.861283    Uiso  ? Al
   Al11       1.0     0.546146     0.214127     0.615275    Uiso  ? Al
   Al12       1.0     0.113907     0.429155     0.381465    Uiso  ? Al
   Al13       1.0     0.221746     0.536416     0.122497    Uiso  ? Al
   Al14       1.0     0.780922     0.429310     0.884045    Uiso  ? Al
   Al15       1.0     0.893443     0.533782     0.631842    Uiso  ? Al
   Al16       1.0     0.439460     0.433137     0.375081    Uiso  ? Al
   Al17       1.0     0.115564     0.426348     0.872820    Uiso  ? Al
   Al18       1.0     0.902495     0.537264     0.116475    Uiso  ? Al
   Al19       1.0     0.436204     0.429939     0.880427    Uiso  ? Al
   Al20       1.0     0.555226     0.534744     0.630129    Uiso  ? Al
   Al21       1.0     0.113572     0.761268     0.375977    Uiso  ? Al
   Al22       1.0     0.218382     0.873329     0.125572    Uiso  ? Al
   Al23       1.0     0.784595     0.754345     0.862971    Uiso  ? Al
   Al24       1.0     0.899110     0.862529     0.619784    Uiso  ? Al
   Al25       1.0     0.436400     0.763026     0.389533    Uiso  ? Al
   Al26       1.0     0.116161     0.755592     0.878810    Uiso  ? Al
   Al27       1.0     0.215435     0.874454     0.628150    Uiso  ? Al
   Al28       1.0     0.782739     0.761187     0.386088    Uiso  ? Al
   Al29       1.0     0.894697     0.867931     0.130986    Uiso  ? Al
   Al30       1.0     0.438225     0.762927     0.859687    Uiso  ? Al
   Hf1        1.0     0.775821     0.094438     0.855966    Uiso  ? Hf
   Hf2        1.0     0.775003     0.432148     0.352913    Uiso  ? Hf
   Hf3        1.0     0.555194     0.872943     0.106829    Uiso  ? Hf
   Mg1        1.0     0.545541     0.542119     0.106759    Uiso  ? Mg
   Mg2        1.0     0.222821     0.540371     0.619980    Uiso  ? Mg
   Mg3        1.0     0.556492     0.872220     0.618273    Uiso  ? Mg
   N1         1.0     0.220106     0.206679     0.331646    Uiso  ? N
   N2         1.0     0.111863     0.094139     0.083284    Uiso  ? N
   N3         1.0     0.898214     0.214362     0.830647    Uiso  ? N
   N4         1.0     0.778557     0.093957     0.594281    Uiso  ? N
   N5         1.0     0.557571     0.202990     0.338882    Uiso  ? N
   N6         1.0     0.433734     0.112424     0.078991    Uiso  ? N
   N7         1.0     0.219234     0.205589     0.831183    Uiso  ? N
   N8         1.0     0.112315     0.093695     0.580311    Uiso  ? N
   N9         1.0     0.897056     0.185811     0.333759    Uiso  ? N
   N10        1.0     0.776154     0.092753     0.085146    Uiso  ? N
   N11        1.0     0.537628     0.215716     0.825008    Uiso  ? N
   N12        1.0     0.433307     0.109708     0.585593    Uiso  ? N
   N13        1.0     0.220371     0.539709     0.332626    Uiso  ? N
   N14        1.0     0.114741     0.424664     0.078948    Uiso  ? N
   N15        1.0     0.890912     0.534570     0.837660    Uiso  ? N
   N16        1.0     0.778187     0.429150     0.583367    Uiso  ? N
   N17        1.0     0.537798     0.552582     0.334631    Uiso  ? N
   N18        1.0     0.437035     0.418510     0.084287    Uiso  ? N
   N19        1.0     0.221098     0.540684     0.844221    Uiso  ? N
   N20        1.0     0.102869     0.420518     0.582999    Uiso  ? N
   N21        1.0     0.898284     0.550601     0.324602    Uiso  ? N
   N22        1.0     0.794996     0.418301     0.094927    Uiso  ? N
   N23        1.0     0.559857     0.532959     0.840363    Uiso  ? N
   N24        1.0     0.457947     0.423529     0.577241    Uiso  ? N
   N25        1.0     0.223925     0.872711     0.330491    Uiso  ? N
   N26        1.0     0.109673     0.762926     0.086312    Uiso  ? N
   N27        1.0     0.900850     0.855436     0.827369    Uiso  ? N
   N28        1.0     0.794631     0.749673     0.588699    Uiso  ? N
   N29        1.0     0.556090     0.870610     0.343435    Uiso  ? N
   N30        1.0     0.424162     0.772238     0.067026    Uiso  ? N
   N31        1.0     0.213661     0.877123     0.832218    Uiso  ? N
   N32        1.0     0.106342     0.775216     0.576077    Uiso  ? N
   N33        1.0     0.887084     0.872990     0.335830    Uiso  ? N
   N34        1.0     0.798163     0.752686     0.073255    Uiso  ? N
   N35        1.0     0.558539     0.874148     0.849849    Uiso  ? N
   N36        1.0     0.434910     0.754363     0.596150    Uiso  ? N
