
#======================================================================
# CRYSTAL DATA
#----------------------------------------------------------------------
data_VESTA_phase_1

_chemical_name_common                  'Al   Hf   Mg   N                      '
_cell_length_a                         9.918966
_cell_length_b                         9.909304
_cell_length_c                         9.186816
_cell_angle_alpha                      89.903633
_cell_angle_beta                       89.998329
_cell_angle_gamma                      60.096592
_cell_volume                           782.755802
_space_group_name_H-M_alt              'P 1'
_space_group_IT_number                 1

loop_
_space_group_symop_operation_xyz
   'x, y, z'

loop_
   _atom_site_label
   _atom_site_occupancy
   _atom_site_fract_x
   _atom_site_fract_y
   _atom_site_fract_z
   _atom_site_adp_type
   _atom_site_U_iso_or_equiv
   _atom_site_type_symbol
   Al1        1.0     0.117565     0.088069     0.374191    Uiso  ? Al
   Al2        1.0     0.217956     0.211152     0.125283    Uiso  ? Al
   Al3        1.0     0.895356     0.207576     0.618763    Uiso  ? Al
   Al4        1.0     0.439273     0.097938     0.381295    Uiso  ? Al
   Al5        1.0     0.549324     0.210375     0.132219    Uiso  ? Al
   Al6        1.0     0.116196     0.094237     0.876800    Uiso  ? Al
   Al7        1.0     0.216345     0.208145     0.622632    Uiso  ? Al
   Al8        1.0     0.778215     0.088677     0.378351    Uiso  ? Al
   Al9        1.0     0.896607     0.196541     0.123666    Uiso  ? Al
   Al10       1.0     0.436654     0.099936     0.854101    Uiso  ? Al
   Al11       1.0     0.547049     0.214022     0.611488    Uiso  ? Al
   Al12       1.0     0.113580     0.429660     0.380161    Uiso  ? Al
   Al13       1.0     0.221423     0.536490     0.119669    Uiso  ? Al
   Al14       1.0     0.780556     0.429108     0.881230    Uiso  ? Al
   Al15       1.0     0.893593     0.533587     0.631305    Uiso  ? Al
   Al16       1.0     0.438996     0.433675     0.372613    Uiso  ? Al
   Al17       1.0     0.115934     0.425852     0.870394    Uiso  ? Al
   Al18       1.0     0.902135     0.537339     0.113046    Uiso  ? Al
   Al19       1.0     0.436724     0.429662     0.878733    Uiso  ? Al
   Al20       1.0     0.555000     0.534687     0.628345    Uiso  ? Al
   Al21       1.0     0.114020     0.760871     0.374425    Uiso  ? Al
   Al22       1.0     0.218538     0.873254     0.123399    Uiso  ? Al
   Al23       1.0     0.784248     0.754952     0.859459    Uiso  ? Al
   Al24       1.0     0.898968     0.863225     0.617407    Uiso  ? Al
   Al25       1.0     0.436330     0.763090     0.388442    Uiso  ? Al
   Al26       1.0     0.115783     0.755998     0.876741    Uiso  ? Al
   Al27       1.0     0.215122     0.874727     0.627093    Uiso  ? Al
   Al28       1.0     0.782862     0.760656     0.385233    Uiso  ? Al
   Al29       1.0     0.894809     0.867318     0.129767    Uiso  ? Al
   Al30       1.0     0.438285     0.762854     0.856802    Uiso  ? Al
   Hf1        1.0     0.775563     0.094440     0.855362    Uiso  ? Hf
   Hf2        1.0     0.775093     0.432442     0.351807    Uiso  ? Hf
   Hf3        1.0     0.555084     0.873350     0.105144    Uiso  ? Hf
   Mg1        1.0     0.545742     0.542366     0.104627    Uiso  ? Mg
   Mg2        1.0     0.222989     0.540409     0.618255    Uiso  ? Mg
   Mg3        1.0     0.556630     0.871725     0.614971    Uiso  ? Mg
   N1         1.0     0.219635     0.207091     0.334418    Uiso  ? N
   N2         1.0     0.111950     0.094299     0.085527    Uiso  ? N
   N3         1.0     0.898172     0.213607     0.832806    Uiso  ? N
   N4         1.0     0.778750     0.093922     0.594507    Uiso  ? N
   N5         1.0     0.557479     0.203103     0.342010    Uiso  ? N
   N6         1.0     0.433872     0.112024     0.083557    Uiso  ? N
   N7         1.0     0.219440     0.205224     0.832775    Uiso  ? N
   N8         1.0     0.112222     0.093514     0.581903    Uiso  ? N
   N9         1.0     0.896988     0.186648     0.336042    Uiso  ? N
   N10        1.0     0.776214     0.092759     0.088720    Uiso  ? N
   N11        1.0     0.538180     0.215372     0.827011    Uiso  ? N
   N12        1.0     0.433404     0.109566     0.588567    Uiso  ? N
   N13        1.0     0.220061     0.539862     0.334056    Uiso  ? N
   N14        1.0     0.114644     0.424495     0.080370    Uiso  ? N
   N15        1.0     0.890880     0.534713     0.840382    Uiso  ? N
   N16        1.0     0.778548     0.428890     0.586320    Uiso  ? N
   N17        1.0     0.538381     0.552522     0.337197    Uiso  ? N
   N18        1.0     0.437317     0.418787     0.087091    Uiso  ? N
   N19        1.0     0.221262     0.540709     0.846887    Uiso  ? N
   N20        1.0     0.102979     0.420925     0.585787    Uiso  ? N
   N21        1.0     0.898097     0.550343     0.326232    Uiso  ? N
   N22        1.0     0.794742     0.418262     0.095484    Uiso  ? N
   N23        1.0     0.559731     0.532912     0.841580    Uiso  ? N
   N24        1.0     0.457415     0.423763     0.579004    Uiso  ? N
   N25        1.0     0.224054     0.872562     0.332086    Uiso  ? N
   N26        1.0     0.109523     0.763110     0.088113    Uiso  ? N
   N27        1.0     0.900459     0.856246     0.829160    Uiso  ? N
   N28        1.0     0.794846     0.749505     0.591773    Uiso  ? N
   N29        1.0     0.556401     0.870114     0.346277    Uiso  ? N
   N30        1.0     0.424714     0.772187     0.068588    Uiso  ? N
   N31        1.0     0.213535     0.877299     0.834418    Uiso  ? N
   N32        1.0     0.106580     0.774903     0.578309    Uiso  ? N
   N33        1.0     0.887284     0.872489     0.338320    Uiso  ? N
   N34        1.0     0.797527     0.753096     0.074739    Uiso  ? N
   N35        1.0     0.558436     0.874396     0.849331    Uiso  ? N
   N36        1.0     0.434604     0.754533     0.598949    Uiso  ? N
