
#======================================================================
# CRYSTAL DATA
#----------------------------------------------------------------------
data_VESTA_phase_1

_chemical_name_common                  'Al   Hf   Mg   N                      '
_cell_length_a                         9.782806
_cell_length_b                         9.774034
_cell_length_c                         9.590431
_cell_angle_alpha                      89.931236
_cell_angle_beta                       90.020203
_cell_angle_gamma                      60.088581
_cell_volume                           794.863284
_space_group_name_H-M_alt              'P 1'
_space_group_IT_number                 1

loop_
_space_group_symop_operation_xyz
   'x, y, z'

loop_
   _atom_site_label
   _atom_site_occupancy
   _atom_site_fract_x
   _atom_site_fract_y
   _atom_site_fract_z
   _atom_site_adp_type
   _atom_site_U_iso_or_equiv
   _atom_site_type_symbol
   Al1        1.0     0.117590     0.088237     0.379933    Uiso  ? Al
   Al2        1.0     0.217072     0.211053     0.129249    Uiso  ? Al
   Al3        1.0     0.895157     0.209031     0.624593    Uiso  ? Al
   Al4        1.0     0.439847     0.098354     0.385026    Uiso  ? Al
   Al5        1.0     0.550417     0.210860     0.134504    Uiso  ? Al
   Al6        1.0     0.116428     0.094081     0.880285    Uiso  ? Al
   Al7        1.0     0.218163     0.207994     0.628310    Uiso  ? Al
   Al8        1.0     0.777544     0.088572     0.386599    Uiso  ? Al
   Al9        1.0     0.896230     0.195771     0.128243    Uiso  ? Al
   Al10       1.0     0.435540     0.101214     0.871167    Uiso  ? Al
   Al11       1.0     0.545067     0.213869     0.620995    Uiso  ? Al
   Al12       1.0     0.114566     0.428282     0.383639    Uiso  ? Al
   Al13       1.0     0.222431     0.536320     0.127388    Uiso  ? Al
   Al14       1.0     0.781290     0.430067     0.887910    Uiso  ? Al
   Al15       1.0     0.893183     0.534725     0.632510    Uiso  ? Al
   Al16       1.0     0.440231     0.431972     0.379660    Uiso  ? Al
   Al17       1.0     0.114863     0.427240     0.876971    Uiso  ? Al
   Al18       1.0     0.902991     0.536734     0.122518    Uiso  ? Al
   Al19       1.0     0.435277     0.430781     0.882776    Uiso  ? Al
   Al20       1.0     0.554958     0.535598     0.632709    Uiso  ? Al
   Al21       1.0     0.112717     0.761973     0.378967    Uiso  ? Al
   Al22       1.0     0.217841     0.873484     0.129330    Uiso  ? Al
   Al23       1.0     0.785219     0.753202     0.869918    Uiso  ? Al
   Al24       1.0     0.898894     0.861667     0.623637    Uiso  ? Al
   Al25       1.0     0.436535     0.763040     0.390760    Uiso  ? Al
   Al26       1.0     0.116903     0.754801     0.881949    Uiso  ? Al
   Al27       1.0     0.216574     0.873655     0.629822    Uiso  ? Al
   Al28       1.0     0.782349     0.762353     0.387098    Uiso  ? Al
   Al29       1.0     0.894906     0.868763     0.133120    Uiso  ? Al
   Al30       1.0     0.438238     0.762786     0.866533    Uiso  ? Al
   Hf1        1.0     0.776172     0.094378     0.858239    Uiso  ? Hf
   Hf2        1.0     0.775153     0.431386     0.356916    Uiso  ? Hf
   Hf3        1.0     0.555439     0.872226     0.110904    Uiso  ? Hf
   Mg1        1.0     0.545626     0.541124     0.112141    Uiso  ? Mg
   Mg2        1.0     0.222390     0.540273     0.623276    Uiso  ? Mg
   Mg3        1.0     0.556214     0.872918     0.624898    Uiso  ? Mg
   N1         1.0     0.220266     0.206200     0.327422    Uiso  ? N
   N2         1.0     0.111743     0.093823     0.079127    Uiso  ? N
   N3         1.0     0.898305     0.215509     0.826990    Uiso  ? N
   N4         1.0     0.778158     0.094027     0.593264    Uiso  ? N
   N5         1.0     0.557866     0.203289     0.333511    Uiso  ? N
   N6         1.0     0.433435     0.112925     0.075250    Uiso  ? N
   N7         1.0     0.219431     0.206064     0.828285    Uiso  ? N
   N8         1.0     0.112421     0.093945     0.577717    Uiso  ? N
   N9         1.0     0.897282     0.184519     0.329533    Uiso  ? N
   N10        1.0     0.776200     0.092752     0.079672    Uiso  ? N
   N11        1.0     0.536500     0.215906     0.822340    Uiso  ? N
   N12        1.0     0.433481     0.109748     0.579737    Uiso  ? N
   N13        1.0     0.221005     0.539435     0.330020    Uiso  ? N
   N14        1.0     0.114790     0.425077     0.076526    Uiso  ? N
   N15        1.0     0.890930     0.534685     0.832516    Uiso  ? N
   N16        1.0     0.777608     0.429494     0.579109    Uiso  ? N
   N17        1.0     0.537019     0.552163     0.330873    Uiso  ? N
   N18        1.0     0.436431     0.418398     0.078988    Uiso  ? N
   N19        1.0     0.220709     0.540579     0.839487    Uiso  ? N
   N20        1.0     0.102728     0.419903     0.578024    Uiso  ? N
   N21        1.0     0.898623     0.550794     0.322037    Uiso  ? N
   N22        1.0     0.795171     0.418686     0.092666    Uiso  ? N
   N23        1.0     0.559709     0.533557     0.837193    Uiso  ? N
   N24        1.0     0.458767     0.422900     0.574592    Uiso  ? N
   N25        1.0     0.223393     0.873043     0.327563    Uiso  ? N
   N26        1.0     0.110071     0.762451     0.082787    Uiso  ? N
   N27        1.0     0.901253     0.853974     0.824265    Uiso  ? N
   N28        1.0     0.793919     0.750380     0.582513    Uiso  ? N
   N29        1.0     0.555755     0.871134     0.337974    Uiso  ? N
   N30        1.0     0.423366     0.771873     0.065290    Uiso  ? N
   N31        1.0     0.214534     0.876421     0.828327    Uiso  ? N
   N32        1.0     0.105736     0.775855     0.572402    Uiso  ? N
   N33        1.0     0.886934     0.873819     0.331306    Uiso  ? N
   N34        1.0     0.799367     0.751770     0.071330    Uiso  ? N
   N35        1.0     0.558499     0.873912     0.850783    Uiso  ? N
   N36        1.0     0.435451     0.754363     0.589637    Uiso  ? N
