
#======================================================================
# CRYSTAL DATA
#----------------------------------------------------------------------
data_VESTA_phase_1

_chemical_name_common                  'Al   Hf   Mg   N                      '
_cell_length_a                         9.602973
_cell_length_b                         9.591665
_cell_length_c                         10.099188
_cell_angle_alpha                      90.015152
_cell_angle_beta                       90.101982
_cell_angle_gamma                      60.057472
_cell_volume                           806.059728
_space_group_name_H-M_alt              'P 1'
_space_group_IT_number                 1

loop_
_space_group_symop_operation_xyz
   'x, y, z'

loop_
   _atom_site_label
   _atom_site_occupancy
   _atom_site_fract_x
   _atom_site_fract_y
   _atom_site_fract_z
   _atom_site_adp_type
   _atom_site_U_iso_or_equiv
   _atom_site_type_symbol
   Al1        1.0     0.117362     0.088425     0.394557    Uiso  ? Al
   Al2        1.0     0.216166     0.210831     0.143384    Uiso  ? Al
   Al3        1.0     0.894419     0.205498     0.641360    Uiso  ? Al
   Al4        1.0     0.440492     0.098699     0.397419    Uiso  ? Al
   Al5        1.0     0.549500     0.213098     0.147960    Uiso  ? Al
   Al6        1.0     0.117358     0.093437     0.892949    Uiso  ? Al
   Al7        1.0     0.219664     0.208043     0.640624    Uiso  ? Al
   Al8        1.0     0.777132     0.089373     0.397813    Uiso  ? Al
   Al9        1.0     0.894756     0.201235     0.141789    Uiso  ? Al
   Al10       1.0     0.435262     0.100821     0.890506    Uiso  ? Al
   Al11       1.0     0.547023     0.211526     0.636379    Uiso  ? Al
   Al12       1.0     0.115514     0.427773     0.395047    Uiso  ? Al
   Al13       1.0     0.223623     0.536556     0.141754    Uiso  ? Al
   Al14       1.0     0.780060     0.432073     0.896521    Uiso  ? Al
   Al15       1.0     0.893770     0.538032     0.645296    Uiso  ? Al
   Al16       1.0     0.440593     0.430214     0.396452    Uiso  ? Al
   Al17       1.0     0.113869     0.427760     0.893217    Uiso  ? Al
   Al18       1.0     0.901200     0.534067     0.138266    Uiso  ? Al
   Al19       1.0     0.435213     0.432398     0.895576    Uiso  ? Al
   Al20       1.0     0.550758     0.539166     0.646217    Uiso  ? Al
   Al21       1.0     0.112260     0.762056     0.393862    Uiso  ? Al
   Al22       1.0     0.216947     0.873500     0.143819    Uiso  ? Al
   Al23       1.0     0.785034     0.752816     0.889386    Uiso  ? Al
   Al24       1.0     0.896011     0.864353     0.636633    Uiso  ? Al
   Al25       1.0     0.436665     0.763389     0.401746    Uiso  ? Al
   Al26       1.0     0.117310     0.754609     0.894755    Uiso  ? Al
   Al27       1.0     0.218962     0.872189     0.641836    Uiso  ? Al
   Al28       1.0     0.782003     0.763624     0.398254    Uiso  ? Al
   Al29       1.0     0.896707     0.868144     0.147637    Uiso  ? Al
   Al30       1.0     0.439128     0.761620     0.888746    Uiso  ? Al
   Hf1        1.0     0.775943     0.094050     0.882034    Uiso  ? Hf
   Hf2        1.0     0.777409     0.430182     0.386871    Uiso  ? Hf
   Hf3        1.0     0.556122     0.871081     0.130688    Uiso  ? Hf
   Mg1        1.0     0.550350     0.536621     0.135274    Uiso  ? Mg
   Mg2        1.0     0.221117     0.539737     0.639749    Uiso  ? Mg
   Mg3        1.0     0.555493     0.873238     0.644675    Uiso  ? Mg
   N1         1.0     0.220378     0.205503     0.332587    Uiso  ? N
   N2         1.0     0.111687     0.093532     0.083670    Uiso  ? N
   N3         1.0     0.898120     0.213488     0.832196    Uiso  ? N
   N4         1.0     0.777406     0.094380     0.594106    Uiso  ? N
   N5         1.0     0.556722     0.204791     0.337071    Uiso  ? N
   N6         1.0     0.433536     0.112742     0.082514    Uiso  ? N
   N7         1.0     0.219964     0.206619     0.833370    Uiso  ? N
   N8         1.0     0.111833     0.094181     0.583769    Uiso  ? N
   N9         1.0     0.897000     0.187225     0.333085    Uiso  ? N
   N10        1.0     0.776351     0.093145     0.090006    Uiso  ? N
   N11        1.0     0.537053     0.214762     0.828458    Uiso  ? N
   N12        1.0     0.434540     0.109107     0.582221    Uiso  ? N
   N13        1.0     0.222138     0.539394     0.334833    Uiso  ? N
   N14        1.0     0.114353     0.425576     0.083835    Uiso  ? N
   N15        1.0     0.891618     0.536384     0.835751    Uiso  ? N
   N16        1.0     0.776836     0.429490     0.593476    Uiso  ? N
   N17        1.0     0.540031     0.548801     0.340048    Uiso  ? N
   N18        1.0     0.436923     0.419263     0.081739    Uiso  ? N
   N19        1.0     0.220080     0.539938     0.845015    Uiso  ? N
   N20        1.0     0.101979     0.419830     0.579668    Uiso  ? N
   N21        1.0     0.897593     0.549519     0.327382    Uiso  ? N
   N22        1.0     0.794318     0.420062     0.088734    Uiso  ? N
   N23        1.0     0.556915     0.536250     0.839973    Uiso  ? N
   N24        1.0     0.458356     0.421987     0.581203    Uiso  ? N
   N25        1.0     0.222234     0.873184     0.333034    Uiso  ? N
   N26        1.0     0.110458     0.762135     0.086747    Uiso  ? N
   N27        1.0     0.899608     0.854673     0.829027    Uiso  ? N
   N28        1.0     0.792127     0.752189     0.583396    Uiso  ? N
   N29        1.0     0.555472     0.871672     0.342473    Uiso  ? N
   N30        1.0     0.424475     0.768896     0.075799    Uiso  ? N
   N31        1.0     0.217639     0.874490     0.833443    Uiso  ? N
   N32        1.0     0.104762     0.776210     0.578051    Uiso  ? N
   N33        1.0     0.888071     0.873578     0.335589    Uiso  ? N
   N34        1.0     0.800303     0.751041     0.079514    Uiso  ? N
   N35        1.0     0.557918     0.873184     0.860476    Uiso  ? N
   N36        1.0     0.435735     0.755463     0.588627    Uiso  ? N
