
#======================================================================
# CRYSTAL DATA
#----------------------------------------------------------------------
data_VESTA_phase_1

_chemical_name_common                  'Al   Hf   Mg   N '
_cell_length_a                         9.602890
_cell_length_b                         9.591476
_cell_length_c                         10.099415
_cell_angle_alpha                      90.014893
_cell_angle_beta                       90.101212
_cell_angle_gamma                      60.057030
_cell_volume                           806.051446
_space_group_name_H-M_alt              'P 1'
_space_group_IT_number                 1

loop_
_space_group_symop_operation_xyz
   'x, y, z'

loop_
   _atom_site_label
   _atom_site_occupancy
   _atom_site_fract_x
   _atom_site_fract_y
   _atom_site_fract_z
   _atom_site_adp_type
   _atom_site_U_iso_or_equiv
   _atom_site_type_symbol
   Al1        1.0     0.117330     0.088444     0.412864    Uiso  ? Al
   Al2        1.0     0.216145     0.210856     0.161694    Uiso  ? Al
   Al3        1.0     0.894402     0.205510     0.659680    Uiso  ? Al
   Al4        1.0     0.440467     0.098705     0.415746    Uiso  ? Al
   Al5        1.0     0.549473     0.213121     0.166279    Uiso  ? Al
   Al6        1.0     0.117339     0.093465     0.911267    Uiso  ? Al
   Al7        1.0     0.219640     0.208050     0.658940    Uiso  ? Al
   Al8        1.0     0.777098     0.089402     0.416133    Uiso  ? Al
   Al9        1.0     0.894724     0.201284     0.160107    Uiso  ? Al
   Al10       1.0     0.435249     0.100833     0.908833    Uiso  ? Al
   Al11       1.0     0.546998     0.211533     0.654709    Uiso  ? Al
   Al12       1.0     0.115478     0.427780     0.413350    Uiso  ? Al
   Al13       1.0     0.223592     0.536588     0.160074    Uiso  ? Al
   Al14       1.0     0.780043     0.432107     0.914831    Uiso  ? Al
   Al15       1.0     0.893744     0.538049     0.663608    Uiso  ? Al
   Al16       1.0     0.440553     0.430221     0.414767    Uiso  ? Al
   Al17       1.0     0.113850     0.427791     0.911525    Uiso  ? Al
   Al18       1.0     0.901176     0.534093     0.156587    Uiso  ? Al
   Al19       1.0     0.435186     0.432419     0.913898    Uiso  ? Al
   Al20       1.0     0.550716     0.539170     0.664548    Uiso  ? Al
   Al21       1.0     0.112216     0.762077     0.412172    Uiso  ? Al
   Al22       1.0     0.216911     0.873527     0.162133    Uiso  ? Al
   Al23       1.0     0.785014     0.752844     0.907713    Uiso  ? Al
   Al24       1.0     0.895983     0.864373     0.654961    Uiso  ? Al
   Al25       1.0     0.436625     0.763396     0.420067    Uiso  ? Al
   Al26       1.0     0.117292     0.754630     0.913065    Uiso  ? Al
   Al27       1.0     0.218931     0.872195     0.660144    Uiso  ? Al
   Al28       1.0     0.781974     0.763648     0.416574    Uiso  ? Al
   Al29       1.0     0.896676     0.868181     0.165950    Uiso  ? Al
   Al30       1.0     0.439103     0.761636     0.907081    Uiso  ? Al
   Hf1        1.0     0.775926     0.094094     0.900363    Uiso  ? Hf
   Hf2        1.0     0.777368     0.430209     0.405215    Uiso  ? Hf
   Hf3        1.0     0.556097     0.871094     0.149026    Uiso  ? Hf
   Mg1        1.0     0.550330     0.536633     0.153599    Uiso  ? Mg
   Mg2        1.0     0.221082     0.539739     0.658047    Uiso  ? Mg
   Mg3        1.0     0.555466     0.873235     0.663007    Uiso  ? Mg
   N1         1.0     0.220357     0.205512     0.350891    Uiso  ? N
   N2         1.0     0.111656     0.093564     0.101982    Uiso  ? N
   N3         1.0     0.898109     0.213518     0.850508    Uiso  ? N
   N4         1.0     0.777381     0.094399     0.612428    Uiso  ? N
   N5         1.0     0.556692     0.204801     0.355383    Uiso  ? N
   N6         1.0     0.433520     0.112753     0.100832    Uiso  ? N
   N7         1.0     0.219951     0.206641     0.851687    Uiso  ? N
   N8         1.0     0.111808     0.094189     0.602075    Uiso  ? N
   N9         1.0     0.896962     0.187264     0.351395    Uiso  ? N
   N10        1.0     0.776327     0.093193     0.108325    Uiso  ? N
   N11        1.0     0.537040     0.214777     0.846785    Uiso  ? N
   N12        1.0     0.434521     0.109109     0.600546    Uiso  ? N
   N13        1.0     0.222097     0.539411     0.353143    Uiso  ? N
   N14        1.0     0.114328     0.425608     0.102140    Uiso  ? N
   N15        1.0     0.891602     0.536416     0.854058    Uiso  ? N
   N16        1.0     0.776799     0.429507     0.611811    Uiso  ? N
   N17        1.0     0.539996     0.548804     0.358364    Uiso  ? N
   N18        1.0     0.436889     0.419289     0.100053    Uiso  ? N
   N19        1.0     0.220062     0.539962     0.863309    Uiso  ? N
   N20        1.0     0.101945     0.419831     0.597967    Uiso  ? N
   N21        1.0     0.897555     0.549534     0.345696    Uiso  ? N
   N22        1.0     0.794290     0.420103     0.107031    Uiso  ? N
   N23        1.0     0.556892     0.536264     0.858295    Uiso  ? N
   N24        1.0     0.458324     0.421988     0.599515    Uiso  ? N
   N25        1.0     0.222195     0.873199     0.351342    Uiso  ? N
   N26        1.0     0.110428     0.762160     0.105050    Uiso  ? N
   N27        1.0     0.899582     0.854710     0.847355    Uiso  ? N
   N28        1.0     0.792102     0.752209     0.601715    Uiso  ? N
   N29        1.0     0.555443     0.871677     0.360801    Uiso  ? N
   N30        1.0     0.424446     0.768912     0.094126    Uiso  ? N
   N31        1.0     0.217618     0.874513     0.851756    Uiso  ? N
   N32        1.0     0.104727     0.776220     0.596363    Uiso  ? N
   N33        1.0     0.888030     0.873610     0.353895    Uiso  ? N
   N34        1.0     0.800277     0.751072     0.097834    Uiso  ? N
   N35        1.0     0.557898     0.873193     0.878799    Uiso  ? N
   N36        1.0     0.435706     0.755461     0.606944    Uiso  ? N
