
#======================================================================
# CRYSTAL DATA
#----------------------------------------------------------------------
data_VESTA_phase_1

_chemical_name_common                  'Al   Hf   Mg   N                      '
_cell_length_a                         9.960479
_cell_length_b                         9.949931
_cell_length_c                         9.062758
_cell_angle_alpha                      89.895813
_cell_angle_beta                       89.993858
_cell_angle_gamma                      60.097702
_cell_volume                           778.604931
_space_group_name_H-M_alt              'P 1'
_space_group_IT_number                 1

loop_
_space_group_symop_operation_xyz
   'x, y, z'

loop_
   _atom_site_label
   _atom_site_occupancy
   _atom_site_fract_x
   _atom_site_fract_y
   _atom_site_fract_z
   _atom_site_adp_type
   _atom_site_U_iso_or_equiv
   _atom_site_type_symbol
   Al1        1.0     0.117455     0.088013     0.372077    Uiso  ? Al
   Al2        1.0     0.217952     0.211274     0.123817    Uiso  ? Al
   Al3        1.0     0.895384     0.206733     0.616581    Uiso  ? Al
   Al4        1.0     0.439196     0.097800     0.377819    Uiso  ? Al
   Al5        1.0     0.548871     0.210577     0.130852    Uiso  ? Al
   Al6        1.0     0.116306     0.094218     0.875101    Uiso  ? Al
   Al7        1.0     0.215831     0.208219     0.619597    Uiso  ? Al
   Al8        1.0     0.778475     0.088780     0.374253    Uiso  ? Al
   Al9        1.0     0.896722     0.197270     0.121582    Uiso  ? Al
   Al10       1.0     0.437064     0.099325     0.845468    Uiso  ? Al
   Al11       1.0     0.548092     0.213758     0.607042    Uiso  ? Al
   Al12       1.0     0.113293     0.430122     0.378677    Uiso  ? Al
   Al13       1.0     0.221123     0.536605     0.116785    Uiso  ? Al
   Al14       1.0     0.780128     0.429027     0.877881    Uiso  ? Al
   Al15       1.0     0.893747     0.533583     0.630496    Uiso  ? Al
   Al16       1.0     0.438557     0.434084     0.369996    Uiso  ? Al
   Al17       1.0     0.116284     0.425398     0.867734    Uiso  ? Al
   Al18       1.0     0.901763     0.537294     0.109572    Uiso  ? Al
   Al19       1.0     0.437187     0.429535     0.876545    Uiso  ? Al
   Al20       1.0     0.554585     0.534852     0.626238    Uiso  ? Al
   Al21       1.0     0.114426     0.760498     0.372865    Uiso  ? Al
   Al22       1.0     0.218613     0.873174     0.121072    Uiso  ? Al
   Al23       1.0     0.783907     0.755534     0.856176    Uiso  ? Al
   Al24       1.0     0.898674     0.864000     0.614802    Uiso  ? Al
   Al25       1.0     0.436297     0.763188     0.387038    Uiso  ? Al
   Al26       1.0     0.115443     0.756352     0.874290    Uiso  ? Al
   Al27       1.0     0.215005     0.874904     0.625863    Uiso  ? Al
   Al28       1.0     0.782897     0.760218     0.384085    Uiso  ? Al
   Al29       1.0     0.895073     0.866603     0.128381    Uiso  ? Al
   Al30       1.0     0.438367     0.762721     0.854423    Uiso  ? Al
   Hf1        1.0     0.775265     0.094413     0.854944    Uiso  ? Hf
   Hf2        1.0     0.775263     0.432641     0.351119    Uiso  ? Hf
   Hf3        1.0     0.554981     0.873737     0.103833    Uiso  ? Hf
   Mg1        1.0     0.546045     0.542451     0.102820    Uiso  ? Mg
   Mg2        1.0     0.223115     0.540422     0.616426    Uiso  ? Mg
   Mg3        1.0     0.556748     0.871237     0.611880    Uiso  ? Mg
   N1         1.0     0.218840     0.207625     0.337609    Uiso  ? N
   N2         1.0     0.112054     0.094427     0.087818    Uiso  ? N
   N3         1.0     0.898128     0.212805     0.835215    Uiso  ? N
   N4         1.0     0.778875     0.093896     0.594722    Uiso  ? N
   N5         1.0     0.557511     0.203422     0.345220    Uiso  ? N
   N6         1.0     0.433984     0.111498     0.090936    Uiso  ? N
   N7         1.0     0.219996     0.204736     0.834652    Uiso  ? N
   N8         1.0     0.112131     0.093320     0.583787    Uiso  ? N
   N9         1.0     0.896962     0.187515     0.338456    Uiso  ? N
   N10        1.0     0.776379     0.092737     0.092697    Uiso  ? N
   N11        1.0     0.538593     0.214782     0.830006    Uiso  ? N
   N12        1.0     0.433608     0.109438     0.591239    Uiso  ? N
   N13        1.0     0.219773     0.540019     0.335631    Uiso  ? N
   N14        1.0     0.114501     0.424396     0.081957    Uiso  ? N
   N15        1.0     0.890822     0.534983     0.843036    Uiso  ? N
   N16        1.0     0.778947     0.428570     0.589668    Uiso  ? N
   N17        1.0     0.539006     0.552290     0.340168    Uiso  ? N
   N18        1.0     0.437492     0.419243     0.089954    Uiso  ? N
   N19        1.0     0.221382     0.540722     0.849556    Uiso  ? N
   N20        1.0     0.103143     0.421320     0.588763    Uiso  ? N
   N21        1.0     0.897926     0.549985     0.328225    Uiso  ? N
   N22        1.0     0.794407     0.418333     0.095832    Uiso  ? N
   N23        1.0     0.559508     0.533038     0.842561    Uiso  ? N
   N24        1.0     0.456888     0.423835     0.581213    Uiso  ? N
   N25        1.0     0.224083     0.872441     0.333796    Uiso  ? N
   N26        1.0     0.109441     0.763216     0.089918    Uiso  ? N
   N27        1.0     0.899965     0.857032     0.831209    Uiso  ? N
   N28        1.0     0.794957     0.749479     0.594653    Uiso  ? N
   N29        1.0     0.556831     0.869411     0.348971    Uiso  ? N
   N30        1.0     0.425335     0.772014     0.070593    Uiso  ? N
   N31        1.0     0.213609     0.877345     0.836749    Uiso  ? N
   N32        1.0     0.106731     0.774633     0.580833    Uiso  ? N
   N33        1.0     0.887544     0.871989     0.340867    Uiso  ? N
   N34        1.0     0.796896     0.753399     0.076641    Uiso  ? N
   N35        1.0     0.558190     0.874898     0.848893    Uiso  ? N
   N36        1.0     0.434299     0.754804     0.601328    Uiso  ? N
