
#======================================================================
# CRYSTAL DATA
#----------------------------------------------------------------------
data_VESTA_phase_1

_chemical_name_common                  'Al   Hf   Mg   N '
_cell_length_a                         9.602903
_cell_length_b                         9.584369
_cell_length_c                         10.102414
_cell_angle_alpha                      89.976059
_cell_angle_beta                       89.977547
_cell_angle_gamma                      60.059086
_cell_volume                           805.712477
_space_group_name_H-M_alt              'P 1'
_space_group_IT_number                 1

loop_
_space_group_symop_operation_xyz
   'x, y, z'

loop_
   _atom_site_label
   _atom_site_occupancy
   _atom_site_fract_x
   _atom_site_fract_y
   _atom_site_fract_z
   _atom_site_adp_type
   _atom_site_U_iso_or_equiv
   _atom_site_type_symbol
   Al1        1.0     0.117149     0.088562     0.295630    Uiso  ? Al
   Al2        1.0     0.216821     0.210357     0.045734    Uiso  ? Al
   Al3        1.0     0.895210     0.199315     0.546894    Uiso  ? Al
   Al4        1.0     0.440491     0.099688     0.299919    Uiso  ? Al
   Al5        1.0     0.545967     0.214986     0.050668    Uiso  ? Al
   Al6        1.0     0.117959     0.093435     0.794270    Uiso  ? Al
   Al7        1.0     0.219961     0.208574     0.547299    Uiso  ? Al
   Al8        1.0     0.777249     0.089428     0.294079    Uiso  ? Al
   Al9        1.0     0.894542     0.206512     0.047517    Uiso  ? Al
   Al10       1.0     0.436168     0.099248     0.789616    Uiso  ? Al
   Al11       1.0     0.550545     0.209551     0.542624    Uiso  ? Al
   Al12       1.0     0.117263     0.428965     0.293615    Uiso  ? Al
   Al13       1.0     0.223441     0.537998     0.047281    Uiso  ? Al
   Al14       1.0     0.777165     0.433885     0.788341    Uiso  ? Al
   Al15       1.0     0.897153     0.539585     0.551718    Uiso  ? Al
   Al16       1.0     0.435094     0.430502     0.294098    Uiso  ? Al
   Al17       1.0     0.112510     0.425933     0.795025    Uiso  ? Al
   Al18       1.0     0.898595     0.532291     0.042015    Uiso  ? Al
   Al19       1.0     0.440697     0.432299     0.792133    Uiso  ? Al
   Al20       1.0     0.547195     0.540981     0.553603    Uiso  ? Al
   Al21       1.0     0.113712     0.759131     0.295863    Uiso  ? Al
   Al22       1.0     0.216519     0.873312     0.044854    Uiso  ? Al
   Al23       1.0     0.782131     0.754081     0.790842    Uiso  ? Al
   Al24       1.0     0.893748     0.868089     0.543542    Uiso  ? Al
   Al25       1.0     0.433710     0.765285     0.299118    Uiso  ? Al
   Al26       1.0     0.115836     0.757311     0.793780    Uiso  ? Al
   Al27       1.0     0.219256     0.872822     0.547852    Uiso  ? Al
   Al28       1.0     0.785133     0.761935     0.299164    Uiso  ? Al
   Al29       1.0     0.898677     0.864687     0.050088    Uiso  ? Al
   Al30       1.0     0.442078     0.758897     0.789042    Uiso  ? Al
   Hf1        1.0     0.776070     0.094030     0.802376    Uiso  ? Hf
   Hf2        1.0     0.777302     0.429721     0.308712    Uiso  ? Hf
   Hf3        1.0     0.555660     0.871456     0.058851    Uiso  ? Hf
   Mg1        1.0     0.553482     0.534745     0.041177    Uiso  ? Mg
   Mg2        1.0     0.221226     0.539406     0.548991    Uiso  ? Mg
   Mg3        1.0     0.555848     0.871921     0.543982    Uiso  ? Mg
   N1         1.0     0.219299     0.206992     0.354295    Uiso  ? N
   N2         1.0     0.111710     0.093848     0.104923    Uiso  ? N
   N3         1.0     0.897471     0.214442     0.855456    Uiso  ? N
   N4         1.0     0.776454     0.093672     0.596733    Uiso  ? N
   N5         1.0     0.557003     0.205738     0.351521    Uiso  ? N
   N6         1.0     0.432111     0.112442     0.109371    Uiso  ? N
   N7         1.0     0.222387     0.204395     0.856930    Uiso  ? N
   N8         1.0     0.112196     0.094383     0.605113    Uiso  ? N
   N9         1.0     0.898242     0.186272     0.356248    Uiso  ? N
   N10        1.0     0.777185     0.094222     0.096619    Uiso  ? N
   N11        1.0     0.537821     0.213116     0.860841    Uiso  ? N
   N12        1.0     0.436693     0.109050     0.603547    Uiso  ? N
   N13        1.0     0.219854     0.541005     0.344032    Uiso  ? N
   N14        1.0     0.111840     0.427027     0.102218    Uiso  ? N
   N15        1.0     0.889080     0.537844     0.853051    Uiso  ? N
   N16        1.0     0.779540     0.426921     0.591179    Uiso  ? N
   N17        1.0     0.536025     0.547769     0.359142    Uiso  ? N
   N18        1.0     0.436547     0.423909     0.108127    Uiso  ? N
   N19        1.0     0.222301     0.539012     0.854118    Uiso  ? N
   N20        1.0     0.105809     0.418561     0.610900    Uiso  ? N
   N21        1.0     0.900939     0.546728     0.360519    Uiso  ? N
   N22        1.0     0.792819     0.422332     0.104852    Uiso  ? N
   N23        1.0     0.558742     0.537626     0.838347    Uiso  ? N
   N24        1.0     0.458368     0.417429     0.607590    Uiso  ? N
   N25        1.0     0.218354     0.874197     0.356643    Uiso  ? N
   N26        1.0     0.112517     0.761317     0.104653    Uiso  ? N
   N27        1.0     0.896961     0.855080     0.861401    Uiso  ? N
   N28        1.0     0.792402     0.755620     0.605759    Uiso  ? N
   N29        1.0     0.557957     0.870750     0.328150    Uiso  ? N
   N30        1.0     0.425818     0.766033     0.111033    Uiso  ? N
   N31        1.0     0.221347     0.873528     0.855385    Uiso  ? N
   N32        1.0     0.101682     0.778445     0.609266    Uiso  ? N
   N33        1.0     0.890790     0.873149     0.352125    Uiso  ? N
   N34        1.0     0.800067     0.747379     0.108962    Uiso  ? N
   N35        1.0     0.555991     0.872846     0.846971    Uiso  ? N
   N36        1.0     0.434114     0.757996     0.603666    Uiso  ? N
