
#======================================================================
# CRYSTAL DATA
#----------------------------------------------------------------------
data_VESTA_phase_1

_chemical_name_common                  'Al   Hf   Mg   N                      '
_cell_length_a                         9.605430
_cell_length_b                         9.586515
_cell_length_c                         10.102580
_cell_angle_alpha                      89.975357
_cell_angle_beta                       89.976936
_cell_angle_gamma                      60.060089
_cell_volume                           806.126317
_space_group_name_H-M_alt              'P 1'
_space_group_IT_number                 1

loop_
_space_group_symop_operation_xyz
   'x, y, z'

loop_
   _atom_site_label
   _atom_site_occupancy
   _atom_site_fract_x
   _atom_site_fract_y
   _atom_site_fract_z
   _atom_site_adp_type
   _atom_site_U_iso_or_equiv
   _atom_site_type_symbol
   Al1        1.0     0.117134     0.088566     0.302913    Uiso  ? Al
   Al2        1.0     0.216818     0.210366     0.053013    Uiso  ? Al
   Al3        1.0     0.895196     0.199302     0.554187    Uiso  ? Al
   Al4        1.0     0.440469     0.099703     0.307195    Uiso  ? Al
   Al5        1.0     0.545942     0.215003     0.057952    Uiso  ? Al
   Al6        1.0     0.117949     0.093441     0.801546    Uiso  ? Al
   Al7        1.0     0.219925     0.208583     0.554568    Uiso  ? Al
   Al8        1.0     0.777233     0.089441     0.301360    Uiso  ? Al
   Al9        1.0     0.894562     0.206522     0.054799    Uiso  ? Al
   Al10       1.0     0.436142     0.099264     0.796897    Uiso  ? Al
   Al11       1.0     0.550516     0.209557     0.549912    Uiso  ? Al
   Al12       1.0     0.117247     0.428984     0.300888    Uiso  ? Al
   Al13       1.0     0.223442     0.538007     0.054545    Uiso  ? Al
   Al14       1.0     0.777159     0.433893     0.795626    Uiso  ? Al
   Al15       1.0     0.897137     0.539592     0.559009    Uiso  ? Al
   Al16       1.0     0.435076     0.430520     0.301368    Uiso  ? Al
   Al17       1.0     0.112499     0.425936     0.802295    Uiso  ? Al
   Al18       1.0     0.898614     0.532300     0.049302    Uiso  ? Al
   Al19       1.0     0.440687     0.432306     0.799410    Uiso  ? Al
   Al20       1.0     0.547181     0.540972     0.560882    Uiso  ? Al
   Al21       1.0     0.113703     0.759144     0.303123    Uiso  ? Al
   Al22       1.0     0.216528     0.873322     0.052118    Uiso  ? Al
   Al23       1.0     0.782121     0.754097     0.798129    Uiso  ? Al
   Al24       1.0     0.893725     0.868097     0.550828    Uiso  ? Al
   Al25       1.0     0.433701     0.765289     0.306391    Uiso  ? Al
   Al26       1.0     0.115811     0.757331     0.801056    Uiso  ? Al
   Al27       1.0     0.219234     0.872817     0.555131    Uiso  ? Al
   Al28       1.0     0.785131     0.761940     0.306446    Uiso  ? Al
   Al29       1.0     0.898684     0.864690     0.057370    Uiso  ? Al
   Al30       1.0     0.442067     0.758888     0.796315    Uiso  ? Al
   Hf1        1.0     0.776045     0.094049     0.809701    Uiso  ? Hf
   Hf2        1.0     0.777312     0.429718     0.316029    Uiso  ? Hf
   Hf3        1.0     0.555666     0.871471     0.066154    Uiso  ? Hf
   Mg1        1.0     0.553495     0.534754     0.048477    Uiso  ? Mg
   Mg2        1.0     0.221206     0.539407     0.556267    Uiso  ? Mg
   Mg3        1.0     0.555812     0.871929     0.551273    Uiso  ? Mg
   N1         1.0     0.219280     0.207005     0.361552    Uiso  ? N
   N2         1.0     0.111712     0.093851     0.112188    Uiso  ? N
   N3         1.0     0.897464     0.214444     0.862717    Uiso  ? N
   N4         1.0     0.776425     0.093674     0.604036    Uiso  ? N
   N5         1.0     0.556985     0.205746     0.358788    Uiso  ? N
   N6         1.0     0.432101     0.112445     0.116628    Uiso  ? N
   N7         1.0     0.222371     0.204402     0.864191    Uiso  ? N
   N8         1.0     0.112176     0.094380     0.612375    Uiso  ? N
   N9         1.0     0.898228     0.186278     0.363523    Uiso  ? N
   N10        1.0     0.777177     0.094242     0.103875    Uiso  ? N
   N11        1.0     0.537806     0.213123     0.868104    Uiso  ? N
   N12        1.0     0.436644     0.109076     0.610810    Uiso  ? N
   N13        1.0     0.219843     0.541021     0.351271    Uiso  ? N
   N14        1.0     0.111848     0.427035     0.109471    Uiso  ? N
   N15        1.0     0.889072     0.537855     0.860317    Uiso  ? N
   N16        1.0     0.779528     0.426917     0.598442    Uiso  ? N
   N17        1.0     0.536034     0.547766     0.366389    Uiso  ? N
   N18        1.0     0.436534     0.423926     0.115379    Uiso  ? N
   N19        1.0     0.222290     0.539026     0.861362    Uiso  ? N
   N20        1.0     0.105779     0.418559     0.618159    Uiso  ? N
   N21        1.0     0.900929     0.546736     0.367788    Uiso  ? N
   N22        1.0     0.792859     0.422327     0.112147    Uiso  ? N
   N23        1.0     0.558745     0.537620     0.845611    Uiso  ? N
   N24        1.0     0.458356     0.417426     0.614851    Uiso  ? N
   N25        1.0     0.218353     0.874196     0.363902    Uiso  ? N
   N26        1.0     0.112519     0.761334     0.111899    Uiso  ? N
   N27        1.0     0.896944     0.855106     0.868663    Uiso  ? N
   N28        1.0     0.792384     0.755626     0.613028    Uiso  ? N
   N29        1.0     0.557951     0.870758     0.335391    Uiso  ? N
   N30        1.0     0.425813     0.766064     0.118284    Uiso  ? N
   N31        1.0     0.221342     0.873532     0.862637    Uiso  ? N
   N32        1.0     0.101643     0.778464     0.616524    Uiso  ? N
   N33        1.0     0.890781     0.873160     0.359388    Uiso  ? N
   N34        1.0     0.800063     0.747392     0.116223    Uiso  ? N
   N35        1.0     0.555976     0.872854     0.854246    Uiso  ? N
   N36        1.0     0.434080     0.757981     0.610925    Uiso  ? N
