
#======================================================================
# CRYSTAL DATA
#----------------------------------------------------------------------
data_VESTA_phase_1

_chemical_name_common                  'Al   Hf   Mg   N                      '
_cell_length_a                         10.115130
_cell_length_b                         10.097898
_cell_length_c                         8.610147
_cell_angle_alpha                      89.904045
_cell_angle_beta                       89.941742
_cell_angle_gamma                      60.113968
_cell_volume                           762.501490
_space_group_name_H-M_alt              'P 1'
_space_group_IT_number                 1

loop_
_space_group_symop_operation_xyz
   'x, y, z'

loop_
   _atom_site_label
   _atom_site_occupancy
   _atom_site_fract_x
   _atom_site_fract_y
   _atom_site_fract_z
   _atom_site_adp_type
   _atom_site_U_iso_or_equiv
   _atom_site_type_symbol
   Al1        1.0     0.116724     0.088759     0.347245    Uiso  ? Al
   Al2        1.0     0.219022     0.209902     0.099539    Uiso  ? Al
   Al3        1.0     0.895626     0.201878     0.602173    Uiso  ? Al
   Al4        1.0     0.439258     0.098364     0.360383    Uiso  ? Al
   Al5        1.0     0.544304     0.212952     0.110734    Uiso  ? Al
   Al6        1.0     0.117468     0.093646     0.848910    Uiso  ? Al
   Al7        1.0     0.216401     0.208915     0.591657    Uiso  ? Al
   Al8        1.0     0.778558     0.091023     0.348074    Uiso  ? Al
   Al9        1.0     0.897413     0.202675     0.099836    Uiso  ? Al
   Al10       1.0     0.436949     0.100270     0.827888    Uiso  ? Al
   Al11       1.0     0.551744     0.211680     0.584878    Uiso  ? Al
   Al12       1.0     0.114776     0.429168     0.351465    Uiso  ? Al
   Al13       1.0     0.220580     0.538994     0.101678    Uiso  ? Al
   Al14       1.0     0.777894     0.431319     0.853773    Uiso  ? Al
   Al15       1.0     0.896643     0.535815     0.606875    Uiso  ? Al
   Al16       1.0     0.437158     0.433202     0.347466    Uiso  ? Al
   Al17       1.0     0.116143     0.425242     0.843239    Uiso  ? Al
   Al18       1.0     0.899558     0.535767     0.088220    Uiso  ? Al
   Al19       1.0     0.438590     0.429964     0.850947    Uiso  ? Al
   Al20       1.0     0.550915     0.537671     0.613595    Uiso  ? Al
   Al21       1.0     0.115718     0.759117     0.353596    Uiso  ? Al
   Al22       1.0     0.216757     0.873059     0.098155    Uiso  ? Al
   Al23       1.0     0.782624     0.757131     0.833919    Uiso  ? Al
   Al24       1.0     0.894389     0.869366     0.587131    Uiso  ? Al
   Al25       1.0     0.436856     0.763803     0.372571    Uiso  ? Al
   Al26       1.0     0.113761     0.756755     0.843031    Uiso  ? Al
   Al27       1.0     0.217010     0.874971     0.604534    Uiso  ? Al
   Al28       1.0     0.782503     0.759815     0.362321    Uiso  ? Al
   Al29       1.0     0.898631     0.862190     0.110022    Uiso  ? Al
   Al30       1.0     0.439039     0.761048     0.846554    Uiso  ? Al
   Hf1        1.0     0.774298     0.092598     0.855171    Uiso  ? Hf
   Hf2        1.0     0.776426     0.430629     0.351879    Uiso  ? Hf
   Hf3        1.0     0.555288     0.873618     0.103589    Uiso  ? Hf
   Mg1        1.0     0.548268     0.540379     0.095543    Uiso  ? Mg
   Mg2        1.0     0.223070     0.538470     0.600989    Uiso  ? Mg
   Mg3        1.0     0.556080     0.871590     0.602595    Uiso  ? Mg
   N1         1.0     0.217140     0.207141     0.357599    Uiso  ? N
   N2         1.0     0.112209     0.093693     0.107417    Uiso  ? N
   N3         1.0     0.897041     0.209875     0.855162    Uiso  ? N
   N4         1.0     0.777094     0.093363     0.600996    Uiso  ? N
   N5         1.0     0.558089     0.205878     0.354543    Uiso  ? N
   N6         1.0     0.433886     0.108658     0.122720    Uiso  ? N
   N7         1.0     0.224169     0.203666     0.862498    Uiso  ? N
   N8         1.0     0.112461     0.094614     0.609003    Uiso  ? N
   N9         1.0     0.897641     0.190177     0.358276    Uiso  ? N
   N10        1.0     0.778518     0.094372     0.111233    Uiso  ? N
   N11        1.0     0.539279     0.210212     0.864475    Uiso  ? N
   N12        1.0     0.434669     0.111538     0.599868    Uiso  ? N
   N13        1.0     0.220327     0.540200     0.348954    Uiso  ? N
   N14        1.0     0.111518     0.426570     0.107424    Uiso  ? N
   N15        1.0     0.890184     0.539441     0.854450    Uiso  ? N
   N16        1.0     0.780725     0.425619     0.609829    Uiso  ? N
   N17        1.0     0.541085     0.548213     0.360525    Uiso  ? N
   N18        1.0     0.436159     0.423532     0.108493    Uiso  ? N
   N19        1.0     0.220430     0.540452     0.862884    Uiso  ? N
   N20        1.0     0.107362     0.419422     0.610564    Uiso  ? N
   N21        1.0     0.897917     0.544174     0.362905    Uiso  ? N
   N22        1.0     0.792760     0.421413     0.099564    Uiso  ? N
   N23        1.0     0.557525     0.536825     0.846806    Uiso  ? N
   N24        1.0     0.456395     0.419903     0.608032    Uiso  ? N
   N25        1.0     0.221814     0.873634     0.357235    Uiso  ? N
   N26        1.0     0.112215     0.761605     0.111538    Uiso  ? N
   N27        1.0     0.896388     0.857159     0.864314    Uiso  ? N
   N28        1.0     0.794400     0.754112     0.604487    Uiso  ? N
   N29        1.0     0.556646     0.869098     0.358027    Uiso  ? N
   N30        1.0     0.427943     0.770131     0.093446    Uiso  ? N
   N31        1.0     0.216335     0.874975     0.854851    Uiso  ? N
   N32        1.0     0.103688     0.774817     0.605330    Uiso  ? N
   N33        1.0     0.889597     0.872919     0.354073    Uiso  ? N
   N34        1.0     0.794762     0.749763     0.113683    Uiso  ? N
   N35        1.0     0.558240     0.876593     0.850521    Uiso  ? N
   N36        1.0     0.433823     0.756652     0.608875    Uiso  ? N
