
#======================================================================
# CRYSTAL DATA
#----------------------------------------------------------------------
data_VESTA_phase_1

_chemical_name_common                  'Al   Hf   Mg   N                      '
_cell_length_a                         10.044258
_cell_length_b                         10.026361
_cell_length_c                         8.818227
_cell_angle_alpha                      89.890945
_cell_angle_beta                       89.916313
_cell_angle_gamma                      60.116619
_cell_volume                           769.983413
_space_group_name_H-M_alt              'P 1'
_space_group_IT_number                 1

loop_
_space_group_symop_operation_xyz
   'x, y, z'

loop_
   _atom_site_label
   _atom_site_occupancy
   _atom_site_fract_x
   _atom_site_fract_y
   _atom_site_fract_z
   _atom_site_adp_type
   _atom_site_U_iso_or_equiv
   _atom_site_type_symbol
   Al1        1.0     0.116310     0.088377     0.337585    Uiso  ? Al
   Al2        1.0     0.219493     0.209378     0.093436    Uiso  ? Al
   Al3        1.0     0.895501     0.200182     0.596551    Uiso  ? Al
   Al4        1.0     0.439389     0.098203     0.357780    Uiso  ? Al
   Al5        1.0     0.543181     0.213126     0.105077    Uiso  ? Al
   Al6        1.0     0.117926     0.094046     0.840228    Uiso  ? Al
   Al7        1.0     0.215472     0.209590     0.583931    Uiso  ? Al
   Al8        1.0     0.778808     0.091574     0.338835    Uiso  ? Al
   Al9        1.0     0.897306     0.204652     0.091312    Uiso  ? Al
   Al10       1.0     0.436457     0.100884     0.822733    Uiso  ? Al
   Al11       1.0     0.553236     0.211550     0.578813    Uiso  ? Al
   Al12       1.0     0.114677     0.429368     0.341082    Uiso  ? Al
   Al13       1.0     0.220356     0.539861     0.095952    Uiso  ? Al
   Al14       1.0     0.777862     0.431923     0.846354    Uiso  ? Al
   Al15       1.0     0.897939     0.535771     0.600356    Uiso  ? Al
   Al16       1.0     0.436549     0.433328     0.337886    Uiso  ? Al
   Al17       1.0     0.116282     0.424566     0.837181    Uiso  ? Al
   Al18       1.0     0.898733     0.535853     0.081515    Uiso  ? Al
   Al19       1.0     0.438957     0.429279     0.843580    Uiso  ? Al
   Al20       1.0     0.550820     0.537519     0.611789    Uiso  ? Al
   Al21       1.0     0.116457     0.758949     0.345600    Uiso  ? Al
   Al22       1.0     0.216008     0.873024     0.087126    Uiso  ? Al
   Al23       1.0     0.782823     0.757477     0.826930    Uiso  ? Al
   Al24       1.0     0.893545     0.871295     0.578878    Uiso  ? Al
   Al25       1.0     0.436691     0.764109     0.367362    Uiso  ? Al
   Al26       1.0     0.112711     0.757088     0.833481    Uiso  ? Al
   Al27       1.0     0.216742     0.875525     0.594957    Uiso  ? Al
   Al28       1.0     0.782824     0.759405     0.357011    Uiso  ? Al
   Al29       1.0     0.899304     0.860754     0.105336    Uiso  ? Al
   Al30       1.0     0.439501     0.761475     0.840461    Uiso  ? Al
   Hf1        1.0     0.774292     0.091921     0.855112    Uiso  ? Hf
   Hf2        1.0     0.776993     0.429766     0.351778    Uiso  ? Hf
   Hf3        1.0     0.555268     0.873579     0.103746    Uiso  ? Hf
   Mg1        1.0     0.549802     0.539684     0.091853    Uiso  ? Mg
   Mg2        1.0     0.223332     0.537649     0.595966    Uiso  ? Mg
   Mg3        1.0     0.556123     0.871660     0.599789    Uiso  ? Mg
   N1         1.0     0.215909     0.207458     0.363104    Uiso  ? N
   N2         1.0     0.112005     0.093257     0.114317    Uiso  ? N
   N3         1.0     0.897129     0.210956     0.861945    Uiso  ? N
   N4         1.0     0.776518     0.092835     0.609250    Uiso  ? N
   N5         1.0     0.558953     0.206570     0.357777    Uiso  ? N
   N6         1.0     0.432939     0.109181     0.130644    Uiso  ? N
   N7         1.0     0.224984     0.203222     0.870412    Uiso  ? N
   N8         1.0     0.112572     0.095088     0.617913    Uiso  ? N
   N9         1.0     0.898156     0.188580     0.366481    Uiso  ? N
   N10        1.0     0.778797     0.095081     0.111644    Uiso  ? N
   N11        1.0     0.538038     0.209675     0.873857    Uiso  ? N
   N12        1.0     0.434773     0.112022     0.602238    Uiso  ? N
   N13        1.0     0.220604     0.539760     0.354077    Uiso  ? N
   N14        1.0     0.110758     0.427076     0.113975    Uiso  ? N
   N15        1.0     0.889585     0.540276     0.858766    Uiso  ? N
   N16        1.0     0.780984     0.425122     0.611110    Uiso  ? N
   N17        1.0     0.540408     0.547078     0.365817    Uiso  ? N
   N18        1.0     0.435679     0.424419     0.114059    Uiso  ? N
   N19        1.0     0.220009     0.540865     0.866973    Uiso  ? N
   N20        1.0     0.108151     0.418265     0.619034    Uiso  ? N
   N21        1.0     0.899309     0.543351     0.372781    Uiso  ? N
   N22        1.0     0.792931     0.422186     0.106522    Uiso  ? N
   N23        1.0     0.557615     0.537811     0.848486    Uiso  ? N
   N24        1.0     0.457213     0.418143     0.617996    Uiso  ? N
   N25        1.0     0.220414     0.874735     0.368003    Uiso  ? N
   N26        1.0     0.113226     0.761445     0.120184    Uiso  ? N
   N27        1.0     0.896796     0.855040     0.875068    Uiso  ? N
   N28        1.0     0.794566     0.755357     0.607700    Uiso  ? N
   N29        1.0     0.556938     0.869397     0.358137    Uiso  ? N
   N30        1.0     0.427142     0.770060     0.103881    Uiso  ? N
   N31        1.0     0.216777     0.874342     0.861889    Uiso  ? N
   N32        1.0     0.102115     0.775866     0.612482    Uiso  ? N
   N33        1.0     0.889673     0.874107     0.357203    Uiso  ? N
   N34        1.0     0.795723     0.747793     0.124297    Uiso  ? N
   N35        1.0     0.557952     0.876368     0.853656    Uiso  ? N
   N36        1.0     0.433862     0.756977     0.611538    Uiso  ? N
