# generated using pymatgen
data_Gd5Al31N36
_symmetry_space_group_name_H-M   'P 1'
_cell_length_a   9.75824448
_cell_length_b   9.75288334
_cell_length_c   10.25427409
_cell_angle_alpha   89.61640600
_cell_angle_beta   89.95493775
_cell_angle_gamma   60.10039008
_symmetry_Int_Tables_number   1
_chemical_formula_structural   Gd5Al31N36
_chemical_formula_sum   'Gd5 Al31 N36'
_cell_volume   845.99365628
_cell_formula_units_Z   1
loop_
 _symmetry_equiv_pos_site_id
 _symmetry_equiv_pos_as_xyz
  1  'x, y, z'
loop_
 _atom_site_type_symbol
 _atom_site_label
 _atom_site_symmetry_multiplicity
 _atom_site_fract_x
 _atom_site_fract_y
 _atom_site_fract_z
 _atom_site_occupancy
  Al  Al0  1  0.11478139  0.09880965  0.30729469  1
  Al  Al1  1  0.21863169  0.20855871  0.05686558  1
  Al  Al2  1  0.79399201  0.08195658  0.80592754  1
  Al  Al3  1  0.90117100  0.20143205  0.56334581  1
  Al  Al4  1  0.44432972  0.09448310  0.36523871  1
  Al  Al5  1  0.54654713  0.20700173  0.11599009  1
  Al  Al6  1  0.10688728  0.08819028  0.81599184  1
  Al  Al7  1  0.88191583  0.20501917  0.05544550  1
  Al  Al8  1  0.45854442  0.07667534  0.87873399  1
  Al  Al9  1  0.56702398  0.18674717  0.62644276  1
  Al  Al10  1  0.12229133  0.41902524  0.31224001  1
  Al  Al11  1  0.20955141  0.55103831  0.06421077  1
  Al  Al12  1  0.78707523  0.42704230  0.80626430  1
  Al  Al13  1  0.89218730  0.54029038  0.55501418  1
  Al  Al14  1  0.42973615  0.44074229  0.29287765  1
  Al  Al15  1  0.55479329  0.54722482  0.05885483  1
  Al  Al16  1  0.09633864  0.44523231  0.80457079  1
  Al  Al17  1  0.21921464  0.54160247  0.55482444  1
  Al  Al18  1  0.77873564  0.42633130  0.30706685  1
  Al  Al19  1  0.11142522  0.75813058  0.31067251  1
  Al  Al20  1  0.21836670  0.87490280  0.06063549  1
  Al  Al21  1  0.77653501  0.76221236  0.80329570  1
  Al  Al22  1  0.90126008  0.85744991  0.56481438  1
  Al  Al23  1  0.43592224  0.76207896  0.30392280  1
  Al  Al24  1  0.54917774  0.88300000  0.11655966  1
  Al  Al25  1  0.10804637  0.76363631  0.81052905  1
  Al  Al26  1  0.21541729  0.87439723  0.56027258  1
  Al  Al27  1  0.78205094  0.75896714  0.31439883  1
  Al  Al28  1  0.88361288  0.88383691  0.05349053  1
  Al  Al29  1  0.44315380  0.77167827  0.81298389  1
  Al  Al30  1  0.56531091  0.86738948  0.58155662  1
  Gd  Gd31  1  0.23264689  0.20039250  0.59152322  1
  Gd  Gd32  1  0.77703111  0.09326062  0.33129705  1
  Gd  Gd33  1  0.88725971  0.54557957  0.06647158  1
  Gd  Gd34  1  0.43938561  0.42134068  0.84221432  1
  Gd  Gd35  1  0.55272414  0.53618531  0.56370769  1
  N  N36  1  0.22201397  0.20249715  0.36291287  1
  N  N37  1  0.10734894  0.09823388  0.11423538  1
  N  N38  1  0.88701753  0.20651765  0.86752148  1
  N  N39  1  0.79231331  0.08726603  0.60608534  1
  N  N40  1  0.51783522  0.22326481  0.29856258  1
  N  N41  1  0.44191889  0.09617842  0.06414636  1
  N  N42  1  0.21681563  0.21096053  0.85536459  1
  N  N43  1  0.09992130  0.07396437  0.63290153  1
  N  N44  1  0.90689468  0.22048811  0.37749135  1
  N  N45  1  0.77394779  0.09816401  0.10119593  1
  N  N46  1  0.57647557  0.16242405  0.81293472  1
  N  N47  1  0.49100813  0.07376582  0.54588663  1
  N  N48  1  0.22273528  0.54135094  0.36462803  1
  N  N49  1  0.14090293  0.41254317  0.12787307  1
  N  N50  1  0.88495550  0.54304387  0.85056411  1
  N  N51  1  0.80848793  0.41247310  0.62115376  1
  N  N52  1  0.55073810  0.53849885  0.34397025  1
  N  N53  1  0.43519473  0.44172669  0.09365863  1
  N  N54  1  0.18044507  0.56038018  0.88203727  1
  N  N55  1  0.09580993  0.46097439  0.61873559  1
  N  N56  1  0.88899628  0.53741379  0.35880071  1
  N  N57  1  0.76368296  0.41328152  0.12282091  1
  N  N58  1  0.57196792  0.55333818  0.86559115  1
  N  N59  1  0.42751401  0.40670339  0.61503519  1
  N  N60  1  0.21775816  0.87421196  0.36745105  1
  N  N61  1  0.10368082  0.76955367  0.12158845  1
  N  N62  1  0.89190897  0.86948484  0.86306431  1
  N  N63  1  0.78198634  0.75564027  0.61378063  1
  N  N64  1  0.55259045  0.86982202  0.33075299  1
  N  N65  1  0.43783066  0.76570905  0.11564916  1
  N  N66  1  0.22238913  0.86905587  0.87371635  1
  N  N67  1  0.12095131  0.75457953  0.62134393  1
  N  N68  1  0.90829089  0.83702033  0.38248354  1
  N  N69  1  0.76812565  0.79622611  0.12950843  1
  N  N70  1  0.56222442  0.86563180  0.84631611  1
  N  N71  1  0.42651872  0.79344902  0.62173491  1
