# generated using pymatgen
data_Gd5Al31N36
_symmetry_space_group_name_H-M   'P 1'
_cell_length_a   9.70900336
_cell_length_b   9.72062921
_cell_length_c   10.49634772
_cell_angle_alpha   90.13997872
_cell_angle_beta   90.39477915
_cell_angle_gamma   60.23272489
_symmetry_Int_Tables_number   1
_chemical_formula_structural   Gd5Al31N36
_chemical_formula_sum   'Gd5 Al31 N36'
_cell_volume   859.88619360
_cell_formula_units_Z   1
loop_
 _symmetry_equiv_pos_site_id
 _symmetry_equiv_pos_as_xyz
  1  'x, y, z'
loop_
 _atom_site_type_symbol
 _atom_site_label
 _atom_site_symmetry_multiplicity
 _atom_site_fract_x
 _atom_site_fract_y
 _atom_site_fract_z
 _atom_site_occupancy
  Al  Al0  1  0.12926724  0.08892345  0.30592279  1
  Al  Al1  1  0.22200448  0.20605226  0.06459035  1
  Al  Al2  1  0.77667470  0.09814804  0.88782886  1
  Al  Al3  1  0.88597356  0.19795168  0.64843797  1
  Al  Al4  1  0.45371354  0.08631542  0.38109594  1
  Al  Al5  1  0.54714824  0.20584081  0.12671911  1
  Al  Al6  1  0.10887456  0.08848833  0.82763560  1
  Al  Al7  1  0.88628671  0.20858071  0.12944521  1
  Al  Al8  1  0.45212480  0.08198619  0.88798887  1
  Al  Al9  1  0.56918681  0.18114653  0.64306119  1
  Al  Al10  1  0.13517170  0.41465342  0.31885857  1
  Al  Al11  1  0.21170709  0.54916313  0.07536051  1
  Al  Al12  1  0.77502521  0.42948082  0.88583667  1
  Al  Al13  1  0.88232087  0.54443967  0.64410542  1
  Al  Al14  1  0.43927981  0.43750385  0.30426803  1
  Al  Al15  1  0.54593536  0.55144933  0.06255229  1
  Al  Al16  1  0.09688796  0.44234447  0.82660332  1
  Al  Al17  1  0.21791201  0.53979285  0.56775488  1
  Al  Al18  1  0.80760537  0.41778874  0.38858940  1
  Al  Al19  1  0.11500213  0.75654786  0.32179462  1
  Al  Al20  1  0.22272743  0.87130385  0.06848531  1
  Al  Al21  1  0.76632225  0.77214352  0.88334379  1
  Al  Al22  1  0.90069419  0.85965404  0.57653957  1
  Al  Al23  1  0.44787819  0.75494558  0.31303028  1
  Al  Al24  1  0.55377929  0.88386316  0.13631808  1
  Al  Al25  1  0.10192239  0.76845541  0.81911680  1
  Al  Al26  1  0.21507029  0.87428234  0.56848786  1
  Al  Al27  1  0.78252245  0.74757631  0.39725616  1
  Al  Al28  1  0.89341825  0.87666312  0.06366250  1
  Al  Al29  1  0.43124766  0.77606963  0.81635859  1
  Al  Al30  1  0.56093259  0.87598404  0.63804060  1
  Gd  Gd31  1  0.21712786  0.20798220  0.58818790  1
  Gd  Gd32  1  0.77439652  0.10201968  0.37317567  1
  Gd  Gd33  1  0.88215372  0.54531370  0.12734189  1
  Gd  Gd34  1  0.42747660  0.42846105  0.84379789  1
  Gd  Gd35  1  0.55200157  0.53662265  0.57770372  1
  N  N36  1  0.22791055  0.19853229  0.36930648  1
  N  N37  1  0.12061474  0.08934327  0.11785684  1
  N  N38  1  0.87583268  0.21433233  0.83247745  1
  N  N39  1  0.78308802  0.08979301  0.59252156  1
  N  N40  1  0.52327955  0.21691038  0.30501757  1
  N  N41  1  0.44600094  0.09139806  0.06898160  1
  N  N42  1  0.21284886  0.21344046  0.87190547  1
  N  N43  1  0.10306661  0.06996749  0.64672362  1
  N  N44  1  0.90698081  0.22062376  0.30994098  1
  N  N45  1  0.77329171  0.10177666  0.08198973  1
  N  N46  1  0.57274814  0.16715810  0.82685124  1
  N  N47  1  0.48481276  0.07118045  0.56134113  1
  N  N48  1  0.23085976  0.53814403  0.37848518  1
  N  N49  1  0.14765051  0.40805761  0.13634115  1
  N  N50  1  0.87089290  0.54886188  0.83534700  1
  N  N51  1  0.82193419  0.40010203  0.57408605  1
  N  N52  1  0.56679929  0.53155719  0.35884473  1
  N  N53  1  0.43686402  0.44114471  0.10862886  1
  N  N54  1  0.17306763  0.56685322  0.89881678  1
  N  N55  1  0.09920458  0.46143350  0.64563621  1
  N  N56  1  0.90312608  0.53597928  0.34327125  1
  N  N57  1  0.76601205  0.41209641  0.06432814  1
  N  N58  1  0.55211982  0.56608133  0.87235484  1
  N  N59  1  0.42885587  0.40372211  0.62586077  1
  N  N60  1  0.22589228  0.87108390  0.37737408  1
  N  N61  1  0.10574062  0.76731191  0.13586461  1
  N  N62  1  0.89298874  0.87666764  0.87510807  1
  N  N63  1  0.77290763  0.75305668  0.58317015  1
  N  N64  1  0.56782025  0.86802524  0.32196843  1
  N  N65  1  0.44077866  0.76312108  0.12742042  1
  N  N66  1  0.21884846  0.87152288  0.88543384  1
  N  N67  1  0.11927075  0.75457045  0.63251732  1
  N  N68  1  0.91264362  0.84011819  0.39104791  1
  N  N69  1  0.75544776  0.79437506  0.06521648  1
  N  N70  1  0.55398986  0.87815448  0.82240201  1
  N  N71  1  0.42238609  0.79112251  0.63238917  1
