# generated using pymatgen
data_Gd5Al31N36
_symmetry_space_group_name_H-M   'P 1'
_cell_length_a   9.71682364
_cell_length_b   9.76948216
_cell_length_c   10.26792858
_cell_angle_alpha   90.57918364
_cell_angle_beta   90.83289305
_cell_angle_gamma   59.96781373
_symmetry_Int_Tables_number   1
_chemical_formula_structural   Gd5Al31N36
_chemical_formula_sum   'Gd5 Al31 N36'
_cell_volume   843.76241179
_cell_formula_units_Z   1
loop_
 _symmetry_equiv_pos_site_id
 _symmetry_equiv_pos_as_xyz
  1  'x, y, z'
loop_
 _atom_site_type_symbol
 _atom_site_label
 _atom_site_symmetry_multiplicity
 _atom_site_fract_x
 _atom_site_fract_y
 _atom_site_fract_z
 _atom_site_occupancy
  Al  Al0  1  0.11107369  0.09318818  0.39196653  1
  Al  Al1  1  0.22681243  0.20021266  0.15371230  1
  Al  Al2  1  0.78584753  0.08347259  0.89940679  1
  Al  Al3  1  0.89430784  0.19705784  0.65704188  1
  Al  Al4  1  0.45122520  0.09067038  0.39213990  1
  Al  Al5  1  0.55432621  0.19848639  0.14144986  1
  Al  Al6  1  0.11289884  0.09425208  0.90437932  1
  Al  Al7  1  0.88782810  0.20687185  0.13923481  1
  Al  Al8  1  0.44679679  0.08260817  0.90666798  1
  Al  Al9  1  0.56624420  0.18417811  0.66183753  1
  Al  Al10  1  0.10720332  0.42962493  0.39852955  1
  Al  Al11  1  0.21411206  0.54793706  0.08734278  1
  Al  Al12  1  0.77682581  0.42943998  0.89148734  1
  Al  Al13  1  0.89269019  0.53934470  0.65102038  1
  Al  Al14  1  0.43257754  0.43317569  0.32146437  1
  Al  Al15  1  0.55359850  0.54590803  0.14698870  1
  Al  Al16  1  0.10830359  0.42176225  0.90558217  1
  Al  Al17  1  0.22303376  0.53910923  0.58168639  1
  Al  Al18  1  0.79417923  0.42326937  0.40013651  1
  Al  Al19  1  0.11361987  0.76021379  0.38510598  1
  Al  Al20  1  0.22097259  0.87625243  0.14488259  1
  Al  Al21  1  0.77272338  0.76968278  0.89060027  1
  Al  Al22  1  0.89508456  0.86680934  0.65549018  1
  Al  Al23  1  0.43822024  0.77723916  0.39068899  1
  Al  Al24  1  0.55335681  0.87819228  0.14577616  1
  Al  Al25  1  0.10465522  0.77216331  0.89855559  1
  Al  Al26  1  0.21379373  0.87617656  0.64439294  1
  Al  Al27  1  0.77998619  0.75719508  0.40600978  1
  Al  Al28  1  0.88537535  0.87604276  0.14338375  1
  Al  Al29  1  0.44652045  0.76685944  0.89448945  1
  Al  Al30  1  0.55990925  0.87309799  0.64524943  1
  Gd  Gd31  1  0.23070928  0.19932165  0.63756560  1
  Gd  Gd32  1  0.78126879  0.09604694  0.39855479  1
  Gd  Gd33  1  0.87951550  0.54634116  0.14140427  1
  Gd  Gd34  1  0.44940206  0.42342090  0.87706930  1
  Gd  Gd35  1  0.54975511  0.53988905  0.61387023  1
  N  N36  1  0.22533099  0.20219914  0.34918649  1
  N  N37  1  0.11205428  0.09475899  0.09098053  1
  N  N38  1  0.89162516  0.20396562  0.84531009  1
  N  N39  1  0.78171740  0.09075035  0.61735637  1
  N  N40  1  0.53298023  0.21347937  0.32428156  1
  N  N41  1  0.44102965  0.09190961  0.09295185  1
  N  N42  1  0.22364281  0.20307179  0.85816995  1
  N  N43  1  0.09102072  0.07977818  0.57572989  1
  N  N44  1  0.90336736  0.22297209  0.32185176  1
  N  N45  1  0.77800643  0.09504545  0.09353832  1
  N  N46  1  0.57424836  0.16208865  0.84864315  1
  N  N47  1  0.48555125  0.07335305  0.57324503  1
  N  N48  1  0.22699479  0.53768963  0.38201887  1
  N  N49  1  0.13355188  0.40941346  0.09635990  1
  N  N50  1  0.89005623  0.53828932  0.84665483  1
  N  N51  1  0.81299938  0.40482226  0.58693228  1
  N  N52  1  0.55861060  0.54256267  0.34646576  1
  N  N53  1  0.43672246  0.43667753  0.12677097  1
  N  N54  1  0.19188903  0.55557787  0.89764731  1
  N  N55  1  0.09534825  0.45097860  0.58435937  1
  N  N56  1  0.88703015  0.54271432  0.35742977  1
  N  N57  1  0.75588752  0.41566709  0.07510990  1
  N  N58  1  0.56853928  0.56093199  0.83248676  1
  N  N59  1  0.42611356  0.40332648  0.64538237  1
  N  N60  1  0.22050252  0.87408286  0.33099941  1
  N  N61  1  0.10490739  0.77441846  0.09392975  1
  N  N62  1  0.89311178  0.86903992  0.84088854  1
  N  N63  1  0.77977264  0.75837593  0.59637073  1
  N  N64  1  0.56150368  0.86988748  0.33318022  1
  N  N65  1  0.44434016  0.76408651  0.08823014  1
  N  N66  1  0.22139820  0.87512662  0.83886964  1
  N  N67  1  0.11096438  0.76325043  0.58943089  1
  N  N68  1  0.89968642  0.84311258  0.32900807  1
  N  N69  1  0.75820340  0.79636994  0.07359955  1
  N  N70  1  0.55082905  0.87465747  0.83387991  1
  N  N71  1  0.42210377  0.80318524  0.57567544  1
