# generated using pymatgen
data_Gd5Al31N36
_symmetry_space_group_name_H-M   'P 1'
_cell_length_a   9.74449781
_cell_length_b   9.71730553
_cell_length_c   10.43083324
_cell_angle_alpha   90.12501698
_cell_angle_beta   90.35322107
_cell_angle_gamma   60.21644382
_symmetry_Int_Tables_number   1
_chemical_formula_structural   Gd5Al31N36
_chemical_formula_sum   'Gd5 Al31 N36'
_cell_volume   857.21460568
_cell_formula_units_Z   1
loop_
 _symmetry_equiv_pos_site_id
 _symmetry_equiv_pos_as_xyz
  1  'x, y, z'
loop_
 _atom_site_type_symbol
 _atom_site_label
 _atom_site_symmetry_multiplicity
 _atom_site_fract_x
 _atom_site_fract_y
 _atom_site_fract_z
 _atom_site_occupancy
  Al  Al0  1  0.12632603  0.09193229  0.29510498  1
  Al  Al1  1  0.22483156  0.20592903  0.05128016  1
  Al  Al2  1  0.77744221  0.09246017  0.87642265  1
  Al  Al3  1  0.88646491  0.19936192  0.64194629  1
  Al  Al4  1  0.44852411  0.09101110  0.37172404  1
  Al  Al5  1  0.55095160  0.20283416  0.11447195  1
  Al  Al6  1  0.11174124  0.08432787  0.81950918  1
  Al  Al7  1  0.88986507  0.20622953  0.11296200  1
  Al  Al8  1  0.45620474  0.07667604  0.87507265  1
  Al  Al9  1  0.56993474  0.18015082  0.63390011  1
  Al  Al10  1  0.12775963  0.41746151  0.30845711  1
  Al  Al11  1  0.21522982  0.54737010  0.06281574  1
  Al  Al12  1  0.77624505  0.42856498  0.87195168  1
  Al  Al13  1  0.89364755  0.53963572  0.55037819  1
  Al  Al14  1  0.43177726  0.43746553  0.28838407  1
  Al  Al15  1  0.54692341  0.55346836  0.05734567  1
  Al  Al16  1  0.09237543  0.44231490  0.80311413  1
  Al  Al17  1  0.22123972  0.53830412  0.55512987  1
  Al  Al18  1  0.78356649  0.43331069  0.31839976  1
  Al  Al19  1  0.11169487  0.75950206  0.31096340  1
  Al  Al20  1  0.22284450  0.87079400  0.05665673  1
  Al  Al21  1  0.78252145  0.75815771  0.80123016  1
  Al  Al22  1  0.89920922  0.85710287  0.56464757  1
  Al  Al23  1  0.43667699  0.76199915  0.30233221  1
  Al  Al24  1  0.54666515  0.88875679  0.13137320  1
  Al  Al25  1  0.10146640  0.76534950  0.80965170  1
  Al  Al26  1  0.21439318  0.87122651  0.55990628  1
  Al  Al27  1  0.78063946  0.76771138  0.31326872  1
  Al  Al28  1  0.89011461  0.87899459  0.05938091  1
  Al  Al29  1  0.43580685  0.77028633  0.80605205  1
  Al  Al30  1  0.55914883  0.87381462  0.62195368  1
  Gd  Gd31  1  0.21942509  0.20103300  0.58149099  1
  Gd  Gd32  1  0.77111914  0.11115799  0.37083707  1
  Gd  Gd33  1  0.89863910  0.55437054  0.06899330  1
  Gd  Gd34  1  0.42988666  0.42779094  0.83322712  1
  Gd  Gd35  1  0.55889568  0.53077857  0.55758081  1
  N  N36  1  0.22328558  0.20172747  0.36082909  1
  N  N37  1  0.12254409  0.08980093  0.10375998  1
  N  N38  1  0.87987878  0.20989288  0.83128997  1
  N  N39  1  0.78511184  0.08759518  0.58932658  1
  N  N40  1  0.52388182  0.21609062  0.29382222  1
  N  N41  1  0.44833769  0.09021367  0.05620455  1
  N  N42  1  0.21606392  0.21087620  0.85587129  1
  N  N43  1  0.10223745  0.06622912  0.63875922  1
  N  N44  1  0.90609145  0.21863502  0.29420179  1
  N  N45  1  0.77316270  0.10467321  0.06654458  1
  N  N46  1  0.57330162  0.16620317  0.81688409  1
  N  N47  1  0.48547179  0.07131877  0.55142788  1
  N  N48  1  0.22661864  0.54042296  0.36576028  1
  N  N49  1  0.15125890  0.40627568  0.12835421  1
  N  N50  1  0.88083434  0.54229948  0.85242126  1
  N  N51  1  0.81763898  0.39941889  0.57211693  1
  N  N52  1  0.55709956  0.53505064  0.33521521  1
  N  N53  1  0.43778700  0.43949927  0.09466958  1
  N  N54  1  0.17407361  0.56081049  0.88422981  1
  N  N55  1  0.09561780  0.46040331  0.62090949  1
  N  N56  1  0.89501852  0.54354266  0.35041909  1
  N  N57  1  0.76681396  0.42405906  0.07772749  1
  N  N58  1  0.55722246  0.56186530  0.86829032  1
  N  N59  1  0.43116352  0.40301394  0.61386601  1
  N  N60  1  0.21952311  0.87415727  0.36715528  1
  N  N61  1  0.10715750  0.76678848  0.12370769  1
  N  N62  1  0.88979136  0.86704022  0.87053969  1
  N  N63  1  0.78379563  0.75325112  0.61387960  1
  N  N64  1  0.54975066  0.87508946  0.31871873  1
  N  N65  1  0.43766484  0.76726525  0.11577728  1
  N  N66  1  0.22113804  0.86552547  0.87369430  1
  N  N67  1  0.11815783  0.75274102  0.62188229  1
  N  N68  1  0.90723596  0.84582488  0.38065624  1
  N  N69  1  0.76631469  0.80392800  0.13152881  1
  N  N70  1  0.55666758  0.87244351  0.81278356  1
  N  N71  1  0.42436921  0.78606297  0.61960242  1
