# generated using pymatgen
data_Gd5Al31N36
_symmetry_space_group_name_H-M   'P 1'
_cell_length_a   9.75594716
_cell_length_b   9.75395770
_cell_length_c   10.33407587
_cell_angle_alpha   90.14333503
_cell_angle_beta   90.39838435
_cell_angle_gamma   59.92256664
_symmetry_Int_Tables_number   1
_chemical_formula_structural   Gd5Al31N36
_chemical_formula_sum   'Gd5 Al31 N36'
_cell_volume   850.94680153
_cell_formula_units_Z   1
loop_
 _symmetry_equiv_pos_site_id
 _symmetry_equiv_pos_as_xyz
  1  'x, y, z'
loop_
 _atom_site_type_symbol
 _atom_site_label
 _atom_site_symmetry_multiplicity
 _atom_site_fract_x
 _atom_site_fract_y
 _atom_site_fract_z
 _atom_site_occupancy
  Al  Al0  1  0.10612549  0.09571568  0.38827922  1
  Al  Al1  1  0.23377118  0.19283462  0.15715479  1
  Al  Al2  1  0.78692694  0.08281911  0.90191933  1
  Al  Al3  1  0.89124260  0.19934207  0.65838289  1
  Al  Al4  1  0.45556718  0.08609540  0.39556431  1
  Al  Al5  1  0.55390099  0.19830153  0.14163613  1
  Al  Al6  1  0.10938702  0.10483883  0.90721008  1
  Al  Al7  1  0.88769408  0.20562052  0.14009530  1
  Al  Al8  1  0.44294681  0.08755315  0.90568546  1
  Al  Al9  1  0.56245736  0.18829678  0.66571021  1
  Al  Al10  1  0.12132551  0.42613081  0.33964898  1
  Al  Al11  1  0.21323643  0.54636038  0.08805856  1
  Al  Al12  1  0.77239063  0.43061717  0.89169418  1
  Al  Al13  1  0.87939212  0.54723284  0.65355529  1
  Al  Al14  1  0.43121438  0.43065224  0.32473988  1
  Al  Al15  1  0.55686427  0.53993764  0.15168979  1
  Al  Al16  1  0.10502659  0.43919402  0.83541281  1
  Al  Al17  1  0.21565539  0.54117600  0.58725782  1
  Al  Al18  1  0.80075500  0.42238438  0.39958831  1
  Al  Al19  1  0.11802622  0.75187377  0.32624995  1
  Al  Al20  1  0.22713110  0.86627950  0.08554677  1
  Al  Al21  1  0.76914811  0.77500424  0.89458517  1
  Al  Al22  1  0.88617886  0.87238213  0.65733380  1
  Al  Al23  1  0.44241831  0.76873286  0.35581062  1
  Al  Al24  1  0.55634787  0.87724136  0.15056647  1
  Al  Al25  1  0.11377615  0.76233471  0.83479169  1
  Al  Al26  1  0.21032541  0.87004656  0.56838654  1
  Al  Al27  1  0.78443516  0.75347431  0.40414116  1
  Al  Al28  1  0.88369568  0.87597318  0.14693802  1
  Al  Al29  1  0.44131604  0.77228520  0.84865864  1
  Al  Al30  1  0.56109798  0.87667638  0.64218702  1
  Gd  Gd31  1  0.22629713  0.19667788  0.62636185  1
  Gd  Gd32  1  0.77909812  0.09843662  0.40098515  1
  Gd  Gd33  1  0.88758024  0.53878859  0.12471492  1
  Gd  Gd34  1  0.44774149  0.42650102  0.87948123  1
  Gd  Gd35  1  0.54599286  0.53912510  0.60445592  1
  N  N36  1  0.23140405  0.19180593  0.35569411  1
  N  N37  1  0.11096330  0.09970937  0.09406201  1
  N  N38  1  0.89156141  0.20489272  0.84537551  1
  N  N39  1  0.77747974  0.09489244  0.61888152  1
  N  N40  1  0.53169181  0.21149499  0.32363716  1
  N  N41  1  0.44239764  0.08996401  0.09121609  1
  N  N42  1  0.22177598  0.20820591  0.85406315  1
  N  N43  1  0.08013555  0.08625963  0.57162298  1
  N  N44  1  0.90213808  0.22324545  0.32002134  1
  N  N45  1  0.78005662  0.09293564  0.09418794  1
  N  N46  1  0.57465102  0.16525822  0.85235432  1
  N  N47  1  0.48497643  0.07775842  0.57514919  1
  N  N48  1  0.22486720  0.53996954  0.39687955  1
  N  N49  1  0.14777794  0.41238130  0.15586872  1
  N  N50  1  0.87804671  0.54626316  0.85403933  1
  N  N51  1  0.81227753  0.40826853  0.58595865  1
  N  N52  1  0.56363502  0.53195846  0.35056748  1
  N  N53  1  0.43715739  0.43620330  0.12819931  1
  N  N54  1  0.18500023  0.55997395  0.90783266  1
  N  N55  1  0.09471311  0.45988459  0.64952224  1
  N  N56  1  0.89438940  0.53970518  0.35184512  1
  N  N57  1  0.75441558  0.41344039  0.07414210  1
  N  N58  1  0.56795654  0.55943158  0.82751461  1
  N  N59  1  0.42176368  0.40624716  0.65020800  1
  N  N60  1  0.21813873  0.86606030  0.37752407  1
  N  N61  1  0.11481055  0.76159980  0.14013423  1
  N  N62  1  0.88987271  0.87064985  0.84262982  1
  N  N63  1  0.77910629  0.76067919  0.59317686  1
  N  N64  1  0.56700766  0.86943905  0.33768411  1
  N  N65  1  0.44555585  0.76256230  0.13356574  1
  N  N66  1  0.22423043  0.87028265  0.89410515  1
  N  N67  1  0.11926672  0.75787763  0.64394562  1
  N  N68  1  0.89555876  0.84765364  0.33381472  1
  N  N69  1  0.75936782  0.79581652  0.07712263  1
  N  N70  1  0.55185056  0.88000223  0.83239664  1
  N  N71  1  0.42386264  0.80347586  0.59483764  1
