# generated using pymatgen
data_Gd5Al31N36
_symmetry_space_group_name_H-M   'P 1'
_cell_length_a   9.75613536
_cell_length_b   9.74458767
_cell_length_c   10.40341327
_cell_angle_alpha   89.92194134
_cell_angle_beta   90.36808186
_cell_angle_gamma   60.27339448
_symmetry_Int_Tables_number   1
_chemical_formula_structural   Gd5Al31N36
_chemical_formula_sum   'Gd5 Al31 N36'
_cell_volume   858.86065725
_cell_formula_units_Z   1
loop_
 _symmetry_equiv_pos_site_id
 _symmetry_equiv_pos_as_xyz
  1  'x, y, z'
loop_
 _atom_site_type_symbol
 _atom_site_label
 _atom_site_symmetry_multiplicity
 _atom_site_fract_x
 _atom_site_fract_y
 _atom_site_fract_z
 _atom_site_occupancy
  Al  Al0  1  0.12687925  0.09094759  0.29474272  1
  Al  Al1  1  0.22514477  0.20390767  0.05311867  1
  Al  Al2  1  0.77726553  0.09640795  0.87637387  1
  Al  Al3  1  0.88627285  0.19876617  0.63323113  1
  Al  Al4  1  0.45094308  0.08841260  0.36878828  1
  Al  Al5  1  0.54812451  0.20532861  0.11469887  1
  Al  Al6  1  0.10851175  0.08795472  0.81512958  1
  Al  Al7  1  0.88554125  0.20956521  0.11702863  1
  Al  Al8  1  0.45353988  0.08046575  0.87633871  1
  Al  Al9  1  0.56998418  0.18188176  0.62949807  1
  Al  Al10  1  0.13050292  0.41654580  0.30381234  1
  Al  Al11  1  0.21419074  0.54934415  0.06395660  1
  Al  Al12  1  0.77285878  0.42590648  0.87196645  1
  Al  Al13  1  0.88573948  0.54150362  0.63065478  1
  Al  Al14  1  0.43753332  0.43778307  0.29303263  1
  Al  Al15  1  0.54602527  0.55195678  0.05168054  1
  Al  Al16  1  0.10160181  0.43802740  0.81394503  1
  Al  Al17  1  0.21792393  0.54030956  0.55516465  1
  Al  Al18  1  0.80368095  0.42316622  0.37026331  1
  Al  Al19  1  0.11395907  0.75646661  0.31014698  1
  Al  Al20  1  0.22107325  0.87208051  0.05683410  1
  Al  Al21  1  0.77501084  0.77090941  0.81879969  1
  Al  Al22  1  0.89783453  0.85777356  0.56387281  1
  Al  Al23  1  0.44403839  0.75620453  0.30182344  1
  Al  Al24  1  0.54960852  0.88489061  0.12414845  1
  Al  Al25  1  0.10198176  0.76783429  0.80724197  1
  Al  Al26  1  0.21377373  0.87495629  0.55600310  1
  Al  Al27  1  0.78432546  0.75601785  0.31917961  1
  Al  Al28  1  0.89174173  0.87579930  0.05511550  1
  Al  Al29  1  0.42968119  0.77586001  0.80565779  1
  Al  Al30  1  0.55746033  0.87881582  0.62671534  1
  Gd  Gd31  1  0.21918088  0.20670292  0.57730208  1
  Gd  Gd32  1  0.77398758  0.10211139  0.35918668  1
  Gd  Gd33  1  0.89381048  0.53969882  0.08657807  1
  Gd  Gd34  1  0.42876099  0.42546538  0.83394186  1
  Gd  Gd35  1  0.55222817  0.53741520  0.56772047  1
  N  N36  1  0.22591446  0.20020616  0.35697402  1
  N  N37  1  0.11964697  0.09073844  0.10470698  1
  N  N38  1  0.87630879  0.21205658  0.81946338  1
  N  N39  1  0.78321943  0.09089070  0.57879311  1
  N  N40  1  0.52303978  0.21757189  0.29413226  1
  N  N41  1  0.44731761  0.09125369  0.05742811  1
  N  N42  1  0.21540853  0.21075252  0.85803068  1
  N  N43  1  0.10209043  0.07103478  0.63266394  1
  N  N44  1  0.90582497  0.22127224  0.29886671  1
  N  N45  1  0.77378737  0.10232893  0.06975011  1
  N  N46  1  0.57466877  0.16444231  0.81426619  1
  N  N47  1  0.48502584  0.07197806  0.54976453  1
  N  N48  1  0.22856404  0.53844374  0.36527562  1
  N  N49  1  0.15487671  0.40450833  0.12255575  1
  N  N50  1  0.87769148  0.53989773  0.83155464  1
  N  N51  1  0.82097545  0.40388408  0.55995197  1
  N  N52  1  0.56329645  0.53305071  0.34639569  1
  N  N53  1  0.43772742  0.44103936  0.09544386  1
  N  N54  1  0.17400338  0.56572705  0.88559596  1
  N  N55  1  0.10017506  0.46018885  0.63204272  1
  N  N56  1  0.90045386  0.53658652  0.31848830  1
  N  N57  1  0.76301773  0.41262912  0.05279040  1
  N  N58  1  0.55222060  0.56399721  0.85630659  1
  N  N59  1  0.42852654  0.40434014  0.61347582  1
  N  N60  1  0.22255510  0.87215697  0.36460350  1
  N  N61  1  0.10660776  0.76739938  0.12336278  1
  N  N62  1  0.89216032  0.87356588  0.86723420  1
  N  N63  1  0.77978317  0.76175163  0.62237011  1
  N  N64  1  0.55684354  0.87246986  0.31298310  1
  N  N65  1  0.43886719  0.76399017  0.11359303  1
  N  N66  1  0.21723100  0.87112949  0.87250587  1
  N  N67  1  0.11809402  0.75548550  0.61925981  1
  N  N68  1  0.90913059  0.83822034  0.37890010  1
  N  N69  1  0.76421774  0.79573025  0.10306635  1
  N  N70  1  0.55076172  0.87667360  0.81728815  1
  N  N71  1  0.42152952  0.79309050  0.61931981  1
