# generated using pymatgen
data_Gd5Al31N36
_symmetry_space_group_name_H-M   'P 1'
_cell_length_a   9.72486199
_cell_length_b   9.76925476
_cell_length_c   10.27384357
_cell_angle_alpha   90.57147394
_cell_angle_beta   90.85276748
_cell_angle_gamma   59.95328205
_symmetry_Int_Tables_number   1
_chemical_formula_structural   Gd5Al31N36
_chemical_formula_sum   'Gd5 Al31 N36'
_cell_volume   844.79993658
_cell_formula_units_Z   1
loop_
 _symmetry_equiv_pos_site_id
 _symmetry_equiv_pos_as_xyz
  1  'x, y, z'
loop_
 _atom_site_type_symbol
 _atom_site_label
 _atom_site_symmetry_multiplicity
 _atom_site_fract_x
 _atom_site_fract_y
 _atom_site_fract_z
 _atom_site_occupancy
  Al  Al0  1  0.11123158  0.09332860  0.39234482  1
  Al  Al1  1  0.22689044  0.20036151  0.15400978  1
  Al  Al2  1  0.78544969  0.08416169  0.89999039  1
  Al  Al3  1  0.89443567  0.19684717  0.65715303  1
  Al  Al4  1  0.45127933  0.09064004  0.39240249  1
  Al  Al5  1  0.55411899  0.19869225  0.14179495  1
  Al  Al6  1  0.11285713  0.09504545  0.90477898  1
  Al  Al7  1  0.88781733  0.20685733  0.13950265  1
  Al  Al8  1  0.44678848  0.08276665  0.90676320  1
  Al  Al9  1  0.56574837  0.18465825  0.66174039  1
  Al  Al10  1  0.10700464  0.42991483  0.39911826  1
  Al  Al11  1  0.21426737  0.54787485  0.08683722  1
  Al  Al12  1  0.77696734  0.42943021  0.89150576  1
  Al  Al13  1  0.89297799  0.53925340  0.65079532  1
  Al  Al14  1  0.43326292  0.43263291  0.32199884  1
  Al  Al15  1  0.55378649  0.54551857  0.14710788  1
  Al  Al16  1  0.10810668  0.42191927  0.90605298  1
  Al  Al17  1  0.22072040  0.54324669  0.58156588  1
  Al  Al18  1  0.79433277  0.42314564  0.40037414  1
  Al  Al19  1  0.11566639  0.75605728  0.34787293  1
  Al  Al20  1  0.22285115  0.87703663  0.14321141  1
  Al  Al21  1  0.77202307  0.76962790  0.89106792  1
  Al  Al22  1  0.89392019  0.86702184  0.65651904  1
  Al  Al23  1  0.43843435  0.77731702  0.39124288  1
  Al  Al24  1  0.55317153  0.87811669  0.14627766  1
  Al  Al25  1  0.10724125  0.76891269  0.87754638  1
  Al  Al26  1  0.21410749  0.87609773  0.64438041  1
  Al  Al27  1  0.77944049  0.75718085  0.40677968  1
  Al  Al28  1  0.88221939  0.87699552  0.14213453  1
  Al  Al29  1  0.44736747  0.76679895  0.89496576  1
  Al  Al30  1  0.55966934  0.87309636  0.64542066  1
  Gd  Gd31  1  0.23068820  0.19980859  0.63756145  1
  Gd  Gd32  1  0.78204538  0.09554892  0.39948440  1
  Gd  Gd33  1  0.87979729  0.54595911  0.14171004  1
  Gd  Gd34  1  0.44962729  0.42325118  0.87681454  1
  Gd  Gd35  1  0.54936610  0.53973897  0.61391505  1
  N  N36  1  0.22533777  0.20263656  0.34928474  1
  N  N37  1  0.11174467  0.09519432  0.09090904  1
  N  N38  1  0.89178533  0.20391535  0.84541092  1
  N  N39  1  0.78136699  0.09090668  0.61790438  1
  N  N40  1  0.53332095  0.21322098  0.32467861  1
  N  N41  1  0.44103041  0.09185235  0.09312038  1
  N  N42  1  0.22368292  0.20364059  0.85820101  1
  N  N43  1  0.09106180  0.07968971  0.57575206  1
  N  N44  1  0.90357995  0.22278410  0.32193351  1
  N  N45  1  0.77781119  0.09533557  0.09349871  1
  N  N46  1  0.57404486  0.16243618  0.84878153  1
  N  N47  1  0.48543497  0.07333494  0.57341502  1
  N  N48  1  0.22663152  0.53949455  0.38256939  1
  N  N49  1  0.13367495  0.40920772  0.09632904  1
  N  N50  1  0.89026790  0.53834910  0.84669837  1
  N  N51  1  0.81291204  0.40479624  0.58703244  1
  N  N52  1  0.55862464  0.54247556  0.34652615  1
  N  N53  1  0.43699287  0.43619425  0.12696396  1
  N  N54  1  0.19175629  0.55650351  0.90007213  1
  N  N55  1  0.09556365  0.45120475  0.58393492  1
  N  N56  1  0.88699629  0.54277737  0.35758490  1
  N  N57  1  0.75599017  0.41560669  0.07513991  1
  N  N58  1  0.56861263  0.56079208  0.83264437  1
  N  N59  1  0.42522624  0.40365634  0.64515819  1
  N  N60  1  0.22233607  0.87583455  0.33015664  1
  N  N61  1  0.10697279  0.76935909  0.11290984  1
  N  N62  1  0.89043308  0.87046352  0.84338748  1
  N  N63  1  0.77922029  0.75836370  0.59674516  1
  N  N64  1  0.56131829  0.86987283  0.33347145  1
  N  N65  1  0.44510822  0.76363805  0.08810929  1
  N  N66  1  0.22310127  0.87694349  0.84112832  1
  N  N67  1  0.11277828  0.75959020  0.61365011  1
  N  N68  1  0.89574375  0.84451685  0.32877919  1
  N  N69  1  0.75719602  0.79581614  0.07365156  1
  N  N70  1  0.55084485  0.87480851  0.83394765  1
  N  N71  1  0.42221040  0.80305712  0.57586769  1
