# generated using pymatgen
data_Gd5Al31N36
_symmetry_space_group_name_H-M   'P 1'
_cell_length_a   9.75718582
_cell_length_b   9.77878194
_cell_length_c   10.19727566
_cell_angle_alpha   89.61634071
_cell_angle_beta   89.72071852
_cell_angle_gamma   60.05547511
_symmetry_Int_Tables_number   1
_chemical_formula_structural   Gd5Al31N36
_chemical_formula_sum   'Gd5 Al31 N36'
_cell_volume   843.05559428
_cell_formula_units_Z   1
loop_
 _symmetry_equiv_pos_site_id
 _symmetry_equiv_pos_as_xyz
  1  'x, y, z'
loop_
 _atom_site_type_symbol
 _atom_site_label
 _atom_site_symmetry_multiplicity
 _atom_site_fract_x
 _atom_site_fract_y
 _atom_site_fract_z
 _atom_site_occupancy
  Al  Al0  1  0.11349457  0.09564407  0.30439070  1
  Al  Al1  1  0.21941691  0.20739264  0.05710064  1
  Al  Al2  1  0.79452595  0.08308529  0.80948605  1
  Al  Al3  1  0.90072205  0.19944893  0.56568828  1
  Al  Al4  1  0.43827571  0.09089341  0.32750981  1
  Al  Al5  1  0.54971900  0.20541557  0.11076108  1
  Al  Al6  1  0.10885084  0.08718411  0.81589519  1
  Al  Al7  1  0.88398650  0.20296052  0.05557647  1
  Al  Al8  1  0.45003738  0.08542155  0.85926958  1
  Al  Al9  1  0.56354271  0.19043240  0.63261555  1
  Al  Al10  1  0.12127249  0.42164918  0.31003171  1
  Al  Al11  1  0.21019831  0.55089316  0.06444943  1
  Al  Al12  1  0.78947710  0.42648840  0.80736483  1
  Al  Al13  1  0.89156390  0.54282041  0.55662047  1
  Al  Al14  1  0.43107081  0.44005204  0.29277914  1
  Al  Al15  1  0.55748972  0.54590233  0.06214719  1
  Al  Al16  1  0.09793453  0.44485327  0.80367894  1
  Al  Al17  1  0.22082460  0.54181782  0.55555377  1
  Al  Al18  1  0.78130037  0.42449551  0.30737244  1
  Al  Al19  1  0.11228234  0.75762436  0.31197520  1
  Al  Al20  1  0.21982679  0.87333667  0.06149017  1
  Al  Al21  1  0.77483135  0.76296893  0.80255975  1
  Al  Al22  1  0.89887158  0.85713471  0.56613341  1
  Al  Al23  1  0.44120970  0.76349108  0.30316571  1
  Al  Al24  1  0.55479473  0.87441970  0.06023554  1
  Al  Al25  1  0.10707989  0.76422225  0.81066861  1
  Al  Al26  1  0.21817210  0.87178088  0.56229090  1
  Al  Al27  1  0.77797399  0.76087239  0.31398974  1
  Al  Al28  1  0.88332221  0.88244505  0.05557415  1
  Al  Al29  1  0.44488009  0.77138563  0.81252117  1
  Al  Al30  1  0.56069602  0.86886090  0.55665207  1
  Gd  Gd31  1  0.22276299  0.20381219  0.57789749  1
  Gd  Gd32  1  0.77653581  0.09337199  0.33366435  1
  Gd  Gd33  1  0.88839503  0.54498396  0.06738932  1
  Gd  Gd34  1  0.43899878  0.42922056  0.84258596  1
  Gd  Gd35  1  0.55681798  0.53602738  0.56259979  1
  N  N36  1  0.22230342  0.20072491  0.35175527  1
  N  N37  1  0.10753013  0.09615501  0.11266455  1
  N  N38  1  0.88888493  0.20622406  0.86758873  1
  N  N39  1  0.78896409  0.08771805  0.60724139  1
  N  N40  1  0.51887023  0.22242590  0.29923039  1
  N  N41  1  0.43995624  0.09515936  0.07392392  1
  N  N42  1  0.21583097  0.21168532  0.85636126  1
  N  N43  1  0.09958839  0.07088639  0.63362409  1
  N  N44  1  0.90828678  0.21920852  0.37866671  1
  N  N45  1  0.77680080  0.09603584  0.10252592  1
  N  N46  1  0.57740874  0.17091654  0.82531130  1
  N  N47  1  0.47580537  0.07502667  0.59055104  1
  N  N48  1  0.22356610  0.54065913  0.36429192  1
  N  N49  1  0.14126060  0.41298179  0.12604535  1
  N  N50  1  0.88557877  0.54418979  0.85044844  1
  N  N51  1  0.81232415  0.41045673  0.62172256  1
  N  N52  1  0.55223942  0.53859167  0.34149813  1
  N  N53  1  0.43637066  0.44157309  0.09412863  1
  N  N54  1  0.17994630  0.56143813  0.88201999  1
  N  N55  1  0.09602059  0.46306839  0.61820417  1
  N  N56  1  0.88931793  0.53781114  0.35786803  1
  N  N57  1  0.76714286  0.41047054  0.12287512  1
  N  N58  1  0.57554192  0.55555005  0.86834907  1
  N  N59  1  0.42973238  0.41003458  0.61554429  1
  N  N60  1  0.22065585  0.87281154  0.36705427  1
  N  N61  1  0.10409365  0.76860423  0.12225407  1
  N  N62  1  0.89029277  0.86985674  0.86361035  1
  N  N63  1  0.77573195  0.75837085  0.61447479  1
  N  N64  1  0.55555391  0.86635889  0.36382376  1
  N  N65  1  0.44211107  0.76693950  0.11570055  1
  N  N66  1  0.22393855  0.86763186  0.87410674  1
  N  N67  1  0.11956169  0.75506746  0.62086992  1
  N  N68  1  0.90706677  0.83684151  0.38188801  1
  N  N69  1  0.76057391  0.79824871  0.12915534  1
  N  N70  1  0.56253131  0.86480951  0.87112714  1
  N  N71  1  0.42969863  0.79037441  0.62477176  1
