# generated using pymatgen
data_Gd5Al31N36
_symmetry_space_group_name_H-M   'P 1'
_cell_length_a   9.70823059
_cell_length_b   9.71433779
_cell_length_c   10.23501225
_cell_angle_alpha   90.05040746
_cell_angle_beta   90.08585447
_cell_angle_gamma   59.97781178
_symmetry_Int_Tables_number   1
_chemical_formula_structural   Gd5Al31N36
_chemical_formula_sum   'Gd5 Al31 N36'
_cell_volume   835.74665145
_cell_formula_units_Z   1
loop_
 _symmetry_equiv_pos_site_id
 _symmetry_equiv_pos_as_xyz
  1  'x, y, z'
loop_
 _atom_site_type_symbol
 _atom_site_label
 _atom_site_symmetry_multiplicity
 _atom_site_fract_x
 _atom_site_fract_y
 _atom_site_fract_z
 _atom_site_occupancy
  Al  Al0  1  0.11092967  0.09253648  0.38999591  1
  Al  Al1  1  0.22933122  0.20199279  0.14962360  1
  Al  Al2  1  0.78151269  0.08754106  0.89921176  1
  Al  Al3  1  0.89267742  0.19775871  0.65781811  1
  Al  Al4  1  0.45010669  0.08901434  0.39335204  1
  Al  Al5  1  0.55236359  0.20586313  0.15085668  1
  Al  Al6  1  0.11295424  0.09299840  0.90468997  1
  Al  Al7  1  0.88894684  0.20583490  0.14047702  1
  Al  Al8  1  0.44629198  0.08716642  0.90563436  1
  Al  Al9  1  0.56165815  0.19247905  0.65378203  1
  Al  Al10  1  0.10758488  0.43464854  0.40162147  1
  Al  Al11  1  0.22539771  0.54038473  0.15645930  1
  Al  Al12  1  0.77682637  0.42832859  0.89715530  1
  Al  Al13  1  0.89262301  0.54040952  0.65251000  1
  Al  Al14  1  0.43423046  0.42343450  0.39542885  1
  Al  Al15  1  0.55398847  0.53909179  0.16015593  1
  Al  Al16  1  0.11287705  0.42694698  0.89891149  1
  Al  Al17  1  0.20945037  0.54592744  0.64463037  1
  Al  Al18  1  0.79362177  0.42362381  0.40292316  1
  Al  Al19  1  0.11350610  0.75592204  0.39699860  1
  Al  Al20  1  0.22175615  0.87115272  0.14585080  1
  Al  Al21  1  0.77185893  0.76957059  0.89282885  1
  Al  Al22  1  0.89103395  0.86995013  0.65606405  1
  Al  Al23  1  0.43703811  0.77558364  0.39307823  1
  Al  Al24  1  0.55395828  0.87745995  0.14716568  1
  Al  Al25  1  0.10588913  0.76418380  0.89741695  1
  Al  Al26  1  0.21219372  0.87591171  0.64527885  1
  Al  Al27  1  0.77924145  0.75689873  0.40522319  1
  Al  Al28  1  0.88961942  0.87139081  0.14282618  1
  Al  Al29  1  0.44529766  0.76716968  0.90068827  1
  Al  Al30  1  0.55856186  0.87568767  0.64785611  1
  Gd  Gd31  1  0.22617085  0.19724791  0.63548273  1
  Gd  Gd32  1  0.78502231  0.09232812  0.39685188  1
  Gd  Gd33  1  0.88821537  0.54143553  0.14015430  1
  Gd  Gd34  1  0.44087488  0.43053315  0.90115781  1
  Gd  Gd35  1  0.55326351  0.54561111  0.62501514  1
  N  N36  1  0.22431462  0.20436953  0.34799938  1
  N  N37  1  0.11389471  0.09315681  0.09176456  1
  N  N38  1  0.89164995  0.20385927  0.84663368  1
  N  N39  1  0.77970941  0.09302163  0.61605737  1
  N  N40  1  0.53337053  0.21396088  0.33271304  1
  N  N41  1  0.44504203  0.09341098  0.09341288  1
  N  N42  1  0.22375738  0.20315998  0.85675855  1
  N  N43  1  0.08833676  0.07845564  0.57468276  1
  N  N44  1  0.90383509  0.22351621  0.32275870  1
  N  N45  1  0.77853744  0.09368151  0.09531994  1
  N  N46  1  0.56709326  0.17639346  0.84086674  1
  N  N47  1  0.48163821  0.07562065  0.57563204  1
  N  N48  1  0.21848232  0.54064117  0.34250516  1
  N  N49  1  0.14532873  0.41394534  0.08501986  1
  N  N50  1  0.88953742  0.53877403  0.84934236  1
  N  N51  1  0.81449344  0.40611158  0.58982027  1
  N  N52  1  0.55751576  0.53991508  0.35840437  1
  N  N53  1  0.44435412  0.43187256  0.11942502  1
  N  N54  1  0.19102634  0.55596180  0.82910788  1
  N  N55  1  0.09641993  0.45329696  0.58457013  1
  N  N56  1  0.88780921  0.54212045  0.35751222  1
  N  N57  1  0.75807877  0.41639830  0.08124946  1
  N  N58  1  0.56634389  0.55766367  0.84132596  1
  N  N59  1  0.42696363  0.40783871  0.58983280  1
  N  N60  1  0.21879062  0.87100817  0.33303806  1
  N  N61  1  0.11330170  0.75876630  0.08696409  1
  N  N62  1  0.89079271  0.87125155  0.84244112  1
  N  N63  1  0.77808686  0.75994421  0.59707777  1
  N  N64  1  0.56086822  0.86912808  0.33486925  1
  N  N65  1  0.44524929  0.76171338  0.09384570  1
  N  N66  1  0.22131854  0.87261530  0.83951589  1
  N  N67  1  0.10944370  0.76225321  0.58669393  1
  N  N68  1  0.90309597  0.83983528  0.32931954  1
  N  N69  1  0.75996630  0.79338555  0.07604046  1
  N  N70  1  0.55095949  0.87535760  0.83721158  1
  N  N71  1  0.42043339  0.80642603  0.57831693  1
