# generated using pymatgen
data_Gd5Al31N36
_symmetry_space_group_name_H-M   'P 1'
_cell_length_a   9.77664342
_cell_length_b   9.74763341
_cell_length_c   10.35068396
_cell_angle_alpha   90.01625251
_cell_angle_beta   90.47959217
_cell_angle_gamma   59.99732253
_symmetry_Int_Tables_number   1
_chemical_formula_structural   Gd5Al31N36
_chemical_formula_sum   'Gd5 Al31 N36'
_cell_volume   854.19554505
_cell_formula_units_Z   1
loop_
 _symmetry_equiv_pos_site_id
 _symmetry_equiv_pos_as_xyz
  1  'x, y, z'
loop_
 _atom_site_type_symbol
 _atom_site_label
 _atom_site_symmetry_multiplicity
 _atom_site_fract_x
 _atom_site_fract_y
 _atom_site_fract_z
 _atom_site_occupancy
  Al  Al0  1  0.12092421  0.09392199  0.35298006  1
  Al  Al1  1  0.22480193  0.20663607  0.07796684  1
  Al  Al2  1  0.78483761  0.08343730  0.90428768  1
  Al  Al3  1  0.88622413  0.20199292  0.66523304  1
  Al  Al4  1  0.45279143  0.08731530  0.39828071  1
  Al  Al5  1  0.55136124  0.19944044  0.14230185  1
  Al  Al6  1  0.10565339  0.09376628  0.87738721  1
  Al  Al7  1  0.88803679  0.20496475  0.13631014  1
  Al  Al8  1  0.45637717  0.08023006  0.90171596  1
  Al  Al9  1  0.56538001  0.18825218  0.66267576  1
  Al  Al10  1  0.12705780  0.41619644  0.33543495  1
  Al  Al11  1  0.21251513  0.54844208  0.08925792  1
  Al  Al12  1  0.76754337  0.43316973  0.89464566  1
  Al  Al13  1  0.87973579  0.54551119  0.65605194  1
  Al  Al14  1  0.42955090  0.43024678  0.32503495  1
  Al  Al15  1  0.55634197  0.53753920  0.15069268  1
  Al  Al16  1  0.10142255  0.44376862  0.83943224  1
  Al  Al17  1  0.21372727  0.54062803  0.58612051  1
  Al  Al18  1  0.80666797  0.41907359  0.40033476  1
  Al  Al19  1  0.11765348  0.75383843  0.33103812  1
  Al  Al20  1  0.22725492  0.86591616  0.07817697  1
  Al  Al21  1  0.77061603  0.77356082  0.89638272  1
  Al  Al22  1  0.88642736  0.87256376  0.65581636  1
  Al  Al23  1  0.43958411  0.76779182  0.33303281  1
  Al  Al24  1  0.55517601  0.88068143  0.15042013  1
  Al  Al25  1  0.11244479  0.76145876  0.83261779  1
  Al  Al26  1  0.20965681  0.87649790  0.58123191  1
  Al  Al27  1  0.78473853  0.75219678  0.40476698  1
  Al  Al28  1  0.88429705  0.87617744  0.14941116  1
  Al  Al29  1  0.43629276  0.77474727  0.81826918  1
  Al  Al30  1  0.56543527  0.87620775  0.64545494  1
  Gd  Gd31  1  0.22787459  0.20065386  0.62144528  1
  Gd  Gd32  1  0.77676666  0.10052033  0.39769923  1
  Gd  Gd33  1  0.88552550  0.54053028  0.12745304  1
  Gd  Gd34  1  0.44509892  0.42856604  0.87569841  1
  Gd  Gd35  1  0.54536526  0.53972870  0.59917931  1
  N  N36  1  0.22762412  0.19989325  0.38828813  1
  N  N37  1  0.11016114  0.09578417  0.09307039  1
  N  N38  1  0.87924782  0.21010598  0.85151786  1
  N  N39  1  0.77945024  0.09499514  0.61390992  1
  N  N40  1  0.52867521  0.21143893  0.32329524  1
  N  N41  1  0.44668340  0.08895740  0.08546432  1
  N  N42  1  0.22036576  0.21336372  0.88034401  1
  N  N43  1  0.09476191  0.07781034  0.63879865  1
  N  N44  1  0.90721370  0.21978274  0.31982552  1
  N  N45  1  0.77778283  0.09352577  0.09640933  1
  N  N46  1  0.57634584  0.16708751  0.84811367  1
  N  N47  1  0.49074940  0.07366137  0.57702768  1
  N  N48  1  0.22326958  0.53931800  0.39470760  1
  N  N49  1  0.14854059  0.40755393  0.15046662  1
  N  N50  1  0.87642235  0.54600666  0.85712449  1
  N  N51  1  0.81351142  0.40631005  0.58512227  1
  N  N52  1  0.56309257  0.53084122  0.35024432  1
  N  N53  1  0.43600231  0.43608159  0.12769360  1
  N  N54  1  0.18302086  0.56274654  0.91009117  1
  N  N55  1  0.09411873  0.46146225  0.65698945  1
  N  N56  1  0.89734321  0.53833263  0.35101214  1
  N  N57  1  0.75342647  0.41547211  0.07729171  1
  N  N58  1  0.56762293  0.55724195  0.82568614  1
  N  N59  1  0.42204003  0.40628173  0.64587343  1
  N  N60  1  0.21965579  0.87147216  0.38883509  1
  N  N61  1  0.11591952  0.76341660  0.14434702  1
  N  N62  1  0.88896462  0.87185454  0.84197791  1
  N  N63  1  0.78041847  0.75769957  0.59290080  1
  N  N64  1  0.56452443  0.86986554  0.33900645  1
  N  N65  1  0.44088639  0.76415929  0.14363732  1
  N  N66  1  0.22756571  0.86349244  0.89216001  1
  N  N67  1  0.11812519  0.75574253  0.64174917  1
  N  N68  1  0.89547179  0.84847520  0.33601270  1
  N  N69  1  0.75934958  0.79680116  0.07919471  1
  N  N70  1  0.55729869  0.87623180  0.83400401  1
  N  N71  1  0.41952246  0.80376535  0.63052990  1
