# generated using pymatgen
data_Gd5Al31N36
_symmetry_space_group_name_H-M   'P 1'
_cell_length_a   9.74833332
_cell_length_b   9.74327155
_cell_length_c   10.40199908
_cell_angle_alpha   90.00643535
_cell_angle_beta   90.36848511
_cell_angle_gamma   60.25794959
_symmetry_Int_Tables_number   1
_chemical_formula_structural   Gd5Al31N36
_chemical_formula_sum   'Gd5 Al31 N36'
_cell_volume   857.81552096
_cell_formula_units_Z   1
loop_
 _symmetry_equiv_pos_site_id
 _symmetry_equiv_pos_as_xyz
  1  'x, y, z'
loop_
 _atom_site_type_symbol
 _atom_site_label
 _atom_site_symmetry_multiplicity
 _atom_site_fract_x
 _atom_site_fract_y
 _atom_site_fract_z
 _atom_site_occupancy
  Al  Al0  1  0.12737113  0.09055044  0.29450916  1
  Al  Al1  1  0.22470272  0.20400535  0.05299323  1
  Al  Al2  1  0.77748509  0.09694676  0.87482618  1
  Al  Al3  1  0.88622172  0.19896250  0.63349249  1
  Al  Al4  1  0.45194429  0.08792752  0.36820473  1
  Al  Al5  1  0.54727621  0.20579065  0.11437481  1
  Al  Al6  1  0.10854857  0.08790354  0.81510376  1
  Al  Al7  1  0.88588290  0.20896636  0.11670778  1
  Al  Al8  1  0.45320390  0.08084415  0.87572047  1
  Al  Al9  1  0.56952541  0.18190688  0.62951146  1
  Al  Al10  1  0.13211185  0.41611876  0.30482851  1
  Al  Al11  1  0.21353514  0.54923747  0.06346688  1
  Al  Al12  1  0.77364075  0.42737937  0.87187223  1
  Al  Al13  1  0.88369949  0.54400822  0.63220525  1
  Al  Al14  1  0.43785209  0.43797545  0.29304124  1
  Al  Al15  1  0.54595164  0.55197781  0.05108417  1
  Al  Al16  1  0.09991280  0.43989331  0.81417614  1
  Al  Al17  1  0.21799909  0.54003275  0.55523452  1
  Al  Al18  1  0.80428595  0.42158284  0.37209102  1
  Al  Al19  1  0.11409817  0.75674743  0.30958505  1
  Al  Al20  1  0.22166772  0.87194395  0.05645001  1
  Al  Al21  1  0.76797059  0.77264613  0.86518515  1
  Al  Al22  1  0.89946276  0.85983099  0.56474364  1
  Al  Al23  1  0.44555110  0.75616865  0.30103466  1
  Al  Al24  1  0.55435506  0.88214844  0.12269625  1
  Al  Al25  1  0.10264521  0.76776730  0.80619746  1
  Al  Al26  1  0.21442278  0.87479280  0.55561991  1
  Al  Al27  1  0.78193077  0.74900850  0.37529609  1
  Al  Al28  1  0.89314772  0.87630973  0.05247686  1
  Al  Al29  1  0.43021255  0.77617370  0.80441952  1
  Al  Al30  1  0.56066612  0.87671348  0.62614085  1
  Gd  Gd31  1  0.21888967  0.20696350  0.57754868  1
  Gd  Gd32  1  0.77413168  0.10196354  0.35874387  1
  Gd  Gd33  1  0.88960763  0.54083104  0.09953194  1
  Gd  Gd34  1  0.42854166  0.42619759  0.83353576  1
  Gd  Gd35  1  0.55247111  0.53747173  0.56787879  1
  N  N36  1  0.22655243  0.19976151  0.35666400  1
  N  N37  1  0.11961408  0.09042373  0.10456094  1
  N  N38  1  0.87634862  0.21310007  0.81974863  1
  N  N39  1  0.78294083  0.09092441  0.57929457  1
  N  N40  1  0.52268166  0.21805322  0.29383233  1
  N  N41  1  0.44707261  0.09065054  0.05768616  1
  N  N42  1  0.21496921  0.21129378  0.85809719  1
  N  N43  1  0.10212147  0.07072504  0.63261852  1
  N  N44  1  0.90617312  0.22148613  0.29845852  1
  N  N45  1  0.77372315  0.10124674  0.07069226  1
  N  N46  1  0.57405460  0.16540506  0.81470651  1
  N  N47  1  0.48485506  0.07176509  0.54951530  1
  N  N48  1  0.22884032  0.53859214  0.36514184  1
  N  N49  1  0.15304215  0.40540706  0.12249608  1
  N  N50  1  0.87463252  0.54471180  0.82785978  1
  N  N51  1  0.82138227  0.40284874  0.56066161  1
  N  N52  1  0.56401876  0.53317629  0.34637618  1
  N  N53  1  0.43754847  0.44118808  0.09535621  1
  N  N54  1  0.17398057  0.56622233  0.88549550  1
  N  N55  1  0.09955774  0.46082041  0.63224346  1
  N  N56  1  0.89966881  0.53824798  0.32167626  1
  N  N57  1  0.76383817  0.41216653  0.05232738  1
  N  N58  1  0.55233787  0.56473454  0.85664358  1
  N  N59  1  0.42869802  0.40429052  0.61323816  1
  N  N60  1  0.22391997  0.87202041  0.36403364  1
  N  N61  1  0.10596483  0.76723619  0.12284126  1
  N  N62  1  0.89402944  0.87606008  0.86212084  1
  N  N63  1  0.77496009  0.75522727  0.57968988  1
  N  N64  1  0.56452553  0.86978726  0.31003931  1
  N  N65  1  0.43950782  0.76392005  0.11365591  1
  N  N66  1  0.21829363  0.87110555  0.87232769  1
  N  N67  1  0.11894238  0.75497211  0.61884250  1
  N  N68  1  0.91121403  0.84026257  0.37726783  1
  N  N69  1  0.75671599  0.79413892  0.05481200  1
  N  N70  1  0.55303697  0.87695970  0.81253747  1
  N  N71  1  0.42159823  0.79304579  0.61880915  1
