# generated using pymatgen
data_Gd5Al31N36
_symmetry_space_group_name_H-M   'P 1'
_cell_length_a   9.75431178
_cell_length_b   9.72696093
_cell_length_c   10.42813596
_cell_angle_alpha   89.89045376
_cell_angle_beta   90.39432676
_cell_angle_gamma   59.82982046
_symmetry_Int_Tables_number   1
_chemical_formula_structural   Gd5Al31N36
_chemical_formula_sum   'Gd5 Al31 N36'
_cell_volume   855.35254269
_cell_formula_units_Z   1
loop_
 _symmetry_equiv_pos_site_id
 _symmetry_equiv_pos_as_xyz
  1  'x, y, z'
loop_
 _atom_site_type_symbol
 _atom_site_label
 _atom_site_symmetry_multiplicity
 _atom_site_fract_x
 _atom_site_fract_y
 _atom_site_fract_z
 _atom_site_occupancy
  Al  Al0  1  0.10907430  0.09805870  0.40808877  1
  Al  Al1  1  0.22722261  0.20549861  0.10169919  1
  Al  Al2  1  0.78687455  0.08325589  0.91745425  1
  Al  Al3  1  0.88599091  0.20196523  0.67299749  1
  Al  Al4  1  0.45142954  0.08890148  0.41476361  1
  Al  Al5  1  0.55482557  0.19856330  0.15888946  1
  Al  Al6  1  0.10316272  0.09864832  0.91852943  1
  Al  Al7  1  0.88912433  0.20404887  0.15568963  1
  Al  Al8  1  0.45693132  0.08184108  0.91932923  1
  Al  Al9  1  0.56322357  0.19121553  0.67972186  1
  Al  Al10  1  0.12769652  0.41385344  0.35379334  1
  Al  Al11  1  0.21338323  0.54643935  0.10426359  1
  Al  Al12  1  0.77030192  0.43331455  0.90644384  1
  Al  Al13  1  0.88104513  0.54426229  0.67047267  1
  Al  Al14  1  0.43123693  0.42925729  0.34067774  1
  Al  Al15  1  0.55816495  0.53555792  0.16481597  1
  Al  Al16  1  0.10395584  0.44124964  0.85386830  1
  Al  Al17  1  0.21520345  0.53749683  0.60170589  1
  Al  Al18  1  0.80240449  0.42144526  0.41513967  1
  Al  Al19  1  0.12007473  0.75072570  0.34470254  1
  Al  Al20  1  0.22795149  0.86418796  0.09603406  1
  Al  Al21  1  0.77226305  0.77192385  0.91335010  1
  Al  Al22  1  0.88477972  0.87204985  0.67343554  1
  Al  Al23  1  0.43923181  0.76778300  0.34385408  1
  Al  Al24  1  0.55742910  0.88026536  0.16662927  1
  Al  Al25  1  0.11266228  0.76107954  0.84929575  1
  Al  Al26  1  0.20712821  0.87108231  0.58903292  1
  Al  Al27  1  0.78437946  0.75292838  0.42009119  1
  Al  Al28  1  0.88528554  0.87560493  0.16503257  1
  Al  Al29  1  0.43378780  0.77979380  0.83606238  1
  Al  Al30  1  0.56478209  0.87917815  0.66363986  1
  Gd  Gd31  1  0.22845255  0.18883807  0.64251950  1
  Gd  Gd32  1  0.78048089  0.09895848  0.41751234  1
  Gd  Gd33  1  0.88531065  0.53784700  0.14624642  1
  Gd  Gd34  1  0.44771727  0.43114535  0.89182120  1
  Gd  Gd35  1  0.53999406  0.54991365  0.61493625  1
  N  N36  1  0.22817411  0.19942330  0.40618963  1
  N  N37  1  0.10838333  0.09749751  0.10316680  1
  N  N38  1  0.88872845  0.20646753  0.85799532  1
  N  N39  1  0.77698634  0.09397129  0.63294701  1
  N  N40  1  0.53278993  0.20922132  0.33901296  1
  N  N41  1  0.44882111  0.08908792  0.10186558  1
  N  N42  1  0.22135422  0.21081505  0.89577068  1
  N  N43  1  0.07432504  0.08628069  0.58894992  1
  N  N44  1  0.90578525  0.22197184  0.33398270  1
  N  N45  1  0.78050569  0.09256974  0.10886622  1
  N  N46  1  0.57609352  0.16965218  0.86431709  1
  N  N47  1  0.48789333  0.07728480  0.59354647  1
  N  N48  1  0.22457166  0.53694619  0.41151939  1
  N  N49  1  0.14858194  0.40779408  0.16862175  1
  N  N50  1  0.87865549  0.54574621  0.87019611  1
  N  N51  1  0.80760920  0.41111135  0.59997702  1
  N  N52  1  0.56439339  0.53076181  0.36343949  1
  N  N53  1  0.43702760  0.43509267  0.14355484  1
  N  N54  1  0.18472126  0.56065283  0.92575868  1
  N  N55  1  0.09836714  0.45362957  0.67157951  1
  N  N56  1  0.89657678  0.53868971  0.36742052  1
  N  N57  1  0.75424072  0.41258289  0.08741783  1
  N  N58  1  0.56876018  0.56099149  0.83828991  1
  N  N59  1  0.42434913  0.41046567  0.66297700  1
  N  N60  1  0.22584227  0.86149073  0.40107366  1
  N  N61  1  0.11709958  0.76132814  0.15916628  1
  N  N62  1  0.88912824  0.87083855  0.85791047  1
  N  N63  1  0.77961786  0.75793932  0.60817456  1
  N  N64  1  0.56427162  0.87007985  0.35416890  1
  N  N65  1  0.44341999  0.76337845  0.15656887  1
  N  N66  1  0.22448020  0.86684323  0.90873407  1
  N  N67  1  0.11741127  0.75487800  0.65978542  1
  N  N68  1  0.89629650  0.84818537  0.35041216  1
  N  N69  1  0.76193882  0.79415513  0.09504292  1
  N  N70  1  0.55857524  0.87781463  0.85093537  1
  N  N71  1  0.40726471  0.81953808  0.65267518  1
