# generated using pymatgen
data_Gd5Al31N36
_symmetry_space_group_name_H-M   'P 1'
_cell_length_a   9.70657749
_cell_length_b   9.71793289
_cell_length_c   10.23433400
_cell_angle_alpha   89.87801079
_cell_angle_beta   90.04258527
_cell_angle_gamma   60.03907545
_symmetry_Int_Tables_number   1
_chemical_formula_structural   Gd5Al31N36
_chemical_formula_sum   'Gd5 Al31 N36'
_cell_volume   836.37141213
_cell_formula_units_Z   1
loop_
 _symmetry_equiv_pos_site_id
 _symmetry_equiv_pos_as_xyz
  1  'x, y, z'
loop_
 _atom_site_type_symbol
 _atom_site_label
 _atom_site_symmetry_multiplicity
 _atom_site_fract_x
 _atom_site_fract_y
 _atom_site_fract_z
 _atom_site_occupancy
  Al  Al0  1  0.11489216  0.09524602  0.29655041  1
  Al  Al1  1  0.22761734  0.20300035  0.05059393  1
  Al  Al2  1  0.78050147  0.08953039  0.79988985  1
  Al  Al3  1  0.89476735  0.20082058  0.55849900  1
  Al  Al4  1  0.43957916  0.09395051  0.29593557  1
  Al  Al5  1  0.56108559  0.19523671  0.05041528  1
  Al  Al6  1  0.10804570  0.08833285  0.80897556  1
  Al  Al7  1  0.88767497  0.20199216  0.04526690  1
  Al  Al8  1  0.45586913  0.08270426  0.80634430  1
  Al  Al9  1  0.55309755  0.20190509  0.55085279  1
  Al  Al10  1  0.11892672  0.42232409  0.30149592  1
  Al  Al11  1  0.21681882  0.54392604  0.05854223  1
  Al  Al12  1  0.78690077  0.42702111  0.80012190  1
  Al  Al13  1  0.89060287  0.54338921  0.55077943  1
  Al  Al14  1  0.43763504  0.42830317  0.29282861  1
  Al  Al15  1  0.55680564  0.54026684  0.05860162  1
  Al  Al16  1  0.10024958  0.44058925  0.79877129  1
  Al  Al17  1  0.21623645  0.54446260  0.54595082  1
  Al  Al18  1  0.78193845  0.42342023  0.30121476  1
  Al  Al19  1  0.11427237  0.75571553  0.30445142  1
  Al  Al20  1  0.22117195  0.87177759  0.05443844  1
  Al  Al21  1  0.77452283  0.76264794  0.79641559  1
  Al  Al22  1  0.89473725  0.86273263  0.55962069  1
  Al  Al23  1  0.44195983  0.76497328  0.29662907  1
  Al  Al24  1  0.55343221  0.87943669  0.05435906  1
  Al  Al25  1  0.10569215  0.76487903  0.80392999  1
  Al  Al26  1  0.21549191  0.87402261  0.55632931  1
  Al  Al27  1  0.77665920  0.76271732  0.30952444  1
  Al  Al28  1  0.88746228  0.87767374  0.04534257  1
  Al  Al29  1  0.44311844  0.77275209  0.80997650  1
  Al  Al30  1  0.55758387  0.87609881  0.55409992  1
  Gd  Gd31  1  0.22209361  0.20167159  0.56360914  1
  Gd  Gd32  1  0.78301644  0.08942686  0.30962109  1
  Gd  Gd33  1  0.88638345  0.54483383  0.05988734  1
  Gd  Gd34  1  0.43748208  0.42892168  0.81968422  1
  Gd  Gd35  1  0.55412917  0.54504667  0.55270402  1
  N  N36  1  0.22433021  0.20095985  0.34342255  1
  N  N37  1  0.11011191  0.09456430  0.10535657  1
  N  N38  1  0.88642664  0.20703935  0.85862923  1
  N  N39  1  0.77674645  0.09450515  0.60247042  1
  N  N40  1  0.52601543  0.21741970  0.36214177  1
  N  N41  1  0.44394535  0.09408929  0.10809061  1
  N  N42  1  0.22246457  0.20702412  0.85260831  1
  N  N43  1  0.09564499  0.07479729  0.62697390  1
  N  N44  1  0.90939971  0.21702801  0.37304400  1
  N  N45  1  0.78196307  0.09266115  0.09135241  1
  N  N46  1  0.57257143  0.17448531  0.86761843  1
  N  N47  1  0.47652653  0.07805130  0.62283022  1
  N  N48  1  0.22344856  0.53881904  0.35623485  1
  N  N49  1  0.13978937  0.41201383  0.11814207  1
  N  N50  1  0.88588358  0.54338452  0.84334912  1
  N  N51  1  0.80824306  0.41316904  0.61477460  1
  N  N52  1  0.55312269  0.53860090  0.33409731  1
  N  N53  1  0.44336587  0.42658686  0.09668084  1
  N  N54  1  0.18294725  0.55994095  0.87622231  1
  N  N55  1  0.09736548  0.45916129  0.61291239  1
  N  N56  1  0.88879275  0.53833517  0.35265421  1
  N  N57  1  0.76898587  0.40707281  0.11769531  1
  N  N58  1  0.57296178  0.55498080  0.86501672  1
  N  N59  1  0.42843839  0.41496376  0.60142026  1
  N  N60  1  0.22160545  0.87232585  0.36145587  1
  N  N61  1  0.10733607  0.76513727  0.11509990  1
  N  N62  1  0.88770748  0.87154894  0.85408537  1
  N  N63  1  0.77429383  0.76021893  0.60849318  1
  N  N64  1  0.55294295  0.87279873  0.36335593  1
  N  N65  1  0.44389322  0.76564293  0.10951893  1
  N  N66  1  0.22197283  0.86837473  0.86790145  1
  N  N67  1  0.11703995  0.75679036  0.61466555  1
  N  N68  1  0.90836712  0.83805772  0.37674639  1
  N  N69  1  0.76198661  0.79866207  0.12437428  1
  N  N70  1  0.55990932  0.87021694  0.86750047  1
  N  N71  1  0.42611882  0.79766029  0.62225862  1
