# generated using pymatgen
data_Gd5Al31N36
_symmetry_space_group_name_H-M   'P 1'
_cell_length_a   9.75247321
_cell_length_b   9.75361801
_cell_length_c   10.24828489
_cell_angle_alpha   89.61667353
_cell_angle_beta   89.95232202
_cell_angle_gamma   60.12070488
_symmetry_Int_Tables_number   1
_chemical_formula_structural   Gd5Al31N36
_chemical_formula_sum   'Gd5 Al31 N36'
_cell_volume   845.23554791
_cell_formula_units_Z   1
loop_
 _symmetry_equiv_pos_site_id
 _symmetry_equiv_pos_as_xyz
  1  'x, y, z'
loop_
 _atom_site_type_symbol
 _atom_site_label
 _atom_site_symmetry_multiplicity
 _atom_site_fract_x
 _atom_site_fract_y
 _atom_site_fract_z
 _atom_site_occupancy
  Al  Al0  1  0.11486524  0.09861105  0.30737543  1
  Al  Al1  1  0.21827587  0.20885502  0.05730339  1
  Al  Al2  1  0.79411322  0.08175228  0.80589563  1
  Al  Al3  1  0.90117558  0.20139617  0.56338312  1
  Al  Al4  1  0.44418081  0.09504107  0.36503297  1
  Al  Al5  1  0.54656030  0.20707518  0.11623893  1
  Al  Al6  1  0.10687919  0.08803225  0.81598673  1
  Al  Al7  1  0.88192051  0.20497687  0.05546783  1
  Al  Al8  1  0.45719528  0.07847067  0.87833838  1
  Al  Al9  1  0.56700377  0.18694981  0.62647567  1
  Al  Al10  1  0.12211971  0.41909642  0.31239574  1
  Al  Al11  1  0.20958023  0.55104678  0.06429559  1
  Al  Al12  1  0.78709407  0.42695166  0.80628046  1
  Al  Al13  1  0.89187117  0.54069310  0.55532888  1
  Al  Al14  1  0.42985433  0.44078945  0.29309408  1
  Al  Al15  1  0.55494915  0.54693210  0.05898313  1
  Al  Al16  1  0.09612711  0.44556529  0.80445228  1
  Al  Al17  1  0.21928631  0.54166462  0.55487792  1
  Al  Al18  1  0.77879804  0.42627046  0.30723841  1
  Al  Al19  1  0.11157166  0.75807773  0.31100687  1
  Al  Al20  1  0.21811951  0.87505272  0.06084535  1
  Al  Al21  1  0.77464383  0.76294527  0.80323678  1
  Al  Al22  1  0.90092763  0.85738356  0.56514496  1
  Al  Al23  1  0.43735232  0.76237150  0.30396353  1
  Al  Al24  1  0.55105415  0.87986129  0.09656004  1
  Al  Al25  1  0.10801792  0.76362311  0.81062318  1
  Al  Al26  1  0.21602727  0.87437562  0.56073118  1
  Al  Al27  1  0.78123251  0.75901334  0.31450197  1
  Al  Al28  1  0.88340377  0.88392588  0.05375992  1
  Al  Al29  1  0.44394844  0.77225150  0.81297693  1
  Al  Al30  1  0.56595496  0.86515525  0.56311330  1
  Gd  Gd31  1  0.23270405  0.20037310  0.59153707  1
  Gd  Gd32  1  0.77713244  0.09303064  0.33159496  1
  Gd  Gd33  1  0.88728831  0.54572969  0.06656385  1
  Gd  Gd34  1  0.43943710  0.42133518  0.84224626  1
  Gd  Gd35  1  0.55249040  0.53691220  0.56401459  1
  N  N36  1  0.22208581  0.20236009  0.36253454  1
  N  N37  1  0.10727199  0.09818870  0.11422011  1
  N  N38  1  0.88697247  0.20648939  0.86753511  1
  N  N39  1  0.79238630  0.08721707  0.60618131  1
  N  N40  1  0.51801560  0.22334138  0.29862343  1
  N  N41  1  0.44087558  0.09789324  0.06471045  1
  N  N42  1  0.21685286  0.21092131  0.85517316  1
  N  N43  1  0.09987598  0.07387341  0.63298380  1
  N  N44  1  0.90697242  0.22036990  0.37745661  1
  N  N45  1  0.77392732  0.09812145  0.10125106  1
  N  N46  1  0.57648600  0.16213760  0.81289646  1
  N  N47  1  0.49001185  0.07544087  0.54667945  1
  N  N48  1  0.22278323  0.54128505  0.36464533  1
  N  N49  1  0.14062159  0.41279608  0.12788038  1
  N  N50  1  0.88478238  0.54318668  0.85052134  1
  N  N51  1  0.80841927  0.41238233  0.62111760  1
  N  N52  1  0.55083344  0.53835607  0.34396876  1
  N  N53  1  0.43517725  0.44185686  0.09376200  1
  N  N54  1  0.18048610  0.56040282  0.88210940  1
  N  N55  1  0.09567183  0.46123669  0.61872301  1
  N  N56  1  0.88930729  0.53720592  0.35877957  1
  N  N57  1  0.76391454  0.41323287  0.12274236  1
  N  N58  1  0.57190443  0.55337557  0.86551704  1
  N  N59  1  0.42765288  0.40708904  0.61525662  1
  N  N60  1  0.21833581  0.87400096  0.36754323  1
  N  N61  1  0.10354405  0.76953101  0.12172154  1
  N  N62  1  0.89162434  0.86934584  0.86321560  1
  N  N63  1  0.77963593  0.75687304  0.61437643  1
  N  N64  1  0.55503602  0.86576510  0.34494722  1
  N  N65  1  0.43830650  0.76609398  0.11647899  1
  N  N66  1  0.22258336  0.86899226  0.87391053  1
  N  N67  1  0.12107802  0.75459365  0.62141596  1
  N  N68  1  0.90825291  0.83676488  0.38262478  1
  N  N69  1  0.76636096  0.79707012  0.13056414  1
  N  N70  1  0.56322748  0.86341093  0.86115117  1
  N  N71  1  0.42784189  0.79488915  0.62295972  1
