# generated using pymatgen
data_Gd5Al31N36
_symmetry_space_group_name_H-M   'P 1'
_cell_length_a   9.74936833
_cell_length_b   9.75138724
_cell_length_c   10.40257979
_cell_angle_alpha   90.33217716
_cell_angle_beta   90.56252883
_cell_angle_gamma   60.12953039
_symmetry_Int_Tables_number   1
_chemical_formula_structural   Gd5Al31N36
_chemical_formula_sum   'Gd5 Al31 N36'
_cell_volume   857.54866768
_cell_formula_units_Z   1
loop_
 _symmetry_equiv_pos_site_id
 _symmetry_equiv_pos_as_xyz
  1  'x, y, z'
loop_
 _atom_site_type_symbol
 _atom_site_label
 _atom_site_symmetry_multiplicity
 _atom_site_fract_x
 _atom_site_fract_y
 _atom_site_fract_z
 _atom_site_occupancy
  Al  Al0  1  0.12664476  0.09145870  0.31771386  1
  Al  Al1  1  0.22366084  0.20433803  0.07674480  1
  Al  Al2  1  0.77868337  0.09614351  0.89954160  1
  Al  Al3  1  0.88473818  0.20007472  0.66198508  1
  Al  Al4  1  0.45253606  0.08686325  0.39592512  1
  Al  Al5  1  0.54783345  0.20210060  0.14118077  1
  Al  Al6  1  0.10970139  0.08732472  0.84164109  1
  Al  Al7  1  0.88581332  0.20855411  0.13841670  1
  Al  Al8  1  0.45339939  0.08151998  0.89991483  1
  Al  Al9  1  0.56757258  0.18495508  0.65726709  1
  Al  Al10  1  0.13068161  0.41542991  0.33214965  1
  Al  Al11  1  0.21159038  0.54889726  0.08891900  1
  Al  Al12  1  0.76773971  0.43376690  0.89481467  1
  Al  Al13  1  0.88116221  0.54430075  0.65879307  1
  Al  Al14  1  0.43181673  0.43228698  0.32426069  1
  Al  Al15  1  0.55567020  0.53894437  0.14323586  1
  Al  Al16  1  0.10107008  0.44149153  0.84010299  1
  Al  Al17  1  0.21703060  0.53966964  0.58428869  1
  Al  Al18  1  0.80862779  0.41821806  0.40014554  1
  Al  Al19  1  0.11308711  0.75696507  0.33490778  1
  Al  Al20  1  0.22570152  0.86850214  0.08018416  1
  Al  Al21  1  0.76709173  0.77254905  0.89550422  1
  Al  Al22  1  0.89972412  0.86069966  0.59052675  1
  Al  Al23  1  0.44043613  0.76572641  0.33239640  1
  Al  Al24  1  0.55446163  0.88203393  0.15030023  1
  Al  Al25  1  0.10487787  0.76641148  0.83163040  1
  Al  Al26  1  0.21111398  0.87801959  0.57994751  1
  Al  Al27  1  0.78245184  0.74770306  0.40895163  1
  Al  Al28  1  0.89402275  0.87634492  0.07782842  1
  Al  Al29  1  0.43422154  0.77447486  0.82148566  1
  Al  Al30  1  0.56158783  0.87772193  0.64822641  1
  Gd  Gd31  1  0.21882520  0.20667380  0.60485766  1
  Gd  Gd32  1  0.77583234  0.10217275  0.38562341  1
  Gd  Gd33  1  0.88516179  0.54286326  0.13070522  1
  Gd  Gd34  1  0.43932158  0.42880694  0.86933475  1
  Gd  Gd35  1  0.55044091  0.53881428  0.60036013  1
  N  N36  1  0.22667880  0.19892047  0.38251620  1
  N  N37  1  0.12016229  0.08918180  0.12760117  1
  N  N38  1  0.87772012  0.21351149  0.84883840  1
  N  N39  1  0.78235452  0.09123148  0.60663452  1
  N  N40  1  0.52414377  0.21395767  0.32094177  1
  N  N41  1  0.44663281  0.08921456  0.08295940  1
  N  N42  1  0.21535376  0.21154621  0.88317079  1
  N  N43  1  0.10027151  0.07238440  0.65923693  1
  N  N44  1  0.90576210  0.22253506  0.32023463  1
  N  N45  1  0.77313697  0.10098296  0.09642830  1
  N  N46  1  0.57399124  0.16706498  0.84166918  1
  N  N47  1  0.48518488  0.07376842  0.57584541  1
  N  N48  1  0.22604129  0.53884175  0.39322208  1
  N  N49  1  0.14891071  0.40673257  0.14821913  1
  N  N50  1  0.87539729  0.54686485  0.85464415  1
  N  N51  1  0.82071248  0.40127711  0.58459748  1
  N  N52  1  0.56498592  0.53145755  0.35172426  1
  N  N53  1  0.43516918  0.43784302  0.12569000  1
  N  N54  1  0.17923757  0.56511484  0.91025054  1
  N  N55  1  0.09687439  0.46169561  0.65805599  1
  N  N56  1  0.89977627  0.53780097  0.35098146  1
  N  N57  1  0.75643609  0.41607477  0.07616727  1
  N  N58  1  0.56453064  0.55775768  0.83149071  1
  N  N59  1  0.42635408  0.40517438  0.64108465  1
  N  N60  1  0.21994004  0.87477798  0.38902922  1
  N  N61  1  0.10683739  0.76652276  0.14822436  1
  N  N62  1  0.89528976  0.87488659  0.88789123  1
  N  N63  1  0.77408210  0.75275914  0.59687102  1
  N  N64  1  0.56617061  0.86942605  0.33768480  1
  N  N65  1  0.44031225  0.76372586  0.14343430  1
  N  N66  1  0.22387569  0.86766184  0.89600544  1
  N  N67  1  0.11857400  0.75594217  0.64439145  1
  N  N68  1  0.91070350  0.84113402  0.40276547  1
  N  N69  1  0.75621508  0.79493668  0.08012182  1
  N  N70  1  0.55503251  0.87721286  0.83462097  1
  N  N71  1  0.41896342  0.80068530  0.63425740  1
