# generated using pymatgen
data_Gd5Al31N36
_symmetry_space_group_name_H-M   'P 1'
_cell_length_a   9.74186130
_cell_length_b   9.74261863
_cell_length_c   10.42006958
_cell_angle_alpha   90.22691112
_cell_angle_beta   90.45211920
_cell_angle_gamma   60.17824233
_symmetry_Int_Tables_number   1
_chemical_formula_structural   Gd5Al31N36
_chemical_formula_sum   'Gd5 Al31 N36'
_cell_volume   857.99075045
_cell_formula_units_Z   1
loop_
 _symmetry_equiv_pos_site_id
 _symmetry_equiv_pos_as_xyz
  1  'x, y, z'
loop_
 _atom_site_type_symbol
 _atom_site_label
 _atom_site_symmetry_multiplicity
 _atom_site_fract_x
 _atom_site_fract_y
 _atom_site_fract_z
 _atom_site_occupancy
  Al  Al0  1  0.12755385  0.09068937  0.31885933  1
  Al  Al1  1  0.22324284  0.20493266  0.07728026  1
  Al  Al2  1  0.77832581  0.09663438  0.90000721  1
  Al  Al3  1  0.88591408  0.19891296  0.66139496  1
  Al  Al4  1  0.45284896  0.08690692  0.39482868  1
  Al  Al5  1  0.54760248  0.20365429  0.14075998  1
  Al  Al6  1  0.10951699  0.08772138  0.84111138  1
  Al  Al7  1  0.88617644  0.20843087  0.14068763  1
  Al  Al8  1  0.45353424  0.08093067  0.90042595  1
  Al  Al9  1  0.56892687  0.18283803  0.65641158  1
  Al  Al10  1  0.13244934  0.41523844  0.33246387  1
  Al  Al11  1  0.21100707  0.54932702  0.08899570  1
  Al  Al12  1  0.77229897  0.43072350  0.89591087  1
  Al  Al13  1  0.88233407  0.54445376  0.65767082  1
  Al  Al14  1  0.43689432  0.43606777  0.32195696  1
  Al  Al15  1  0.54817292  0.54706138  0.09591666  1
  Al  Al16  1  0.09891101  0.44207287  0.83990423  1
  Al  Al17  1  0.21762061  0.53988817  0.58232653  1
  Al  Al18  1  0.80521039  0.41968338  0.40095347  1
  Al  Al19  1  0.11393895  0.75686419  0.33507683  1
  Al  Al20  1  0.22341462  0.87050701  0.08093221  1
  Al  Al21  1  0.76708005  0.77227916  0.89578344  1
  Al  Al22  1  0.90028388  0.86037134  0.59000106  1
  Al  Al23  1  0.44533263  0.75777004  0.32988886  1
  Al  Al24  1  0.55448627  0.88270608  0.15024309  1
  Al  Al25  1  0.10365059  0.76742223  0.83182269  1
  Al  Al26  1  0.21329315  0.87624572  0.58023420  1
  Al  Al27  1  0.78226777  0.74780290  0.40922885  1
  Al  Al28  1  0.89376225  0.87641201  0.07761956  1
  Al  Al29  1  0.43231690  0.77587308  0.82586940  1
  Al  Al30  1  0.56157298  0.87695125  0.64938072  1
  Gd  Gd31  1  0.21888241  0.20708921  0.60393415  1
  Gd  Gd32  1  0.77504646  0.10231715  0.38534508  1
  Gd  Gd33  1  0.88435748  0.54353289  0.13487684  1
  Gd  Gd34  1  0.43157462  0.42647424  0.86285267  1
  Gd  Gd35  1  0.55159351  0.53760392  0.59800197  1
  N  N36  1  0.22725302  0.19885862  0.38265446  1
  N  N37  1  0.12016202  0.08958580  0.12902738  1
  N  N38  1  0.87766095  0.21313572  0.84733763  1
  N  N39  1  0.78300426  0.09071276  0.60609035  1
  N  N40  1  0.52339197  0.21626650  0.31987674  1
  N  N41  1  0.44645840  0.08998882  0.08286897  1
  N  N42  1  0.21489945  0.21222048  0.88353753  1
  N  N43  1  0.10183728  0.07127969  0.65890218  1
  N  N44  1  0.90608863  0.22230058  0.32206309  1
  N  N45  1  0.77332730  0.10124846  0.09625821  1
  N  N46  1  0.57459368  0.16552660  0.84083779  1
  N  N47  1  0.48539234  0.07256417  0.57514567  1
  N  N48  1  0.22828703  0.53856480  0.39199356  1
  N  N49  1  0.14854895  0.40711821  0.14870489  1
  N  N50  1  0.87368971  0.54759001  0.85188025  1
  N  N51  1  0.82099166  0.40133334  0.58723316  1
  N  N52  1  0.56490798  0.53197869  0.36894140  1
  N  N53  1  0.43578584  0.43932855  0.12283135  1
  N  N54  1  0.17517306  0.56653012  0.91119543  1
  N  N55  1  0.09817821  0.46171820  0.65793337  1
  N  N56  1  0.90070148  0.53701700  0.35341997  1
  N  N57  1  0.76257864  0.41320469  0.07635942  1
  N  N58  1  0.55661725  0.56178163  0.86313091  1
  N  N59  1  0.42746511  0.40432969  0.64038463  1
  N  N60  1  0.22280405  0.87302950  0.38919696  1
  N  N61  1  0.10634891  0.76705028  0.14844582  1
  N  N62  1  0.89452538  0.87550916  0.88794602  1
  N  N63  1  0.77379402  0.75311212  0.59679609  1
  N  N64  1  0.56637307  0.86863676  0.33663013  1
  N  N65  1  0.44048050  0.76330769  0.14135848  1
  N  N66  1  0.22120983  0.86984612  0.89710299  1
  N  N67  1  0.11908238  0.75544561  0.64462658  1
  N  N68  1  0.91127696  0.84084426  0.40291506  1
  N  N69  1  0.75604858  0.79457943  0.07963705  1
  N  N70  1  0.55498305  0.87713405  0.83519552  1
  N  N71  1  0.42083083  0.79635867  0.63989706  1
