# generated using pymatgen
data_Gd5Al31N36
_symmetry_space_group_name_H-M   'P 1'
_cell_length_a   9.76337416
_cell_length_b   9.74198348
_cell_length_c   10.28311610
_cell_angle_alpha   89.64497007
_cell_angle_beta   89.93765544
_cell_angle_gamma   60.05789502
_symmetry_Int_Tables_number   1
_chemical_formula_structural   Gd5Al31N36
_chemical_formula_sum   'Gd5 Al31 N36'
_cell_volume   847.51278825
_cell_formula_units_Z   1
loop_
 _symmetry_equiv_pos_site_id
 _symmetry_equiv_pos_as_xyz
  1  'x, y, z'
loop_
 _atom_site_type_symbol
 _atom_site_label
 _atom_site_symmetry_multiplicity
 _atom_site_fract_x
 _atom_site_fract_y
 _atom_site_fract_z
 _atom_site_occupancy
  Al  Al0  1  0.11479880  0.09897069  0.30724951  1
  Al  Al1  1  0.21987515  0.20724985  0.05611241  1
  Al  Al2  1  0.79397422  0.08257299  0.80523072  1
  Al  Al3  1  0.90083360  0.20183979  0.56331510  1
  Al  Al4  1  0.44621961  0.09108309  0.36834911  1
  Al  Al5  1  0.54652439  0.20591640  0.11562371  1
  Al  Al6  1  0.10649721  0.08867453  0.81550180  1
  Al  Al7  1  0.88190541  0.20489550  0.05538157  1
  Al  Al8  1  0.45848723  0.07716145  0.87671389  1
  Al  Al9  1  0.56647488  0.18685861  0.62570396  1
  Al  Al10  1  0.12315619  0.41847673  0.31207438  1
  Al  Al11  1  0.21011156  0.55052388  0.06385202  1
  Al  Al12  1  0.78706364  0.42752280  0.80624876  1
  Al  Al13  1  0.89183421  0.54146933  0.55489160  1
  Al  Al14  1  0.42951227  0.44010076  0.29250813  1
  Al  Al15  1  0.55479735  0.54717683  0.05958618  1
  Al  Al16  1  0.09714071  0.44434450  0.80441334  1
  Al  Al17  1  0.21910789  0.54167956  0.55487243  1
  Al  Al18  1  0.77861870  0.42651979  0.30679349  1
  Al  Al19  1  0.11109483  0.75811632  0.31031531  1
  Al  Al20  1  0.21846069  0.87476134  0.06070745  1
  Al  Al21  1  0.78395270  0.75931990  0.80341791  1
  Al  Al22  1  0.90047195  0.85753693  0.56390859  1
  Al  Al23  1  0.43484627  0.76278281  0.30342732  1
  Al  Al24  1  0.54797440  0.88546818  0.12847934  1
  Al  Al25  1  0.10811353  0.76366794  0.80987367  1
  Al  Al26  1  0.21492072  0.87400502  0.55987807  1
  Al  Al27  1  0.78089173  0.75981696  0.31422405  1
  Al  Al28  1  0.88414313  0.88356640  0.05368317  1
  Al  Al29  1  0.43996789  0.77001917  0.81233633  1
  Al  Al30  1  0.56241423  0.87335708  0.61960393  1
  Gd  Gd31  1  0.23138498  0.20057673  0.58980633  1
  Gd  Gd32  1  0.77665061  0.09400056  0.33082000  1
  Gd  Gd33  1  0.88862253  0.54384503  0.06759261  1
  Gd  Gd34  1  0.43987549  0.42218194  0.84142576  1
  Gd  Gd35  1  0.55327501  0.53659751  0.56189697  1
  N  N36  1  0.22272919  0.20194796  0.36331436  1
  N  N37  1  0.10745984  0.09838414  0.11430870  1
  N  N38  1  0.88686161  0.20686392  0.86770706  1
  N  N39  1  0.79192101  0.08775881  0.60589728  1
  N  N40  1  0.51704568  0.22192299  0.29830043  1
  N  N41  1  0.44435138  0.09256559  0.06029169  1
  N  N42  1  0.21696149  0.21065088  0.85519974  1
  N  N43  1  0.09937146  0.07398248  0.63307201  1
  N  N44  1  0.90685718  0.22088558  0.37781999  1
  N  N45  1  0.77405453  0.09806989  0.10145584  1
  N  N46  1  0.57664179  0.16324752  0.81255652  1
  N  N47  1  0.49192178  0.06963382  0.54817856  1
  N  N48  1  0.22268687  0.54126933  0.36480259  1
  N  N49  1  0.14273796  0.41109928  0.12801225  1
  N  N50  1  0.88565734  0.54257969  0.85206724  1
  N  N51  1  0.80868906  0.41310374  0.62175463  1
  N  N52  1  0.55028521  0.53879957  0.34283708  1
  N  N53  1  0.43555194  0.44088952  0.09347323  1
  N  N54  1  0.18080580  0.56014657  0.88185461  1
  N  N55  1  0.09587808  0.46086118  0.61906081  1
  N  N56  1  0.88860143  0.53788011  0.35851951  1
  N  N57  1  0.76360861  0.41297437  0.12320582  1
  N  N58  1  0.57247715  0.55460922  0.86722581  1
  N  N59  1  0.42762293  0.40715744  0.61474302  1
  N  N60  1  0.21705675  0.87440962  0.36711520  1
  N  N61  1  0.10400066  0.76918640  0.12157948  1
  N  N62  1  0.89254115  0.87016456  0.86375791  1
  N  N63  1  0.78466103  0.75491647  0.61498839  1
  N  N64  1  0.55003595  0.87351533  0.31913134  1
  N  N65  1  0.43771570  0.76595433  0.11384476  1
  N  N66  1  0.22170202  0.86951822  0.87412445  1
  N  N67  1  0.11982153  0.75500167  0.62112539  1
  N  N68  1  0.90756818  0.83759225  0.38168038  1
  N  N69  1  0.76878137  0.79515911  0.12702339  1
  N  N70  1  0.55964605  0.87134842  0.81923078  1
  N  N71  1  0.42396846  0.79097239  0.62196437  1
