# generated using pymatgen
data_Gd5Al31N36
_symmetry_space_group_name_H-M   'P 1'
_cell_length_a   9.70823707
_cell_length_b   9.71434372
_cell_length_c   10.23502771
_cell_angle_alpha   90.05007421
_cell_angle_beta   90.08565165
_cell_angle_gamma   59.97745296
_symmetry_Int_Tables_number   1
_chemical_formula_structural   Gd5Al31N36
_chemical_formula_sum   'Gd5 Al31 N36'
_cell_volume   835.74596327
_cell_formula_units_Z   1
loop_
 _symmetry_equiv_pos_site_id
 _symmetry_equiv_pos_as_xyz
  1  'x, y, z'
loop_
 _atom_site_type_symbol
 _atom_site_label
 _atom_site_symmetry_multiplicity
 _atom_site_fract_x
 _atom_site_fract_y
 _atom_site_fract_z
 _atom_site_occupancy
  Al  Al0  1  0.11093873  0.09252165  0.39567588  1
  Al  Al1  1  0.22934130  0.20197898  0.15530192  1
  Al  Al2  1  0.78152330  0.08752859  0.90488876  1
  Al  Al3  1  0.89268678  0.19774559  0.66349599  1
  Al  Al4  1  0.45011532  0.08900193  0.39902938  1
  Al  Al5  1  0.55237357  0.20585031  0.15653366  1
  Al  Al6  1  0.11296354  0.09298518  0.91037304  1
  Al  Al7  1  0.88895600  0.20582094  0.14615911  1
  Al  Al8  1  0.44630219  0.08715367  0.91131472  1
  Al  Al9  1  0.56166665  0.19246688  0.65946440  1
  Al  Al10  1  0.10759599  0.43463285  0.40730003  1
  Al  Al11  1  0.22540932  0.54037018  0.16213916  1
  Al  Al12  1  0.77683802  0.42831526  0.90283788  1
  Al  Al13  1  0.89263525  0.54039554  0.65819270  1
  Al  Al14  1  0.43424097  0.42341977  0.40111380  1
  Al  Al15  1  0.55399952  0.53907739  0.16584036  1
  Al  Al16  1  0.11288916  0.42693338  0.90459014  1
  Al  Al17  1  0.20946139  0.54591263  0.65031047  1
  Al  Al18  1  0.79363259  0.42360921  0.40860630  1
  Al  Al19  1  0.11351630  0.75590678  0.40267937  1
  Al  Al20  1  0.22176688  0.87113805  0.15153384  1
  Al  Al21  1  0.77186936  0.76955783  0.89850583  1
  Al  Al22  1  0.89104476  0.86993683  0.66174366  1
  Al  Al23  1  0.43704816  0.77557001  0.39875774  1
  Al  Al24  1  0.55396974  0.87744594  0.15284694  1
  Al  Al25  1  0.10590032  0.76417031  0.90309733  1
  Al  Al26  1  0.21220371  0.87589769  0.65096101  1
  Al  Al27  1  0.77925298  0.75688343  0.41090258  1
  Al  Al28  1  0.88962989  0.87137678  0.14850296  1
  Al  Al29  1  0.44530914  0.76715769  0.90636950  1
  Al  Al30  1  0.55857195  0.87567595  0.65353386  1
  Gd  Gd31  1  0.22618003  0.19723117  0.64116382  1
  Gd  Gd32  1  0.78503025  0.09231217  0.40253181  1
  Gd  Gd33  1  0.88822647  0.54142198  0.14583427  1
  Gd  Gd34  1  0.44088657  0.43052264  0.90683790  1
  Gd  Gd35  1  0.55327442  0.54559984  0.63069664  1
  N  N36  1  0.22432323  0.20435474  0.35367721  1
  N  N37  1  0.11390433  0.09314316  0.09744672  1
  N  N38  1  0.89166007  0.20384650  0.85231250  1
  N  N39  1  0.77971813  0.09300946  0.62173764  1
  N  N40  1  0.53337904  0.21394841  0.33839046  1
  N  N41  1  0.44505283  0.09339719  0.09909251  1
  N  N42  1  0.22376707  0.20314600  0.86243957  1
  N  N43  1  0.08834614  0.07844078  0.58036197  1
  N  N44  1  0.90384242  0.22350127  0.32844097  1
  N  N45  1  0.77854783  0.09366826  0.10099765  1
  N  N46  1  0.56710209  0.17638204  0.84654774  1
  N  N47  1  0.48164714  0.07561043  0.58131012  1
  N  N48  1  0.21849361  0.54062578  0.34818535  1
  N  N49  1  0.14534020  0.41393218  0.09069865  1
  N  N50  1  0.88954907  0.53876047  0.85502279  1
  N  N51  1  0.81450488  0.40609952  0.59550214  1
  N  N52  1  0.55752586  0.53990082  0.36408738  1
  N  N53  1  0.44436546  0.43186019  0.12510382  1
  N  N54  1  0.19103777  0.55594839  0.83478727  1
  N  N55  1  0.09643246  0.45328113  0.59024967  1
  N  N56  1  0.88781975  0.54210499  0.36319213  1
  N  N57  1  0.75808995  0.41638503  0.08693163  1
  N  N58  1  0.56635635  0.55765232  0.84700668  1
  N  N59  1  0.42697561  0.40782689  0.59551455  1
  N  N60  1  0.21880047  0.87099295  0.33871942  1
  N  N61  1  0.11331338  0.75875239  0.09264353  1
  N  N62  1  0.89080382  0.87123833  0.84811998  1
  N  N63  1  0.77809838  0.75993095  0.60275737  1
  N  N64  1  0.56087896  0.86911400  0.34054976  1
  N  N65  1  0.44526052  0.76170013  0.09952780  1
  N  N66  1  0.22132938  0.87260197  0.84519710  1
  N  N67  1  0.10945439  0.76223922  0.59237397  1
  N  N68  1  0.90310677  0.83981947  0.33499694  1
  N  N69  1  0.75997685  0.79337196  0.08171777  1
  N  N70  1  0.55096945  0.87534597  0.84288949  1
  N  N71  1  0.42044294  0.80641512  0.58399632  1
