# generated using pymatgen
data_Gd5Al31N36
_symmetry_space_group_name_H-M   'P 1'
_cell_length_a   9.75436736
_cell_length_b   9.72634297
_cell_length_c   10.42979112
_cell_angle_alpha   89.88848926
_cell_angle_beta   90.38951096
_cell_angle_gamma   59.83528950
_symmetry_Int_Tables_number   1
_chemical_formula_structural   Gd5Al31N36
_chemical_formula_sum   'Gd5 Al31 N36'
_cell_volume   855.48683849
_cell_formula_units_Z   1
loop_
 _symmetry_equiv_pos_site_id
 _symmetry_equiv_pos_as_xyz
  1  'x, y, z'
loop_
 _atom_site_type_symbol
 _atom_site_label
 _atom_site_symmetry_multiplicity
 _atom_site_fract_x
 _atom_site_fract_y
 _atom_site_fract_z
 _atom_site_occupancy
  Al  Al0  1  0.10915686  0.09809258  0.39742255  1
  Al  Al1  1  0.22710065  0.20575900  0.08950247  1
  Al  Al2  1  0.78695840  0.08318161  0.90649464  1
  Al  Al3  1  0.88611206  0.20185807  0.66195363  1
  Al  Al4  1  0.45138264  0.08890889  0.40386693  1
  Al  Al5  1  0.55472564  0.19858611  0.14787590  1
  Al  Al6  1  0.10306399  0.09846137  0.90734358  1
  Al  Al7  1  0.88929073  0.20397951  0.14473303  1
  Al  Al8  1  0.45733403  0.08155810  0.90823510  1
  Al  Al9  1  0.56345572  0.19102244  0.66863924  1
  Al  Al10  1  0.12780479  0.41367234  0.34268645  1
  Al  Al11  1  0.21336398  0.54645543  0.09329646  1
  Al  Al12  1  0.77030376  0.43321431  0.89551989  1
  Al  Al13  1  0.88112173  0.54413380  0.65944326  1
  Al  Al14  1  0.43118081  0.42928589  0.32962332  1
  Al  Al15  1  0.55816998  0.53555118  0.15377860  1
  Al  Al16  1  0.10383423  0.44139303  0.84290538  1
  Al  Al17  1  0.21522166  0.53738976  0.59063057  1
  Al  Al18  1  0.80249908  0.42137652  0.40410712  1
  Al  Al19  1  0.12005277  0.75078754  0.33369856  1
  Al  Al20  1  0.22795290  0.86423780  0.08496998  1
  Al  Al21  1  0.77234967  0.77182817  0.90234376  1
  Al  Al22  1  0.88489215  0.87195740  0.66234598  1
  Al  Al23  1  0.43921435  0.76778268  0.33284716  1
  Al  Al24  1  0.55733403  0.88037038  0.15560300  1
  Al  Al25  1  0.11270163  0.76100129  0.83823596  1
  Al  Al26  1  0.20732651  0.87091019  0.57811050  1
  Al  Al27  1  0.78439683  0.75289528  0.40905303  1
  Al  Al28  1  0.88526987  0.87562263  0.15402559  1
  Al  Al29  1  0.43392157  0.77955487  0.82499527  1
  Al  Al30  1  0.56498425  0.87891079  0.65258346  1
  Gd  Gd31  1  0.22871956  0.18882494  0.63165787  1
  Gd  Gd32  1  0.78034828  0.09899874  0.40635483  1
  Gd  Gd33  1  0.88529934  0.53789311  0.13530717  1
  Gd  Gd34  1  0.44763864  0.43099536  0.88073835  1
  Gd  Gd35  1  0.54012748  0.54962776  0.60389231  1
  N  N36  1  0.22812279  0.19961685  0.39585566  1
  N  N37  1  0.10835261  0.09751674  0.09189856  1
  N  N38  1  0.88867533  0.20642625  0.84692392  1
  N  N39  1  0.77716527  0.09385626  0.62174684  1
  N  N40  1  0.53263289  0.20925115  0.32796095  1
  N  N41  1  0.44881239  0.08911812  0.09066659  1
  N  N42  1  0.22137080  0.21088450  0.88501596  1
  N  N43  1  0.07467940  0.08611908  0.57831280  1
  N  N44  1  0.90600221  0.22182044  0.32306011  1
  N  N45  1  0.78048824  0.09261051  0.09790085  1
  N  N46  1  0.57630001  0.16950183  0.85317333  1
  N  N47  1  0.48817988  0.07701143  0.58257390  1
  N  N48  1  0.22452235  0.53695722  0.40044175  1
  N  N49  1  0.14862034  0.40762358  0.15749130  1
  N  N50  1  0.87860544  0.54569838  0.85919858  1
  N  N51  1  0.80771759  0.41098715  0.58890917  1
  N  N52  1  0.56441868  0.53070936  0.35241605  1
  N  N53  1  0.43700933  0.43510360  0.13251949  1
  N  N54  1  0.18466771  0.56068491  0.91482305  1
  N  N55  1  0.09840086  0.45360704  0.66071823  1
  N  N56  1  0.89663513  0.53865225  0.35637075  1
  N  N57  1  0.75431796  0.41254495  0.07649345  1
  N  N58  1  0.56879055  0.56074510  0.82731603  1
  N  N59  1  0.42435423  0.41024801  0.65190222  1
  N  N60  1  0.22584753  0.86152645  0.39016539  1
  N  N61  1  0.11709170  0.76137610  0.14817659  1
  N  N62  1  0.88917565  0.87079436  0.84682990  1
  N  N63  1  0.77978112  0.75777091  0.59710783  1
  N  N64  1  0.56423226  0.87012468  0.34313319  1
  N  N65  1  0.44338737  0.76339260  0.14557331  1
  N  N66  1  0.22458050  0.86671458  0.89763113  1
  N  N67  1  0.11752311  0.75473003  0.64876698  1
  N  N68  1  0.89627677  0.84819613  0.33937122  1
  N  N69  1  0.76189181  0.79421192  0.08400211  1
  N  N70  1  0.55870423  0.87759966  0.83984795  1
  N  N71  1  0.40755459  0.81915720  0.64162806  1
