# generated using pymatgen
data_Gd5Al31N36
_symmetry_space_group_name_H-M   'P 1'
_cell_length_a   9.76052695
_cell_length_b   9.75135155
_cell_length_c   10.25897722
_cell_angle_alpha   89.62056456
_cell_angle_beta   89.95233604
_cell_angle_gamma   60.09009397
_symmetry_Int_Tables_number   1
_chemical_formula_structural   Gd5Al31N36
_chemical_formula_sum   'Gd5 Al31 N36'
_cell_volume   846.35983705
_cell_formula_units_Z   1
loop_
 _symmetry_equiv_pos_site_id
 _symmetry_equiv_pos_as_xyz
  1  'x, y, z'
loop_
 _atom_site_type_symbol
 _atom_site_label
 _atom_site_symmetry_multiplicity
 _atom_site_fract_x
 _atom_site_fract_y
 _atom_site_fract_z
 _atom_site_occupancy
  Al  Al0  1  0.11478483  0.09885908  0.30728022  1
  Al  Al1  1  0.21890953  0.20828082  0.05669924  1
  Al  Al2  1  0.79396949  0.08209038  0.80583176  1
  Al  Al3  1  0.90113831  0.20148889  0.56332953  1
  Al  Al4  1  0.44476940  0.09358424  0.36578683  1
  Al  Al5  1  0.54654324  0.20678157  0.11588654  1
  Al  Al6  1  0.10682132  0.08830406  0.81590847  1
  Al  Al7  1  0.88191466  0.20500685  0.05544846  1
  Al  Al8  1  0.45866409  0.07660512  0.87838685  1
  Al  Al9  1  0.56694925  0.18675099  0.62627837  1
  Al  Al10  1  0.12245552  0.41893497  0.31220093  1
  Al  Al11  1  0.20961681  0.55097837  0.06416339  1
  Al  Al12  1  0.78707626  0.42709972  0.80624743  1
  Al  Al13  1  0.89219415  0.54038757  0.55487705  1
  Al  Al14  1  0.42969027  0.44062977  0.29279598  1
  Al  Al15  1  0.55475230  0.54725989  0.05897996  1
  Al  Al16  1  0.09648106  0.44504763  0.80456086  1
  Al  Al17  1  0.21918413  0.54160505  0.55482079  1
  Al  Al18  1  0.77869834  0.42636390  0.30699784  1
  Al  Al19  1  0.11135281  0.75814569  0.31055701  1
  Al  Al20  1  0.21845157  0.87483981  0.06064231  1
  Al  Al21  1  0.77844936  0.76144520  0.80332880  1
  Al  Al22  1  0.90124262  0.85743806  0.56458421  1
  Al  Al23  1  0.43558923  0.76222474  0.30385854  1
  Al  Al24  1  0.54866041  0.88398600  0.12216589  1
  Al  Al25  1  0.10806505  0.76363754  0.81040528  1
  Al  Al26  1  0.21521633  0.87434060  0.56008470  1
  Al  Al27  1  0.78181084  0.75920496  0.31440247  1
  Al  Al28  1  0.88373690  0.88377380  0.05349963  1
  Al  Al29  1  0.44229465  0.77116779  0.81285292  1
  Al  Al30  1  0.56459572  0.86919720  0.59406857  1
  Gd  Gd31  1  0.23243322  0.20046674  0.59119962  1
  Gd  Gd32  1  0.77693653  0.09340189  0.33119183  1
  Gd  Gd33  1  0.88750603  0.54523566  0.06671962  1
  Gd  Gd34  1  0.43943517  0.42145734  0.84211320  1
  Gd  Gd35  1  0.55284681  0.53612751  0.56334571  1
  N  N36  1  0.22212777  0.20244137  0.36303775  1
  N  N37  1  0.10737993  0.09826777  0.11423576  1
  N  N38  1  0.88700824  0.20656532  0.86754148  1
  N  N39  1  0.79226299  0.08733556  0.60604619  1
  N  N40  1  0.51765176  0.22302801  0.29852463  1
  N  N41  1  0.44258303  0.09512492  0.06326596  1
  N  N42  1  0.21681858  0.21093455  0.85535765  1
  N  N43  1  0.09987140  0.07398925  0.63290046  1
  N  N44  1  0.90687446  0.22055505  0.37753275  1
  N  N45  1  0.77396673  0.09815936  0.10121234  1
  N  N46  1  0.57652172  0.16261209  0.81288784  1
  N  N47  1  0.49143268  0.07263694  0.54610624  1
  N  N48  1  0.22272143  0.54135704  0.36464421  1
  N  N49  1  0.14126024  0.41226133  0.12788752  1
  N  N50  1  0.88505171  0.54295434  0.85084659  1
  N  N51  1  0.80854033  0.41258074  0.62124521  1
  N  N52  1  0.55064934  0.53858815  0.34377858  1
  N  N53  1  0.43523920  0.44156684  0.09360064  1
  N  N54  1  0.18047049  0.56034736  0.88199343  1
  N  N55  1  0.09584439  0.46090252  0.61878110  1
  N  N56  1  0.88886536  0.53753426  0.35872288  1
  N  N57  1  0.76361811  0.41323377  0.12287700  1
  N  N58  1  0.57204888  0.55354862  0.86585229  1
  N  N59  1  0.42749129  0.40668674  0.61495708  1
  N  N60  1  0.21755023  0.87428104  0.36734567  1
  N  N61  1  0.10375436  0.76951218  0.12155049  1
  N  N62  1  0.89205977  0.86961315  0.86314885  1
  N  N63  1  0.78315751  0.75512893  0.61386227  1
  N  N64  1  0.55161958  0.87131282  0.32572530  1
  N  N65  1  0.43780553  0.76567607  0.11502648  1
  N  N66  1  0.22223446  0.86915305  0.87375570  1
  N  N67  1  0.12076532  0.75464011  0.62129848  1
  N  N68  1  0.90818701  0.83713900  0.38228951  1
  N  N69  1  0.76847850  0.79590431  0.12871957  1
  N  N70  1  0.56143594  0.86732489  0.83745605  1
  N  N71  1  0.42568739  0.79263231  0.62152877  1
