# generated using pymatgen
data_Gd5Al31N36
_symmetry_space_group_name_H-M   'P 1'
_cell_length_a   9.72008388
_cell_length_b   9.75778995
_cell_length_c   10.21492915
_cell_angle_alpha   90.53913178
_cell_angle_beta   90.68456725
_cell_angle_gamma   60.01297548
_symmetry_Int_Tables_number   1
_chemical_formula_structural   Gd5Al31N36
_chemical_formula_sum   'Gd5 Al31 N36'
_cell_volume   839.09245494
_cell_formula_units_Z   1
loop_
 _symmetry_equiv_pos_site_id
 _symmetry_equiv_pos_as_xyz
  1  'x, y, z'
loop_
 _atom_site_type_symbol
 _atom_site_label
 _atom_site_symmetry_multiplicity
 _atom_site_fract_x
 _atom_site_fract_y
 _atom_site_fract_z
 _atom_site_occupancy
  Al  Al0  1  0.11065432  0.09321925  0.39027659  1
  Al  Al1  1  0.22714906  0.20113823  0.15211629  1
  Al  Al2  1  0.78648001  0.08284513  0.89935388  1
  Al  Al3  1  0.89388593  0.19695536  0.65685938  1
  Al  Al4  1  0.45082307  0.09089119  0.39170683  1
  Al  Al5  1  0.55565940  0.19709561  0.14053784  1
  Al  Al6  1  0.11354097  0.09329540  0.90302972  1
  Al  Al7  1  0.88858222  0.20689686  0.13818648  1
  Al  Al8  1  0.44620092  0.08270818  0.90535638  1
  Al  Al9  1  0.56561995  0.18450597  0.66263583  1
  Al  Al10  1  0.10992581  0.43650079  0.39950099  1
  Al  Al11  1  0.21398207  0.54775646  0.13270288  1
  Al  Al12  1  0.77694737  0.42941822  0.89051950  1
  Al  Al13  1  0.89118395  0.54011272  0.65022292  1
  Al  Al14  1  0.43496299  0.43228092  0.32398188  1
  Al  Al15  1  0.55512789  0.54581781  0.14714549  1
  Al  Al16  1  0.11079859  0.42380711  0.90140310  1
  Al  Al17  1  0.21088313  0.54405173  0.64982020  1
  Al  Al18  1  0.79582316  0.42376758  0.39982665  1
  Al  Al19  1  0.11464712  0.75588095  0.39527608  1
  Al  Al20  1  0.22055988  0.87457774  0.14507763  1
  Al  Al21  1  0.77297887  0.76976783  0.89029368  1
  Al  Al22  1  0.89297714  0.86837741  0.65430094  1
  Al  Al23  1  0.43697285  0.77795739  0.39029055  1
  Al  Al24  1  0.55357077  0.87772694  0.14520729  1
  Al  Al25  1  0.10519587  0.76841117  0.89876738  1
  Al  Al26  1  0.21407194  0.87582180  0.64423737  1
  Al  Al27  1  0.77954563  0.75831955  0.40517267  1
  Al  Al28  1  0.88751094  0.87458687  0.14491874  1
  Al  Al29  1  0.44601567  0.76645610  0.89388540  1
  Al  Al30  1  0.55949986  0.87276921  0.64519813  1
  Gd  Gd31  1  0.22928763  0.19927419  0.63363236  1
  Gd  Gd32  1  0.78052411  0.09827363  0.39722045  1
  Gd  Gd33  1  0.88250428  0.54456529  0.13959936  1
  Gd  Gd34  1  0.44952656  0.42408156  0.88587125  1
  Gd  Gd35  1  0.54840156  0.53853552  0.61276734  1
  N  N36  1  0.22449122  0.20451950  0.34935528  1
  N  N37  1  0.11296471  0.09390461  0.09081512  1
  N  N38  1  0.89195833  0.20346934  0.84554835  1
  N  N39  1  0.78101515  0.09118232  0.61671814  1
  N  N40  1  0.53214970  0.21388636  0.32401184  1
  N  N41  1  0.44125242  0.09157413  0.09247440  1
  N  N42  1  0.22401498  0.20221096  0.85536800  1
  N  N43  1  0.08996108  0.07856907  0.57483966  1
  N  N44  1  0.90380402  0.22418655  0.32085336  1
  N  N45  1  0.77997749  0.09350982  0.09450366  1
  N  N46  1  0.57437685  0.16297005  0.84997700  1
  N  N47  1  0.48517075  0.07312420  0.57373466  1
  N  N48  1  0.21566544  0.54399214  0.33575250  1
  N  N49  1  0.13735283  0.41106723  0.08794141  1
  N  N50  1  0.88972725  0.53839659  0.84676067  1
  N  N51  1  0.81322478  0.40466590  0.58692487  1
  N  N52  1  0.55854498  0.54253117  0.34702922  1
  N  N53  1  0.44127376  0.43442209  0.12370065  1
  N  N54  1  0.18973253  0.55644026  0.85268564  1
  N  N55  1  0.09619241  0.45501620  0.58439937  1
  N  N56  1  0.88814877  0.54352653  0.35715193  1
  N  N57  1  0.75698974  0.41592869  0.07503580  1
  N  N58  1  0.56828021  0.55989198  0.83248888  1
  N  N59  1  0.42738732  0.40158294  0.64306733  1
  N  N60  1  0.21888519  0.87280829  0.33202641  1
  N  N61  1  0.10713833  0.76887344  0.08749213  1
  N  N62  1  0.89301058  0.86939930  0.84030492  1
  N  N63  1  0.77900025  0.75899724  0.59616065  1
  N  N64  1  0.56096195  0.87016864  0.33301323  1
  N  N65  1  0.44395720  0.76381739  0.08854137  1
  N  N66  1  0.22110257  0.87391530  0.83818422  1
  N  N67  1  0.11346261  0.75872874  0.58783840  1
  N  N68  1  0.90058353  0.84482158  0.33185910  1
  N  N69  1  0.75949969  0.79568200  0.07477082  1
  N  N70  1  0.55137438  0.87386861  0.83442393  1
  N  N71  1  0.42174112  0.80303314  0.57591874  1
