# generated using pymatgen
data_Gd5Al31N36
_symmetry_space_group_name_H-M   'P 1'
_cell_length_a   9.71174714
_cell_length_b   9.72271865
_cell_length_c   10.22299964
_cell_angle_alpha   89.88674095
_cell_angle_beta   89.93191794
_cell_angle_gamma   60.04175239
_symmetry_Int_Tables_number   1
_chemical_formula_structural   Gd5Al31N36
_chemical_formula_sum   'Gd5 Al31 N36'
_cell_volume   836.32632424
_cell_formula_units_Z   1
loop_
 _symmetry_equiv_pos_site_id
 _symmetry_equiv_pos_as_xyz
  1  'x, y, z'
loop_
 _atom_site_type_symbol
 _atom_site_label
 _atom_site_symmetry_multiplicity
 _atom_site_fract_x
 _atom_site_fract_y
 _atom_site_fract_z
 _atom_site_occupancy
  Al  Al0  1  0.11450285  0.09592587  0.30354020  1
  Al  Al1  1  0.22730524  0.20339156  0.05724252  1
  Al  Al2  1  0.78095584  0.08935167  0.80729207  1
  Al  Al3  1  0.89560205  0.20066433  0.56545259  1
  Al  Al4  1  0.43935059  0.09424741  0.30249704  1
  Al  Al5  1  0.56101600  0.19525684  0.05789453  1
  Al  Al6  1  0.10839814  0.08831519  0.81570577  1
  Al  Al7  1  0.88741310  0.20248309  0.05235759  1
  Al  Al8  1  0.45656560  0.08214974  0.81372132  1
  Al  Al9  1  0.55392277  0.20076990  0.55848241  1
  Al  Al10  1  0.11893672  0.42254265  0.30863444  1
  Al  Al11  1  0.21607763  0.54475719  0.06547504  1
  Al  Al12  1  0.78708928  0.42697182  0.80709260  1
  Al  Al13  1  0.89058182  0.54292130  0.55723158  1
  Al  Al14  1  0.43744460  0.42871860  0.29919318  1
  Al  Al15  1  0.55658723  0.54107379  0.06511457  1
  Al  Al16  1  0.10011801  0.44071531  0.80534194  1
  Al  Al17  1  0.21652384  0.54386038  0.55312676  1
  Al  Al18  1  0.78134669  0.42400125  0.30802799  1
  Al  Al19  1  0.11405590  0.75601724  0.31153409  1
  Al  Al20  1  0.22082439  0.87228456  0.06135068  1
  Al  Al21  1  0.77474140  0.76230069  0.80335597  1
  Al  Al22  1  0.89519229  0.86212945  0.56668312  1
  Al  Al23  1  0.44156512  0.76534222  0.30385696  1
  Al  Al24  1  0.55316439  0.87939236  0.06115517  1
  Al  Al25  1  0.10580206  0.76488617  0.81075470  1
  Al  Al26  1  0.21594265  0.87372508  0.56285099  1
  Al  Al27  1  0.77627153  0.76315174  0.31636233  1
  Al  Al28  1  0.88706253  0.87812072  0.05240525  1
  Al  Al29  1  0.44328258  0.77241671  0.81636868  1
  Al  Al30  1  0.55834709  0.87485835  0.56086298  1
  Gd  Gd31  1  0.22391540  0.20115360  0.57082766  1
  Gd  Gd32  1  0.78312120  0.08949360  0.31715163  1
  Gd  Gd33  1  0.88670075  0.54502957  0.06722322  1
  Gd  Gd34  1  0.43749263  0.42843991  0.82808012  1
  Gd  Gd35  1  0.55405763  0.54312863  0.56026395  1
  N  N36  1  0.22412657  0.20130683  0.35038396  1
  N  N37  1  0.10969992  0.09516341  0.11214720  1
  N  N38  1  0.88676862  0.20697121  0.86552664  1
  N  N39  1  0.77763882  0.09409064  0.60954896  1
  N  N40  1  0.52582019  0.21775545  0.36871837  1
  N  N41  1  0.44345185  0.09422275  0.11454593  1
  N  N42  1  0.22269367  0.20709963  0.85918786  1
  N  N43  1  0.09664853  0.07478474  0.63337321  1
  N  N44  1  0.90886024  0.21777815  0.37973392  1
  N  N45  1  0.78170760  0.09314126  0.09862886  1
  N  N46  1  0.57306369  0.17393818  0.87498444  1
  N  N47  1  0.47809085  0.07631271  0.63015186  1
  N  N48  1  0.22351409  0.53910942  0.36314474  1
  N  N49  1  0.13997004  0.41220927  0.12509638  1
  N  N50  1  0.88593331  0.54323740  0.85045680  1
  N  N51  1  0.80819192  0.41302823  0.62160652  1
  N  N52  1  0.55256845  0.53907842  0.34127498  1
  N  N53  1  0.44287500  0.42741970  0.10291271  1
  N  N54  1  0.18234997  0.56025898  0.88298968  1
  N  N55  1  0.09706593  0.45886202  0.61926184  1
  N  N56  1  0.88842832  0.53871772  0.35903428  1
  N  N57  1  0.76841599  0.40788406  0.12427127  1
  N  N58  1  0.57290162  0.55496928  0.87135212  1
  N  N59  1  0.42788276  0.41336147  0.60964438  1
  N  N60  1  0.22101573  0.87297233  0.36808656  1
  N  N61  1  0.10677261  0.76579111  0.12201316  1
  N  N62  1  0.88779467  0.87146134  0.86102856  1
  N  N63  1  0.77482313  0.75950082  0.61528185  1
  N  N64  1  0.55259047  0.87325508  0.37002232  1
  N  N65  1  0.44337545  0.76606397  0.11644338  1
  N  N66  1  0.22207481  0.86842544  0.87452793  1
  N  N67  1  0.11746519  0.75648325  0.62135382  1
  N  N68  1  0.90813401  0.83805634  0.38360445  1
  N  N69  1  0.76146734  0.79912786  0.13107247  1
  N  N70  1  0.55997927  0.86969421  0.87422639  1
  N  N71  1  0.42679273  0.79620228  0.62836075  1
