# generated using pymatgen
data_Gd5Al31N36
_symmetry_space_group_name_H-M   'P 1'
_cell_length_a   9.76281473
_cell_length_b   9.73095074
_cell_length_c   10.31992502
_cell_angle_alpha   89.71723642
_cell_angle_beta   89.95434284
_cell_angle_gamma   59.96626557
_symmetry_Int_Tables_number   1
_chemical_formula_structural   Gd5Al31N36
_chemical_formula_sum   'Gd5 Al31 N36'
_cell_volume   848.75757892
_cell_formula_units_Z   1
loop_
 _symmetry_equiv_pos_site_id
 _symmetry_equiv_pos_as_xyz
  1  'x, y, z'
loop_
 _atom_site_type_symbol
 _atom_site_label
 _atom_site_symmetry_multiplicity
 _atom_site_fract_x
 _atom_site_fract_y
 _atom_site_fract_z
 _atom_site_occupancy
  Al  Al0  1  0.11546875  0.09856841  0.30826492  1
  Al  Al1  1  0.22054823  0.20621431  0.05686678  1
  Al  Al2  1  0.79252402  0.08389392  0.80910100  1
  Al  Al3  1  0.89951032  0.20207878  0.56451398  1
  Al  Al4  1  0.44773178  0.08966099  0.37109271  1
  Al  Al5  1  0.54655709  0.20493486  0.11580392  1
  Al  Al6  1  0.10600029  0.08884824  0.81612484  1
  Al  Al7  1  0.88252624  0.20485203  0.05627026  1
  Al  Al8  1  0.45723730  0.07830590  0.87673168  1
  Al  Al9  1  0.56584675  0.18733676  0.62675950  1
  Al  Al10  1  0.12386851  0.41802519  0.31263326  1
  Al  Al11  1  0.21108714  0.54946706  0.06440930  1
  Al  Al12  1  0.78689796  0.42858864  0.80727700  1
  Al  Al13  1  0.89163358  0.54266653  0.55647116  1
  Al  Al14  1  0.43006279  0.43882849  0.29297834  1
  Al  Al15  1  0.55533998  0.54653072  0.06156801  1
  Al  Al16  1  0.09801960  0.44356858  0.80528517  1
  Al  Al17  1  0.21910609  0.54173316  0.55590385  1
  Al  Al18  1  0.77952410  0.42660180  0.30776667  1
  Al  Al19  1  0.11147728  0.75733251  0.31148247  1
  Al  Al20  1  0.21848574  0.87428999  0.06161045  1
  Al  Al21  1  0.78522379  0.75930377  0.80451162  1
  Al  Al22  1  0.89871352  0.85923185  0.56426047  1
  Al  Al23  1  0.43454141  0.76278199  0.30362355  1
  Al  Al24  1  0.54795056  0.88551433  0.13007889  1
  Al  Al25  1  0.10740498  0.76402157  0.81039722  1
  Al  Al26  1  0.21432768  0.87348261  0.56135602  1
  Al  Al27  1  0.78094377  0.75965341  0.31480554  1
  Al  Al28  1  0.88507170  0.88224895  0.05496760  1
  Al  Al29  1  0.43949191  0.76985522  0.81397429  1
  Al  Al30  1  0.56097979  0.87449013  0.62572236  1
  Gd  Gd31  1  0.22849318  0.20085058  0.58860218  1
  Gd  Gd32  1  0.77822411  0.09408141  0.32935620  1
  Gd  Gd33  1  0.88950309  0.54275412  0.06800577  1
  Gd  Gd34  1  0.43995051  0.42458402  0.84083757  1
  Gd  Gd35  1  0.55392664  0.53704397  0.56066514  1
  N  N36  1  0.22382614  0.20121215  0.36379737  1
  N  N37  1  0.10777447  0.09798631  0.11578155  1
  N  N38  1  0.88658969  0.20782348  0.86931043  1
  N  N39  1  0.79039378  0.08879679  0.60641946  1
  N  N40  1  0.51819941  0.21985485  0.29864931  1
  N  N41  1  0.44511366  0.09139789  0.05963047  1
  N  N42  1  0.21648063  0.21036271  0.85625822  1
  N  N43  1  0.09795106  0.07370717  0.63462503  1
  N  N44  1  0.90762626  0.22114851  0.37957384  1
  N  N45  1  0.77430110  0.09782728  0.10070048  1
  N  N46  1  0.57520297  0.16499402  0.81348205  1
  N  N47  1  0.49000086  0.06974695  0.55106114  1
  N  N48  1  0.22336206  0.54035088  0.36615535  1
  N  N49  1  0.14372899  0.41027017  0.12912135  1
  N  N50  1  0.88639020  0.54273407  0.85328746  1
  N  N51  1  0.80868562  0.41387848  0.62336569  1
  N  N52  1  0.55049820  0.53835514  0.34251421  1
  N  N53  1  0.43628314  0.43980732  0.09449202  1
  N  N54  1  0.18110400  0.56004986  0.88293993  1
  N  N55  1  0.09611000  0.46099889  0.62063441  1
  N  N56  1  0.88908184  0.53793682  0.36020896  1
  N  N57  1  0.76449480  0.41249951  0.12511611  1
  N  N58  1  0.57347405  0.55550698  0.87060715  1
  N  N59  1  0.42821616  0.40853132  0.61537397  1
  N  N60  1  0.21718128  0.87392983  0.36863309  1
  N  N61  1  0.10465966  0.76832305  0.12313192  1
  N  N62  1  0.89239313  0.87050230  0.86577765  1
  N  N63  1  0.78417754  0.75613033  0.61688115  1
  N  N64  1  0.54996987  0.87342358  0.31901641  1
  N  N65  1  0.43748754  0.76605269  0.11490979  1
  N  N66  1  0.22108864  0.86952660  0.87553095  1
  N  N67  1  0.11827100  0.75551763  0.62209037  1
  N  N68  1  0.90716347  0.83798810  0.38237562  1
  N  N69  1  0.76930756  0.79425914  0.12804267  1
  N  N70  1  0.55917815  0.87228338  0.81824400  1
  N  N71  1  0.42312840  0.79027210  0.62447387  1
