# generated using pymatgen
data_Gd5Al31N36
_symmetry_space_group_name_H-M   'P 1'
_cell_length_a   9.76267099
_cell_length_b   9.73686085
_cell_length_c   10.32897019
_cell_angle_alpha   89.74239640
_cell_angle_beta   89.96393362
_cell_angle_gamma   59.94318660
_symmetry_Int_Tables_number   1
_chemical_formula_structural   Gd5Al31N36
_chemical_formula_sum   'Gd5 Al31 N36'
_cell_volume   849.80876561
_cell_formula_units_Z   1
loop_
 _symmetry_equiv_pos_site_id
 _symmetry_equiv_pos_as_xyz
  1  'x, y, z'
loop_
 _atom_site_type_symbol
 _atom_site_label
 _atom_site_symmetry_multiplicity
 _atom_site_fract_x
 _atom_site_fract_y
 _atom_site_fract_z
 _atom_site_occupancy
  Al  Al0  1  0.11753211  0.09834490  0.30821747  1
  Al  Al1  1  0.22059862  0.20643666  0.05599428  1
  Al  Al2  1  0.78135449  0.08961346  0.86558624  1
  Al  Al3  1  0.89808203  0.20149046  0.56208368  1
  Al  Al4  1  0.44921254  0.08964619  0.37211336  1
  Al  Al5  1  0.54451270  0.20563451  0.11441622  1
  Al  Al6  1  0.10431814  0.08894497  0.81451281  1
  Al  Al7  1  0.88689363  0.20778738  0.05886749  1
  Al  Al8  1  0.45557438  0.07857694  0.87529147  1
  Al  Al9  1  0.57344632  0.18361687  0.62644444  1
  Al  Al10  1  0.12380227  0.41810306  0.31241051  1
  Al  Al11  1  0.21175241  0.54857310  0.06370666  1
  Al  Al12  1  0.78663087  0.42882764  0.80624434  1
  Al  Al13  1  0.89143056  0.54318412  0.55638601  1
  Al  Al14  1  0.43145293  0.43755258  0.29262259  1
  Al  Al15  1  0.55489840  0.54640917  0.06076047  1
  Al  Al16  1  0.09736381  0.44409060  0.80467570  1
  Al  Al17  1  0.21927915  0.54149070  0.55592226  1
  Al  Al18  1  0.78017083  0.42708247  0.30786717  1
  Al  Al19  1  0.11343755  0.75570533  0.31179615  1
  Al  Al20  1  0.21939328  0.87389717  0.06094159  1
  Al  Al21  1  0.78484980  0.76004251  0.80328392  1
  Al  Al22  1  0.89648105  0.86286017  0.56138426  1
  Al  Al23  1  0.43498843  0.76239593  0.30380147  1
  Al  Al24  1  0.54739232  0.88592089  0.13040311  1
  Al  Al25  1  0.10529705  0.76570253  0.80922403  1
  Al  Al26  1  0.21378414  0.87366318  0.56121680  1
  Al  Al27  1  0.78116060  0.75882442  0.31511156  1
  Al  Al28  1  0.89017710  0.87371302  0.05826643  1
  Al  Al29  1  0.43924323  0.76988369  0.81308142  1
  Al  Al30  1  0.56035919  0.87479642  0.62491585  1
  Gd  Gd31  1  0.22752988  0.20147161  0.58791680  1
  Gd  Gd32  1  0.78004631  0.09357498  0.33498767  1
  Gd  Gd33  1  0.88877645  0.54304645  0.06688744  1
  Gd  Gd34  1  0.43782470  0.42657097  0.83777470  1
  Gd  Gd35  1  0.55409912  0.53580869  0.56006309  1
  N  N36  1  0.22557273  0.20131391  0.36315275  1
  N  N37  1  0.10925504  0.09720444  0.11616214  1
  N  N38  1  0.88784523  0.21065923  0.87212414  1
  N  N39  1  0.78492137  0.09230709  0.57594863  1
  N  N40  1  0.52118111  0.21769900  0.29588077  1
  N  N41  1  0.44488101  0.09098214  0.05837957  1
  N  N42  1  0.21588015  0.21059377  0.85568466  1
  N  N43  1  0.09643329  0.07414438  0.63376724  1
  N  N44  1  0.91043615  0.22191720  0.37573822  1
  N  N45  1  0.77180226  0.09861831  0.07847412  1
  N  N46  1  0.57605456  0.16502571  0.81389496  1
  N  N47  1  0.48853171  0.07091471  0.55273442  1
  N  N48  1  0.22504254  0.53879944  0.36597916  1
  N  N49  1  0.14304434  0.41053255  0.12851677  1
  N  N50  1  0.88554289  0.54344358  0.85242384  1
  N  N51  1  0.80895126  0.41348334  0.62260385  1
  N  N52  1  0.55095637  0.53789471  0.34216673  1
  N  N53  1  0.43629873  0.43958804  0.09398646  1
  N  N54  1  0.18010106  0.56093766  0.88261227  1
  N  N55  1  0.09587547  0.46144438  0.62052272  1
  N  N56  1  0.88931143  0.53791741  0.36038975  1
  N  N57  1  0.76396976  0.41319415  0.12571369  1
  N  N58  1  0.57305550  0.55546038  0.87037333  1
  N  N59  1  0.42867889  0.40725083  0.61554451  1
  N  N60  1  0.21776654  0.87365000  0.36843677  1
  N  N61  1  0.10651759  0.76728443  0.12372913  1
  N  N62  1  0.89277501  0.86744652  0.86912862  1
  N  N63  1  0.78395748  0.75727384  0.61588726  1
  N  N64  1  0.54991083  0.87355250  0.31919632  1
  N  N65  1  0.43787058  0.76575532  0.11485560  1
  N  N66  1  0.22029016  0.86993410  0.87508749  1
  N  N67  1  0.11687348  0.75635205  0.62134294  1
  N  N68  1  0.90931066  0.83512221  0.37893684  1
  N  N69  1  0.76899222  0.79363489  0.12918397  1
  N  N70  1  0.55879295  0.87241744  0.81758280  1
  N  N71  1  0.42308615  0.78949343  0.62405496  1
