# generated using pymatgen
data_Gd5Al31N36
_symmetry_space_group_name_H-M   'P 1'
_cell_length_a   9.73484491
_cell_length_b   9.69947816
_cell_length_c   10.46230216
_cell_angle_alpha   90.14068651
_cell_angle_beta   90.25425400
_cell_angle_gamma   60.22912412
_symmetry_Int_Tables_number   1
_chemical_formula_structural   Gd5Al31N36
_chemical_formula_sum   'Gd5 Al31 N36'
_cell_volume   857.49003380
_cell_formula_units_Z   1
loop_
 _symmetry_equiv_pos_site_id
 _symmetry_equiv_pos_as_xyz
  1  'x, y, z'
loop_
 _atom_site_type_symbol
 _atom_site_label
 _atom_site_symmetry_multiplicity
 _atom_site_fract_x
 _atom_site_fract_y
 _atom_site_fract_z
 _atom_site_occupancy
  Al  Al0  1  0.12588563  0.09144174  0.29755518  1
  Al  Al1  1  0.22437356  0.20634025  0.05239137  1
  Al  Al2  1  0.77814996  0.09440631  0.87984815  1
  Al  Al3  1  0.88872516  0.19197446  0.64457908  1
  Al  Al4  1  0.44833731  0.09084599  0.37090347  1
  Al  Al5  1  0.54976868  0.20403026  0.11433710  1
  Al  Al6  1  0.11235985  0.08463024  0.82013251  1
  Al  Al7  1  0.88955345  0.20683050  0.11589015  1
  Al  Al8  1  0.45622834  0.07759521  0.87539983  1
  Al  Al9  1  0.57033380  0.18047689  0.63400721  1
  Al  Al10  1  0.12347836  0.41803430  0.30956716  1
  Al  Al11  1  0.21404154  0.54760305  0.06254556  1
  Al  Al12  1  0.77917052  0.43600898  0.80876869  1
  Al  Al13  1  0.89097121  0.54033651  0.55425330  1
  Al  Al14  1  0.43021763  0.43842350  0.28723473  1
  Al  Al15  1  0.55320152  0.55095239  0.05398559  1
  Al  Al16  1  0.09556827  0.44286029  0.80174207  1
  Al  Al17  1  0.22040283  0.53845132  0.55434190  1
  Al  Al18  1  0.77643736  0.43717688  0.29377266  1
  Al  Al19  1  0.11192959  0.75862758  0.31041438  1
  Al  Al20  1  0.22340891  0.87064871  0.05688463  1
  Al  Al21  1  0.78295168  0.76250268  0.80057718  1
  Al  Al22  1  0.89965275  0.85640009  0.56278472  1
  Al  Al23  1  0.43640352  0.76113019  0.30107254  1
  Al  Al24  1  0.54785645  0.88741243  0.13137633  1
  Al  Al25  1  0.10201612  0.76582679  0.80974333  1
  Al  Al26  1  0.21498644  0.87049521  0.55923996  1
  Al  Al27  1  0.78159394  0.76247818  0.31384583  1
  Al  Al28  1  0.89086186  0.87720412  0.06029681  1
  Al  Al29  1  0.43778022  0.76907393  0.80666308  1
  Al  Al30  1  0.55959720  0.87350277  0.62203121  1
  Gd  Gd31  1  0.22320349  0.19976199  0.58212586  1
  Gd  Gd32  1  0.77009953  0.10775665  0.36752207  1
  Gd  Gd33  1  0.89458367  0.55026693  0.05971935  1
  Gd  Gd34  1  0.43314184  0.42843042  0.83458197  1
  Gd  Gd35  1  0.55656398  0.53092213  0.55397145  1
  N  N36  1  0.22331515  0.20153908  0.36205773  1
  N  N37  1  0.12166011  0.09055077  0.10562796  1
  N  N38  1  0.88241619  0.20787341  0.83374899  1
  N  N39  1  0.78454898  0.08835562  0.58592988  1
  N  N40  1  0.52174183  0.21723727  0.29261462  1
  N  N41  1  0.44865750  0.08976046  0.05613074  1
  N  N42  1  0.21663052  0.21147686  0.85624983  1
  N  N43  1  0.10370728  0.06633834  0.63782355  1
  N  N44  1  0.90678800  0.21665870  0.30193359  1
  N  N45  1  0.77304484  0.10471100  0.06891127  1
  N  N46  1  0.57490282  0.16611877  0.81673675  1
  N  N47  1  0.48747186  0.07052723  0.55047033  1
  N  N48  1  0.22521219  0.53987380  0.36547006  1
  N  N49  1  0.14650246  0.40866282  0.12880979  1
  N  N50  1  0.88324975  0.54599662  0.84859680  1
  N  N51  1  0.80771302  0.41234938  0.62069976  1
  N  N52  1  0.55364444  0.53566200  0.33760872  1
  N  N53  1  0.43792473  0.43994148  0.09230035  1
  N  N54  1  0.17630688  0.56085811  0.88364950  1
  N  N55  1  0.09559680  0.45935415  0.61956687  1
  N  N56  1  0.88953616  0.53906639  0.35975277  1
  N  N57  1  0.76185515  0.43007757  0.11060231  1
  N  N58  1  0.56686088  0.55868562  0.86712784  1
  N  N59  1  0.42999503  0.40406883  0.61498643  1
  N  N60  1  0.22014144  0.87288483  0.36747901  1
  N  N61  1  0.10772714  0.76701909  0.12372114  1
  N  N62  1  0.89041626  0.86854217  0.87176507  1
  N  N63  1  0.78373291  0.75515373  0.61446639  1
  N  N64  1  0.54975998  0.87459006  0.31795708  1
  N  N65  1  0.43855563  0.76619960  0.11454294  1
  N  N66  1  0.22266299  0.86515502  0.87376367  1
  N  N67  1  0.11754018  0.75322878  0.62186846  1
  N  N68  1  0.90780029  0.84232459  0.37990850  1
  N  N69  1  0.76915479  0.79827387  0.13162912  1
  N  N70  1  0.55656894  0.87359205  0.81197963  1
  N  N71  1  0.42510090  0.78410304  0.62014870  1
