# generated using pymatgen
data_Gd5Al31N36
_symmetry_space_group_name_H-M   'P 1'
_cell_length_a   9.73811299
_cell_length_b   9.72420290
_cell_length_c   10.41827965
_cell_angle_alpha   89.97629459
_cell_angle_beta   90.40648001
_cell_angle_gamma   59.84535718
_symmetry_Int_Tables_number   1
_chemical_formula_structural   Gd5Al31N36
_chemical_formula_sum   'Gd5 Al31 N36'
_cell_volume   853.02365380
_cell_formula_units_Z   1
loop_
 _symmetry_equiv_pos_site_id
 _symmetry_equiv_pos_as_xyz
  1  'x, y, z'
loop_
 _atom_site_type_symbol
 _atom_site_label
 _atom_site_symmetry_multiplicity
 _atom_site_fract_x
 _atom_site_fract_y
 _atom_site_fract_z
 _atom_site_occupancy
  Al  Al0  1  0.10757043  0.09397218  0.39318154  1
  Al  Al1  1  0.23529227  0.19114563  0.16257101  1
  Al  Al2  1  0.78634104  0.08374544  0.90659929  1
  Al  Al3  1  0.88669670  0.20214037  0.66344695  1
  Al  Al4  1  0.45588556  0.08474206  0.40110815  1
  Al  Al5  1  0.55557083  0.19733395  0.14697343  1
  Al  Al6  1  0.10894455  0.10451642  0.91312233  1
  Al  Al7  1  0.88872111  0.20358455  0.14455586  1
  Al  Al8  1  0.44470284  0.08797465  0.91207800  1
  Al  Al9  1  0.56084584  0.19181716  0.67101374  1
  Al  Al10  1  0.12285442  0.42386487  0.34494526  1
  Al  Al11  1  0.21420415  0.54522061  0.09298104  1
  Al  Al12  1  0.77107739  0.43279111  0.89483980  1
  Al  Al13  1  0.87905246  0.54619540  0.65986031  1
  Al  Al14  1  0.43234354  0.42854389  0.32939617  1
  Al  Al15  1  0.55941376  0.53465586  0.15379284  1
  Al  Al16  1  0.10630831  0.43778843  0.84053992  1
  Al  Al17  1  0.21534921  0.53979664  0.59248393  1
  Al  Al18  1  0.80086367  0.42140877  0.40459580  1
  Al  Al19  1  0.12086317  0.74997264  0.33373591  1
  Al  Al20  1  0.22853224  0.86415131  0.08606653  1
  Al  Al21  1  0.77058433  0.77364400  0.90234350  1
  Al  Al22  1  0.88449216  0.87241466  0.66425770  1
  Al  Al23  1  0.44105317  0.76552399  0.33317920  1
  Al  Al24  1  0.55983994  0.87726376  0.15491557  1
  Al  Al25  1  0.11262675  0.76259492  0.84048204  1
  Al  Al26  1  0.20659880  0.87272129  0.57806176  1
  Al  Al27  1  0.78457780  0.75247824  0.40990045  1
  Al  Al28  1  0.88619821  0.87477299  0.15429966  1
  Al  Al29  1  0.43264271  0.78180935  0.82679247  1
  Al  Al30  1  0.56200532  0.88234028  0.65412867  1
  Gd  Gd31  1  0.22625524  0.19001329  0.63518351  1
  Gd  Gd32  1  0.78058257  0.09827823  0.40872711  1
  Gd  Gd33  1  0.88931598  0.53504910  0.13145932  1
  Gd  Gd34  1  0.44836593  0.43142688  0.88242226  1
  Gd  Gd35  1  0.53908008  0.55100961  0.60569845  1
  N  N36  1  0.23278001  0.18915514  0.35945374  1
  N  N37  1  0.11217446  0.09846047  0.09877095  1
  N  N38  1  0.89163544  0.20551909  0.84904470  1
  N  N39  1  0.77579214  0.09470078  0.62485932  1
  N  N40  1  0.53400284  0.20863466  0.32796207  1
  N  N41  1  0.44400299  0.08942340  0.09636360  1
  N  N42  1  0.22277940  0.20658187  0.86028954  1
  N  N43  1  0.07300927  0.08913890  0.57255543  1
  N  N44  1  0.90325266  0.22214087  0.32301628  1
  N  N45  1  0.78122354  0.09131088  0.09800871  1
  N  N46  1  0.57315412  0.16951803  0.85674409  1
  N  N47  1  0.48328490  0.08058818  0.57962320  1
  N  N48  1  0.22641602  0.53719908  0.40315106  1
  N  N49  1  0.14939134  0.41131322  0.16247221  1
  N  N50  1  0.87956449  0.54569797  0.85875240  1
  N  N51  1  0.80675702  0.41147109  0.58987845  1
  N  N52  1  0.56486503  0.52999984  0.35300855  1
  N  N53  1  0.43810466  0.43428644  0.13281399  1
  N  N54  1  0.18462608  0.55980240  0.91415619  1
  N  N55  1  0.09623591  0.45594566  0.65537540  1
  N  N56  1  0.89544529  0.53841613  0.35707955  1
  N  N57  1  0.75505675  0.41168899  0.07615516  1
  N  N58  1  0.56869375  0.56249532  0.82795692  1
  N  N59  1  0.42393871  0.41106362  0.65407602  1
  N  N60  1  0.22716801  0.85942613  0.38998888  1
  N  N61  1  0.11806325  0.76036683  0.14848623  1
  N  N62  1  0.88890107  0.87106264  0.84811273  1
  N  N63  1  0.77724197  0.76044151  0.59818123  1
  N  N64  1  0.56665665  0.86721317  0.34319165  1
  N  N65  1  0.44455698  0.76199309  0.14619296  1
  N  N66  1  0.22370034  0.86923647  0.90043675  1
  N  N67  1  0.11704795  0.75729413  0.65015575  1
  N  N68  1  0.89706490  0.84740781  0.34027247  1
  N  N69  1  0.76352048  0.79247814  0.08440813  1
  N  N70  1  0.55628584  0.88114555  0.84198478  1
  N  N71  1  0.40584405  0.82127968  0.64268487  1
