# generated using pymatgen
data_Gd5Al31N36
_symmetry_space_group_name_H-M   'P 1'
_cell_length_a   9.70658103
_cell_length_b   9.71793560
_cell_length_c   10.23432312
_cell_angle_alpha   89.87801492
_cell_angle_beta   90.04260025
_cell_angle_gamma   60.03906991
_symmetry_Int_Tables_number   1
_chemical_formula_structural   Gd5Al31N36
_chemical_formula_sum   'Gd5 Al31 N36'
_cell_volume   836.37101350
_cell_formula_units_Z   1
loop_
 _symmetry_equiv_pos_site_id
 _symmetry_equiv_pos_as_xyz
  1  'x, y, z'
loop_
 _atom_site_type_symbol
 _atom_site_label
 _atom_site_symmetry_multiplicity
 _atom_site_fract_x
 _atom_site_fract_y
 _atom_site_fract_z
 _atom_site_occupancy
  Al  Al0  1  0.11488623  0.09525290  0.29369905  1
  Al  Al1  1  0.22761151  0.20300759  0.04774083  1
  Al  Al2  1  0.78049475  0.08953678  0.79703739  1
  Al  Al3  1  0.89476118  0.20082728  0.55565047  1
  Al  Al4  1  0.43957275  0.09395677  0.29308513  1
  Al  Al5  1  0.56107993  0.19524230  0.04756737  1
  Al  Al6  1  0.10803859  0.08833927  0.80612765  1
  Al  Al7  1  0.88766803  0.20199916  0.04241828  1
  Al  Al8  1  0.45586379  0.08271075  0.80349123  1
  Al  Al9  1  0.55309030  0.20191265  0.54800184  1
  Al  Al10  1  0.11892159  0.42232996  0.29864896  1
  Al  Al11  1  0.21681218  0.54393209  0.05569366  1
  Al  Al12  1  0.78689459  0.42702767  0.79727218  1
  Al  Al13  1  0.89059597  0.54339567  0.54792613  1
  Al  Al14  1  0.43762914  0.42831020  0.28997625  1
  Al  Al15  1  0.55680052  0.54027305  0.05574913  1
  Al  Al16  1  0.10024233  0.44059685  0.79591771  1
  Al  Al17  1  0.21623060  0.54446936  0.54310089  1
  Al  Al18  1  0.78193185  0.42342691  0.29836681  1
  Al  Al19  1  0.11426601  0.75572218  0.30160009  1
  Al  Al20  1  0.22116550  0.87178418  0.05158587  1
  Al  Al21  1  0.77451705  0.76265366  0.79356401  1
  Al  Al22  1  0.89473168  0.86273829  0.55677258  1
  Al  Al23  1  0.44195410  0.76497951  0.29377527  1
  Al  Al24  1  0.55342680  0.87944343  0.05150618  1
  Al  Al25  1  0.10568583  0.76488515  0.80108039  1
  Al  Al26  1  0.21548518  0.87402943  0.55347650  1
  Al  Al27  1  0.77665241  0.76272453  0.30667661  1
  Al  Al28  1  0.88745545  0.87768049  0.04249452  1
  Al  Al29  1  0.44311165  0.77275884  0.80712764  1
  Al  Al30  1  0.55757698  0.87610481  0.55124949  1
  Gd  Gd31  1  0.22208657  0.20167676  0.56075981  1
  Gd  Gd32  1  0.78301084  0.08943325  0.30677349  1
  Gd  Gd33  1  0.88637863  0.54483995  0.05703821  1
  Gd  Gd34  1  0.43747564  0.42892718  0.81683544  1
  Gd  Gd35  1  0.55412159  0.54505397  0.54985438  1
  N  N36  1  0.22432445  0.20096558  0.34057341  1
  N  N37  1  0.11010611  0.09457109  0.10250495  1
  N  N38  1  0.88641932  0.20704607  0.85578001  1
  N  N39  1  0.77673957  0.09451192  0.59961911  1
  N  N40  1  0.52600873  0.21742701  0.35929034  1
  N  N41  1  0.44393876  0.09409534  0.10523997  1
  N  N42  1  0.22245843  0.20703095  0.84975569  1
  N  N43  1  0.09563815  0.07480272  0.62412522  1
  N  N44  1  0.90939453  0.21703451  0.37019474  1
  N  N45  1  0.78195707  0.09266760  0.08850452  1
  N  N46  1  0.57256584  0.17449065  0.86476927  1
  N  N47  1  0.47652052  0.07805783  0.61997774  1
  N  N48  1  0.22344317  0.53882606  0.35338466  1
  N  N49  1  0.13978409  0.41201939  0.11529414  1
  N  N50  1  0.88587748  0.54339087  0.84049897  1
  N  N51  1  0.80823624  0.41317616  0.61192416  1
  N  N52  1  0.55311605  0.53860806  0.33124693  1
  N  N53  1  0.44335998  0.42659363  0.09382948  1
  N  N54  1  0.18294033  0.55994682  0.87337253  1
  N  N55  1  0.09735853  0.45916796  0.61005913  1
  N  N56  1  0.88878644  0.53834185  0.34980382  1
  N  N57  1  0.76897968  0.40708003  0.11484622  1
  N  N58  1  0.57295539  0.55498711  0.86216513  1
  N  N59  1  0.42843177  0.41497014  0.59857118  1
  N  N60  1  0.22159937  0.87233252  0.35860334  1
  N  N61  1  0.10732985  0.76514385  0.11224900  1
  N  N62  1  0.88770087  0.87155559  0.85123529  1
  N  N63  1  0.77428741  0.76022491  0.60564200  1
  N  N64  1  0.55293615  0.87280499  0.36050557  1
  N  N65  1  0.44388734  0.76564935  0.10666550  1
  N  N66  1  0.22196636  0.86838089  0.86505050  1
  N  N67  1  0.11703419  0.75679665  0.61181565  1
  N  N68  1  0.90836162  0.83806373  0.37389750  1
  N  N69  1  0.76198006  0.79866840  0.12152522  1
  N  N70  1  0.55990342  0.87022365  0.86464818  1
  N  N71  1  0.42611154  0.79766749  0.61940870  1
