# generated using pymatgen
data_Gd5Al31N36
_symmetry_space_group_name_H-M   'P 1'
_cell_length_a   9.70765387
_cell_length_b   9.74474100
_cell_length_c   10.38615431
_cell_angle_alpha   90.58080126
_cell_angle_beta   90.82809657
_cell_angle_gamma   59.97404642
_symmetry_Int_Tables_number   1
_chemical_formula_structural   Gd5Al31N36
_chemical_formula_sum   'Gd5 Al31 N36'
_cell_volume   850.56702418
_cell_formula_units_Z   1
loop_
 _symmetry_equiv_pos_site_id
 _symmetry_equiv_pos_as_xyz
  1  'x, y, z'
loop_
 _atom_site_type_symbol
 _atom_site_label
 _atom_site_symmetry_multiplicity
 _atom_site_fract_x
 _atom_site_fract_y
 _atom_site_fract_z
 _atom_site_occupancy
  Al  Al0  1  0.10623812  0.10216921  0.38436079  1
  Al  Al1  1  0.22758065  0.20192866  0.15427510  1
  Al  Al2  1  0.78783202  0.08017243  0.90096385  1
  Al  Al3  1  0.89227869  0.19753950  0.65807911  1
  Al  Al4  1  0.45032807  0.09230696  0.39444900  1
  Al  Al5  1  0.55419231  0.19874495  0.14421227  1
  Al  Al6  1  0.11004615  0.09849207  0.90954795  1
  Al  Al7  1  0.88628377  0.20785128  0.14018561  1
  Al  Al8  1  0.44734102  0.08197111  0.90760224  1
  Al  Al9  1  0.56343893  0.18563298  0.66361281  1
  Al  Al10  1  0.10702135  0.43240859  0.40337339  1
  Al  Al11  1  0.21293578  0.55035810  0.08233298  1
  Al  Al12  1  0.77829842  0.42900158  0.89241616  1
  Al  Al13  1  0.89250239  0.53957478  0.65181199  1
  Al  Al14  1  0.43140927  0.43437826  0.32327992  1
  Al  Al15  1  0.55597170  0.54296328  0.14945210  1
  Al  Al16  1  0.10861471  0.42335837  0.90548157  1
  Al  Al17  1  0.22259697  0.54213671  0.58429742  1
  Al  Al18  1  0.79223132  0.42605514  0.40238885  1
  Al  Al19  1  0.11758750  0.75263084  0.32285613  1
  Al  Al20  1  0.22109315  0.87005330  0.08929115  1
  Al  Al21  1  0.77478084  0.76818056  0.89261524  1
  Al  Al22  1  0.88541774  0.87143362  0.65815404  1
  Al  Al23  1  0.44404442  0.77346619  0.38639950  1
  Al  Al24  1  0.55497855  0.87822530  0.14833075  1
  Al  Al25  1  0.11746784  0.76207224  0.83245561  1
  Al  Al26  1  0.20810276  0.87200832  0.56402235  1
  Al  Al27  1  0.77891941  0.75913073  0.40782253  1
  Al  Al28  1  0.88097788  0.87670643  0.14513958  1
  Al  Al29  1  0.45188812  0.76397386  0.90048868  1
  Al  Al30  1  0.55843908  0.87366007  0.64667298  1
  Gd  Gd31  1  0.22703764  0.19663984  0.64005162  1
  Gd  Gd32  1  0.78317152  0.09735545  0.40112530  1
  Gd  Gd33  1  0.88112680  0.54358932  0.14498008  1
  Gd  Gd34  1  0.45253681  0.42117869  0.88041496  1
  Gd  Gd35  1  0.54845203  0.54220172  0.61911548  1
  N  N36  1  0.22496810  0.20651045  0.34740557  1
  N  N37  1  0.10951609  0.09949197  0.09635453  1
  N  N38  1  0.89232522  0.20279988  0.84477315  1
  N  N39  1  0.77912469  0.09165545  0.61762773  1
  N  N40  1  0.53361046  0.21387664  0.32573203  1
  N  N41  1  0.44193892  0.09170320  0.09281280  1
  N  N42  1  0.22353287  0.20260267  0.85890629  1
  N  N43  1  0.08177677  0.08805154  0.56819748  1
  N  N44  1  0.89844563  0.22884745  0.31942452  1
  N  N45  1  0.77877512  0.09379007  0.09311017  1
  N  N46  1  0.57552142  0.16042424  0.84856930  1
  N  N47  1  0.48154176  0.07535660  0.57488482  1
  N  N48  1  0.22627154  0.54400631  0.39069379  1
  N  N49  1  0.13366344  0.41027300  0.09318950  1
  N  N50  1  0.89103896  0.53781299  0.84556132  1
  N  N51  1  0.81111965  0.40636432  0.58762494  1
  N  N52  1  0.56009765  0.54143691  0.34535259  1
  N  N53  1  0.43577977  0.43631252  0.12865880  1
  N  N54  1  0.19181861  0.56049594  0.89978021  1
  N  N55  1  0.09638678  0.45055460  0.58664928  1
  N  N56  1  0.88756728  0.54402500  0.35968565  1
  N  N57  1  0.75622671  0.41502192  0.07353422  1
  N  N58  1  0.56949571  0.56027435  0.83422519  1
  N  N59  1  0.42557082  0.40472383  0.64983165  1
  N  N60  1  0.21601853  0.87258285  0.36739703  1
  N  N61  1  0.11195009  0.76170074  0.13867946  1
  N  N62  1  0.89214621  0.86812740  0.84186856  1
  N  N63  1  0.77834291  0.75913969  0.59649845  1
  N  N64  1  0.56154250  0.87240006  0.33325832  1
  N  N65  1  0.45338674  0.75925925  0.09419962  1
  N  N66  1  0.22183692  0.87067759  0.89647428  1
  N  N67  1  0.12022915  0.75791749  0.64162478  1
  N  N68  1  0.89315447  0.84719825  0.33164789  1
  N  N69  1  0.75966362  0.79324802  0.07415217  1
  N  N70  1  0.55135536  0.87348867  0.83461246  1
  N  N71  1  0.42748422  0.80143354  0.57123882  1
