# generated using pymatgen
data_Gd5Al31N36
_symmetry_space_group_name_H-M   'P 1'
_cell_length_a   9.71585876
_cell_length_b   9.75129083
_cell_length_c   10.35216776
_cell_angle_alpha   90.59219647
_cell_angle_beta   90.84550405
_cell_angle_gamma   59.94698031
_symmetry_Int_Tables_number   1
_chemical_formula_structural   Gd5Al31N36
_chemical_formula_sum   'Gd5 Al31 N36'
_cell_volume   848.83476108
_cell_formula_units_Z   1
loop_
 _symmetry_equiv_pos_site_id
 _symmetry_equiv_pos_as_xyz
  1  'x, y, z'
loop_
 _atom_site_type_symbol
 _atom_site_label
 _atom_site_symmetry_multiplicity
 _atom_site_fract_x
 _atom_site_fract_y
 _atom_site_fract_z
 _atom_site_occupancy
  Al  Al0  1  0.10882456  0.09904888  0.38226897  1
  Al  Al1  1  0.22766250  0.20267488  0.15393760  1
  Al  Al2  1  0.78782009  0.08045573  0.90094159  1
  Al  Al3  1  0.89219590  0.19649275  0.65797101  1
  Al  Al4  1  0.45039740  0.09246610  0.39427694  1
  Al  Al5  1  0.55408837  0.19892459  0.14382835  1
  Al  Al6  1  0.11305653  0.09340596  0.90984111  1
  Al  Al7  1  0.88636696  0.20813183  0.13952558  1
  Al  Al8  1  0.44691012  0.08216073  0.90710689  1
  Al  Al9  1  0.56315282  0.18558473  0.66376417  1
  Al  Al10  1  0.10715867  0.43246298  0.40246271  1
  Al  Al11  1  0.21282459  0.55061571  0.08183027  1
  Al  Al12  1  0.77834065  0.42873590  0.89173439  1
  Al  Al13  1  0.89262484  0.53923134  0.65206618  1
  Al  Al14  1  0.43179088  0.43451129  0.32321464  1
  Al  Al15  1  0.55605098  0.54328702  0.14888653  1
  Al  Al16  1  0.10900772  0.42262604  0.90521822  1
  Al  Al17  1  0.22295210  0.54121334  0.58401772  1
  Al  Al18  1  0.79321961  0.42545639  0.40163064  1
  Al  Al19  1  0.11719902  0.75244754  0.32281435  1
  Al  Al20  1  0.22325474  0.87401718  0.12461866  1
  Al  Al21  1  0.77373914  0.76833287  0.89246212  1
  Al  Al22  1  0.88395038  0.87104099  0.65831783  1
  Al  Al23  1  0.44227888  0.77509386  0.38461011  1
  Al  Al24  1  0.55519928  0.87826527  0.14804954  1
  Al  Al25  1  0.11629040  0.76232369  0.83530440  1
  Al  Al26  1  0.20992569  0.87324868  0.59217145  1
  Al  Al27  1  0.77892746  0.75916473  0.40753337  1
  Al  Al28  1  0.88079414  0.87659169  0.14450064  1
  Al  Al29  1  0.44780519  0.76583671  0.90057486  1
  Al  Al30  1  0.55748080  0.87392505  0.64698711  1
  Gd  Gd31  1  0.22567691  0.19715754  0.63927957  1
  Gd  Gd32  1  0.78308924  0.09799352  0.40053809  1
  Gd  Gd33  1  0.88121962  0.54357426  0.14393035  1
  Gd  Gd34  1  0.45267652  0.42195187  0.88041024  1
  Gd  Gd35  1  0.54978617  0.54096305  0.61797363  1
  N  N36  1  0.22511303  0.20687335  0.34797080  1
  N  N37  1  0.10979767  0.09996108  0.09586062  1
  N  N38  1  0.89292672  0.20225448  0.84472174  1
  N  N39  1  0.77876848  0.09115021  0.61755689  1
  N  N40  1  0.53332471  0.21425385  0.32595384  1
  N  N41  1  0.44195098  0.09181304  0.09296015  1
  N  N42  1  0.22346824  0.20259741  0.85850333  1
  N  N43  1  0.08223615  0.08377883  0.56539053  1
  N  N44  1  0.89970218  0.22815166  0.31935751  1
  N  N45  1  0.77865620  0.09403238  0.09352554  1
  N  N46  1  0.57522383  0.16100860  0.84897183  1
  N  N47  1  0.48039428  0.07557243  0.57555062  1
  N  N48  1  0.22666423  0.54462498  0.39074347  1
  N  N49  1  0.13393288  0.41056465  0.09369867  1
  N  N50  1  0.89109654  0.53771235  0.84578442  1
  N  N51  1  0.81279325  0.40462231  0.58748085  1
  N  N52  1  0.56037302  0.54162907  0.34579496  1
  N  N53  1  0.43580164  0.43674729  0.12852193  1
  N  N54  1  0.19218730  0.55939726  0.89898845  1
  N  N55  1  0.09635828  0.45044788  0.58641829  1
  N  N56  1  0.88772346  0.54415540  0.35928213  1
  N  N57  1  0.75604697  0.41512270  0.07335482  1
  N  N58  1  0.56953433  0.56088928  0.83354860  1
  N  N59  1  0.42642127  0.40476532  0.64878081  1
  N  N60  1  0.22172063  0.87639321  0.33643481  1
  N  N61  1  0.10951436  0.76083980  0.13690726  1
  N  N62  1  0.89113531  0.86823011  0.84235071  1
  N  N63  1  0.77701518  0.75861930  0.59655742  1
  N  N64  1  0.56220393  0.87240949  0.33376159  1
  N  N65  1  0.45238952  0.76009735  0.09386184  1
  N  N66  1  0.22325264  0.87243610  0.87997487  1
  N  N67  1  0.11725094  0.75577091  0.64128342  1
  N  N68  1  0.89356158  0.84765361  0.33264373  1
  N  N69  1  0.75917189  0.79346999  0.07439169  1
  N  N70  1  0.55102185  0.87328920  0.83458553  1
  N  N71  1  0.42391331  0.80238831  0.56947872  1
