# generated using pymatgen
data_Gd5Al31N36
_symmetry_space_group_name_H-M   'P 1'
_cell_length_a   9.75062246
_cell_length_b   9.74832767
_cell_length_c   10.33491210
_cell_angle_alpha   90.18718648
_cell_angle_beta   90.40917956
_cell_angle_gamma   59.95323648
_symmetry_Int_Tables_number   1
_chemical_formula_structural   Gd5Al31N36
_chemical_formula_sum   'Gd5 Al31 N36'
_cell_volume   850.32301731
_cell_formula_units_Z   1
loop_
 _symmetry_equiv_pos_site_id
 _symmetry_equiv_pos_as_xyz
  1  'x, y, z'
loop_
 _atom_site_type_symbol
 _atom_site_label
 _atom_site_symmetry_multiplicity
 _atom_site_fract_x
 _atom_site_fract_y
 _atom_site_fract_z
 _atom_site_occupancy
  Al  Al0  1  0.10594807  0.09607330  0.38761946  1
  Al  Al1  1  0.23379301  0.19313196  0.15703416  1
  Al  Al2  1  0.78713787  0.08248495  0.90173777  1
  Al  Al3  1  0.89175288  0.19872674  0.65831040  1
  Al  Al4  1  0.45542848  0.08584037  0.39507618  1
  Al  Al5  1  0.55383027  0.19848559  0.14188557  1
  Al  Al6  1  0.10954877  0.10410478  0.90649385  1
  Al  Al7  1  0.88733392  0.20616651  0.14027279  1
  Al  Al8  1  0.44269386  0.08711655  0.90498975  1
  Al  Al9  1  0.56270575  0.18717369  0.66541910  1
  Al  Al10  1  0.12131249  0.42636658  0.33955815  1
  Al  Al11  1  0.21320042  0.54634296  0.08789848  1
  Al  Al12  1  0.77256182  0.43010766  0.89194719  1
  Al  Al13  1  0.87930513  0.54731514  0.65334494  1
  Al  Al14  1  0.43129533  0.43207380  0.32446750  1
  Al  Al15  1  0.55619267  0.54255038  0.15079924  1
  Al  Al16  1  0.10482557  0.43947055  0.83547114  1
  Al  Al17  1  0.21603862  0.54108480  0.58686537  1
  Al  Al18  1  0.79934722  0.42361884  0.39912559  1
  Al  Al19  1  0.11791937  0.75189672  0.32586288  1
  Al  Al20  1  0.22296142  0.86856579  0.08516020  1
  Al  Al21  1  0.76898999  0.77529019  0.89391794  1
  Al  Al22  1  0.88595973  0.87208191  0.65704748  1
  Al  Al23  1  0.44425316  0.77174417  0.38449153  1
  Al  Al24  1  0.55581297  0.87643297  0.14834015  1
  Al  Al25  1  0.11434027  0.76300478  0.83452896  1
  Al  Al26  1  0.20975691  0.86991662  0.56766261  1
  Al  Al27  1  0.78389659  0.75344773  0.40345186  1
  Al  Al28  1  0.88332970  0.87610342  0.14675988  1
  Al  Al29  1  0.44951583  0.76627931  0.89007474  1
  Al  Al30  1  0.55942223  0.87422744  0.64404357  1
  Gd  Gd31  1  0.22606699  0.19808747  0.62599913  1
  Gd  Gd32  1  0.77911561  0.09838635  0.40083580  1
  Gd  Gd33  1  0.88763574  0.53903075  0.12451657  1
  Gd  Gd34  1  0.44776629  0.42537737  0.88042027  1
  Gd  Gd35  1  0.54727208  0.53839096  0.61097060  1
  N  N36  1  0.23125330  0.19231225  0.35577241  1
  N  N37  1  0.11054185  0.10059158  0.09435864  1
  N  N38  1  0.89120397  0.20503613  0.84511332  1
  N  N39  1  0.77773702  0.09454811  0.61852440  1
  N  N40  1  0.53144865  0.21215498  0.32398764  1
  N  N41  1  0.44230139  0.09030126  0.09090392  1
  N  N42  1  0.22142901  0.20867846  0.85371799  1
  N  N43  1  0.08136400  0.08564928  0.57184662  1
  N  N44  1  0.90142865  0.22388471  0.32032095  1
  N  N45  1  0.78003243  0.09303001  0.09411457  1
  N  N46  1  0.57488221  0.16432328  0.85182412  1
  N  N47  1  0.48530791  0.07559263  0.57534176  1
  N  N48  1  0.22487345  0.54024862  0.39676458  1
  N  N49  1  0.14775934  0.41254123  0.15582369  1
  N  N50  1  0.87789723  0.54621622  0.85376278  1
  N  N51  1  0.81224953  0.40777299  0.58557745  1
  N  N52  1  0.56129163  0.53727141  0.34809382  1
  N  N53  1  0.43720458  0.43679165  0.12829896  1
  N  N54  1  0.18508133  0.56019583  0.90765558  1
  N  N55  1  0.09443186  0.46061023  0.64941671  1
  N  N56  1  0.89444831  0.53972530  0.35177769  1
  N  N57  1  0.75472531  0.41330857  0.07444038  1
  N  N58  1  0.56680011  0.56068548  0.82920311  1
  N  N59  1  0.42194990  0.40528599  0.65004860  1
  N  N60  1  0.21720962  0.86733812  0.37391173  1
  N  N61  1  0.11449834  0.76126551  0.14021507  1
  N  N62  1  0.88992355  0.87040398  0.84197994  1
  N  N63  1  0.77810988  0.76071096  0.59290910  1
  N  N64  1  0.56495710  0.86838862  0.33389017  1
  N  N65  1  0.45181804  0.75995700  0.09844540  1
  N  N66  1  0.22110689  0.87205404  0.89380207  1
  N  N67  1  0.11986996  0.75765971  0.64340821  1
  N  N68  1  0.89503106  0.84767260  0.33359319  1
  N  N69  1  0.75965772  0.79598046  0.07650172  1
  N  N70  1  0.54968677  0.87785584  0.83283393  1
  N  N71  1  0.42856842  0.80064332  0.57367750  1
