# generated using pymatgen
data_Gd5Al31N36
_symmetry_space_group_name_H-M   'P 1'
_cell_length_a   9.71557704
_cell_length_b   9.74940197
_cell_length_c   10.35146037
_cell_angle_alpha   90.60413130
_cell_angle_beta   90.86549262
_cell_angle_gamma   59.92653342
_symmetry_Int_Tables_number   1
_chemical_formula_structural   Gd5Al31N36
_chemical_formula_sum   'Gd5 Al31 N36'
_cell_volume   848.40795327
_cell_formula_units_Z   1
loop_
 _symmetry_equiv_pos_site_id
 _symmetry_equiv_pos_as_xyz
  1  'x, y, z'
loop_
 _atom_site_type_symbol
 _atom_site_label
 _atom_site_symmetry_multiplicity
 _atom_site_fract_x
 _atom_site_fract_y
 _atom_site_fract_z
 _atom_site_occupancy
  Al  Al0  1  0.11013394  0.09674302  0.38457266  1
  Al  Al1  1  0.22759703  0.20222909  0.15359041  1
  Al  Al2  1  0.78762570  0.08070389  0.90091510  1
  Al  Al3  1  0.89241439  0.19625196  0.65766891  1
  Al  Al4  1  0.45034866  0.09239999  0.39410291  1
  Al  Al5  1  0.55406798  0.19893758  0.14381853  1
  Al  Al6  1  0.11368978  0.09267836  0.90791331  1
  Al  Al7  1  0.88685056  0.20758887  0.13917653  1
  Al  Al8  1  0.44696158  0.08231129  0.90699786  1
  Al  Al9  1  0.56306427  0.18566171  0.66364797  1
  Al  Al10  1  0.10722277  0.43221197  0.40215794  1
  Al  Al11  1  0.21288648  0.55080806  0.08216790  1
  Al  Al12  1  0.77843770  0.42869394  0.89161111  1
  Al  Al13  1  0.89265167  0.53917472  0.65185451  1
  Al  Al14  1  0.43190869  0.43453292  0.32307999  1
  Al  Al15  1  0.55537851  0.54391859  0.14833612  1
  Al  Al16  1  0.10906970  0.42256923  0.90537524  1
  Al  Al17  1  0.22254160  0.54166043  0.58355191  1
  Al  Al18  1  0.79364375  0.42509737  0.40123594  1
  Al  Al19  1  0.11714083  0.75274006  0.32383510  1
  Al  Al20  1  0.22405229  0.87554360  0.13757201  1
  Al  Al21  1  0.77348376  0.76839454  0.89249368  1
  Al  Al22  1  0.88371255  0.87079735  0.65794824  1
  Al  Al23  1  0.44044723  0.77626073  0.38654314  1
  Al  Al24  1  0.55459579  0.87823397  0.14763013  1
  Al  Al25  1  0.11490856  0.76091994  0.83429090  1
  Al  Al26  1  0.21240427  0.87570720  0.61929984  1
  Al  Al27  1  0.77873682  0.75909948  0.40739100  1
  Al  Al28  1  0.88084687  0.87660096  0.14430748  1
  Al  Al29  1  0.44722159  0.76647403  0.89848212  1
  Al  Al30  1  0.55737673  0.87388843  0.64681941  1
  Gd  Gd31  1  0.22574577  0.19780197  0.63910770  1
  Gd  Gd32  1  0.78321919  0.09798371  0.40054977  1
  Gd  Gd33  1  0.88127653  0.54356702  0.14391883  1
  Gd  Gd34  1  0.45284502  0.42198033  0.88023133  1
  Gd  Gd35  1  0.55003611  0.54048337  0.61727543  1
  N  N36  1  0.22495849  0.20639000  0.34794401  1
  N  N37  1  0.11086787  0.09746339  0.09338556  1
  N  N38  1  0.89277094  0.20234979  0.84459428  1
  N  N39  1  0.77858068  0.09120361  0.61749863  1
  N  N40  1  0.53336604  0.21419483  0.32591442  1
  N  N41  1  0.44191533  0.09185752  0.09288550  1
  N  N42  1  0.22360648  0.20298178  0.85838196  1
  N  N43  1  0.08398033  0.08099760  0.56678415  1
  N  N44  1  0.90114615  0.22711743  0.31926716  1
  N  N45  1  0.77848224  0.09414496  0.09348064  1
  N  N46  1  0.57513361  0.16120082  0.84891613  1
  N  N47  1  0.48047360  0.07556521  0.57533679  1
  N  N48  1  0.22673787  0.54458618  0.39040949  1
  N  N49  1  0.13397089  0.41041065  0.09382358  1
  N  N50  1  0.89122233  0.53770385  0.84570930  1
  N  N51  1  0.81320191  0.40419148  0.58706348  1
  N  N52  1  0.56010053  0.54213426  0.34567328  1
  N  N53  1  0.43584780  0.43673003  0.12848168  1
  N  N54  1  0.19242674  0.55930580  0.89956900  1
  N  N55  1  0.09624573  0.45044221  0.58595414  1
  N  N56  1  0.88775558  0.54410775  0.35907784  1
  N  N57  1  0.75596221  0.41523108  0.07339897  1
  N  N58  1  0.56976891  0.56075696  0.83311475  1
  N  N59  1  0.42611333  0.40495093  0.64871667  1
  N  N60  1  0.22324820  0.87730273  0.32979020  1
  N  N61  1  0.10953182  0.76159730  0.13619370  1
  N  N62  1  0.89053728  0.86852490  0.84262891  1
  N  N63  1  0.77669119  0.75849739  0.59635581  1
  N  N64  1  0.56177682  0.87197942  0.33363044  1
  N  N65  1  0.44925142  0.76155302  0.09123634  1
  N  N66  1  0.22451244  0.87511637  0.85760457  1
  N  N67  1  0.11531888  0.75452976  0.64116486  1
  N  N68  1  0.89361542  0.84763289  0.33252773  1
  N  N69  1  0.75884636  0.79345093  0.07447873  1
  N  N70  1  0.55137982  0.87347547  0.83444338  1
  N  N71  1  0.42249575  0.80280982  0.57064517  1
