# generated using pymatgen
data_Gd5Al31N36
_symmetry_space_group_name_H-M   'P 1'
_cell_length_a   9.74866707
_cell_length_b   9.72556342
_cell_length_c   10.44651884
_cell_angle_alpha   89.79742643
_cell_angle_beta   90.34796989
_cell_angle_gamma   60.23940142
_symmetry_Int_Tables_number   1
_chemical_formula_structural   Gd5Al31N36
_chemical_formula_sum   'Gd5 Al31 N36'
_cell_volume   859.77436238
_cell_formula_units_Z   1
loop_
 _symmetry_equiv_pos_site_id
 _symmetry_equiv_pos_as_xyz
  1  'x, y, z'
loop_
 _atom_site_type_symbol
 _atom_site_label
 _atom_site_symmetry_multiplicity
 _atom_site_fract_x
 _atom_site_fract_y
 _atom_site_fract_z
 _atom_site_occupancy
  Al  Al0  1  0.12693140  0.09103454  0.29487198  1
  Al  Al1  1  0.22488754  0.20450036  0.05152567  1
  Al  Al2  1  0.77754882  0.09469323  0.87678565  1
  Al  Al3  1  0.88653425  0.19871790  0.63396466  1
  Al  Al4  1  0.44941084  0.08877500  0.37003242  1
  Al  Al5  1  0.54902051  0.20452471  0.11462217  1
  Al  Al6  1  0.10876436  0.08758866  0.81537942  1
  Al  Al7  1  0.88655825  0.21014545  0.11662735  1
  Al  Al8  1  0.45547222  0.07766208  0.87540968  1
  Al  Al9  1  0.57049067  0.18121864  0.63059677  1
  Al  Al10  1  0.12787457  0.41749272  0.30497711  1
  Al  Al11  1  0.21442088  0.54834996  0.06350679  1
  Al  Al12  1  0.77406840  0.42682626  0.87303188  1
  Al  Al13  1  0.89064339  0.54319189  0.59432971  1
  Al  Al14  1  0.43613147  0.43709678  0.29219328  1
  Al  Al15  1  0.54686912  0.55153635  0.05233217  1
  Al  Al16  1  0.09606803  0.44063536  0.81079036  1
  Al  Al17  1  0.21916494  0.54047228  0.55477022  1
  Al  Al18  1  0.80036882  0.42359500  0.36532245  1
  Al  Al19  1  0.11360355  0.75698468  0.31040498  1
  Al  Al20  1  0.22213345  0.87158417  0.05696065  1
  Al  Al21  1  0.77933193  0.76453211  0.80826716  1
  Al  Al22  1  0.89875241  0.85872566  0.56190806  1
  Al  Al23  1  0.44229858  0.75620843  0.30299297  1
  Al  Al24  1  0.54740345  0.88754582  0.12981189  1
  Al  Al25  1  0.10098578  0.76703346  0.80922166  1
  Al  Al26  1  0.21317195  0.87440333  0.55673157  1
  Al  Al27  1  0.78388518  0.76164485  0.30990900  1
  Al  Al28  1  0.89111098  0.87728524  0.05859237  1
  Al  Al29  1  0.43085738  0.77428426  0.80565863  1
  Al  Al30  1  0.55693011  0.87779958  0.62477422  1
  Gd  Gd31  1  0.22073862  0.20461896  0.57855803  1
  Gd  Gd32  1  0.77262724  0.10443662  0.36095725  1
  Gd  Gd33  1  0.89357598  0.54644608  0.07923385  1
  Gd  Gd34  1  0.42897447  0.42452215  0.83430745  1
  Gd  Gd35  1  0.55294335  0.53583934  0.56686593  1
  N  N36  1  0.22423067  0.20101745  0.35921626  1
  N  N37  1  0.12110230  0.09014024  0.10504450  1
  N  N38  1  0.87596295  0.21218308  0.81964597  1
  N  N39  1  0.78348049  0.09085623  0.57968833  1
  N  N40  1  0.52249052  0.21622541  0.29316124  1
  N  N41  1  0.44835880  0.09046711  0.05588439  1
  N  N42  1  0.21553852  0.21066448  0.85687739  1
  N  N43  1  0.10227139  0.07026587  0.63377807  1
  N  N44  1  0.90568025  0.22089169  0.29699438  1
  N  N45  1  0.77382459  0.10391386  0.06816878  1
  N  N46  1  0.57539021  0.16321721  0.81379179  1
  N  N47  1  0.48567881  0.07203764  0.55002116  1
  N  N48  1  0.22828319  0.53834202  0.36576344  1
  N  N49  1  0.15231544  0.40500397  0.12416166  1
  N  N50  1  0.87859940  0.54187594  0.84363478  1
  N  N51  1  0.82084546  0.40119080  0.55504513  1
  N  N52  1  0.56185740  0.53186275  0.34585664  1
  N  N53  1  0.43784877  0.44035724  0.09544734  1
  N  N54  1  0.17428755  0.56350809  0.88532510  1
  N  N55  1  0.09963715  0.46034857  0.62919512  1
  N  N56  1  0.89968269  0.53987103  0.32857097  1
  N  N57  1  0.76496862  0.41509887  0.05523353  1
  N  N58  1  0.55271618  0.56279036  0.85826368  1
  N  N59  1  0.42852514  0.40410606  0.61445557  1
  N  N60  1  0.22153541  0.87210648  0.36572453  1
  N  N61  1  0.10762322  0.76671517  0.12376733  1
  N  N62  1  0.89025600  0.86983300  0.87091557  1
  N  N63  1  0.78128899  0.76063097  0.62025487  1
  N  N64  1  0.55199011  0.87347027  0.31677766  1
  N  N65  1  0.43992436  0.76368625  0.11467044  1
  N  N66  1  0.21751182  0.87019063  0.87314411  1
  N  N67  1  0.11730584  0.75534176  0.62084275  1
  N  N68  1  0.90914820  0.84035010  0.37943447  1
  N  N69  1  0.76636998  0.80168743  0.12627212  1
  N  N70  1  0.55368597  0.87393344  0.81494780  1
  N  N71  1  0.42149763  0.79156592  0.61953048  1
