# generated using pymatgen
data_Gd5Al31N36
_symmetry_space_group_name_H-M   'P 1'
_cell_length_a   9.71572009
_cell_length_b   9.75050364
_cell_length_c   10.35237885
_cell_angle_alpha   90.59726404
_cell_angle_beta   90.85459004
_cell_angle_gamma   59.93708988
_symmetry_Int_Tables_number   1
_chemical_formula_structural   Gd5Al31N36
_chemical_formula_sum   'Gd5 Al31 N36'
_cell_volume   848.68462550
_cell_formula_units_Z   1
loop_
 _symmetry_equiv_pos_site_id
 _symmetry_equiv_pos_as_xyz
  1  'x, y, z'
loop_
 _atom_site_type_symbol
 _atom_site_label
 _atom_site_symmetry_multiplicity
 _atom_site_fract_x
 _atom_site_fract_y
 _atom_site_fract_z
 _atom_site_occupancy
  Al  Al0  1  0.10950068  0.09792940  0.38312641  1
  Al  Al1  1  0.22762665  0.20250748  0.15373655  1
  Al  Al2  1  0.78775418  0.08055988  0.90092827  1
  Al  Al3  1  0.89224158  0.19638427  0.65786408  1
  Al  Al4  1  0.45036749  0.09245022  0.39419628  1
  Al  Al5  1  0.55407911  0.19893112  0.14382184  1
  Al  Al6  1  0.11348997  0.09281006  0.90904178  1
  Al  Al7  1  0.88659086  0.20789568  0.13934227  1
  Al  Al8  1  0.44691880  0.08221978  0.90704706  1
  Al  Al9  1  0.56311253  0.18561039  0.66373784  1
  Al  Al10  1  0.10718479  0.43233996  0.40231727  1
  Al  Al11  1  0.21283905  0.55074063  0.08192472  1
  Al  Al12  1  0.77839537  0.42870173  0.89167496  1
  Al  Al13  1  0.89264385  0.53919433  0.65200623  1
  Al  Al14  1  0.43185409  0.43452136  0.32313622  1
  Al  Al15  1  0.55575094  0.54358376  0.14860718  1
  Al  Al16  1  0.10905000  0.42258088  0.90528798  1
  Al  Al17  1  0.22281403  0.54130974  0.58378150  1
  Al  Al18  1  0.79341390  0.42529366  0.40143873  1
  Al  Al19  1  0.11713947  0.75252701  0.32324886  1
  Al  Al20  1  0.22373462  0.87490751  0.13251980  1
  Al  Al21  1  0.77360968  0.76835670  0.89247642  1
  Al  Al22  1  0.88374833  0.87092756  0.65819182  1
  Al  Al23  1  0.44139893  0.77564889  0.38532039  1
  Al  Al24  1  0.55494247  0.87824210  0.14784297  1
  Al  Al25  1  0.11569945  0.76176236  0.83495600  1
  Al  Al26  1  0.21104214  0.87444139  0.60544710  1
  Al  Al27  1  0.77884471  0.75913628  0.40746318  1
  Al  Al28  1  0.88082810  0.87659153  0.14437909  1
  Al  Al29  1  0.44734223  0.76620814  0.89968737  1
  Al  Al30  1  0.55741575  0.87393839  0.64695440  1
  Gd  Gd31  1  0.22566355  0.19745007  0.63925516  1
  Gd  Gd32  1  0.78314510  0.09800586  0.40053543  1
  Gd  Gd33  1  0.88125033  0.54356930  0.14391719  1
  Gd  Gd34  1  0.45275810  0.42198874  0.88035514  1
  Gd  Gd35  1  0.54996178  0.54070149  0.61770280  1
  N  N36  1  0.22504589  0.20668335  0.34795319  1
  N  N37  1  0.11029446  0.09883004  0.09475335  1
  N  N38  1  0.89286401  0.20230049  0.84464921  1
  N  N39  1  0.77868591  0.09114781  0.61751949  1
  N  N40  1  0.53334100  0.21423263  0.32594388  1
  N  N41  1  0.44194694  0.09183385  0.09292794  1
  N  N42  1  0.22352910  0.20279262  0.85845604  1
  N  N43  1  0.08293522  0.08247210  0.56572173  1
  N  N44  1  0.90035153  0.22768869  0.31930371  1
  N  N45  1  0.77857047  0.09409076  0.09350848  1
  N  N46  1  0.57518182  0.16110113  0.84894245  1
  N  N47  1  0.48036981  0.07558849  0.57547732  1
  N  N48  1  0.22671774  0.54462186  0.39062157  1
  N  N49  1  0.13394532  0.41052473  0.09375757  1
  N  N50  1  0.89115842  0.53770339  0.84574344  1
  N  N51  1  0.81302123  0.40437550  0.58728733  1
  N  N52  1  0.56025154  0.54186429  0.34574486  1
  N  N53  1  0.43582086  0.43674468  0.12851040  1
  N  N54  1  0.19229759  0.55933006  0.89920124  1
  N  N55  1  0.09631848  0.45040199  0.58620920  1
  N  N56  1  0.88774212  0.54413781  0.35919479  1
  N  N57  1  0.75601306  0.41517463  0.07336951  1
  N  N58  1  0.56966214  0.56083086  0.83334121  1
  N  N59  1  0.42632896  0.40484703  0.64872578  1
  N  N60  1  0.22264885  0.87696064  0.33189803  1
  N  N61  1  0.10946777  0.76116312  0.13651959  1
  N  N62  1  0.89085073  0.86834985  0.84245988  1
  N  N63  1  0.77681833  0.75854589  0.59645700  1
  N  N64  1  0.56204148  0.87222422  0.33371406  1
  N  N65  1  0.45092140  0.76078798  0.09269851  1
  N  N66  1  0.22390821  0.87369981  0.86920827  1
  N  N67  1  0.11619860  0.75504934  0.64113922  1
  N  N68  1  0.89359710  0.84766111  0.33261120  1
  N  N69  1  0.75903053  0.79345696  0.07443051  1
  N  N70  1  0.55119969  0.87334085  0.83450875  1
  N  N71  1  0.42315671  0.80261161  0.56977326  1
