# generated using pymatgen
data_Gd5Al31N36
_symmetry_space_group_name_H-M   'P 1'
_cell_length_a   9.73171807
_cell_length_b   9.74437691
_cell_length_c   10.35471174
_cell_angle_alpha   90.50594281
_cell_angle_beta   90.58463209
_cell_angle_gamma   60.00476683
_symmetry_Int_Tables_number   1
_chemical_formula_structural   Gd5Al31N36
_chemical_formula_sum   'Gd5 Al31 N36'
_cell_volume   850.36712279
_cell_formula_units_Z   1
loop_
 _symmetry_equiv_pos_site_id
 _symmetry_equiv_pos_as_xyz
  1  'x, y, z'
loop_
 _atom_site_type_symbol
 _atom_site_label
 _atom_site_symmetry_multiplicity
 _atom_site_fract_x
 _atom_site_fract_y
 _atom_site_fract_z
 _atom_site_occupancy
  Al  Al0  1  0.10558240  0.09933925  0.38748322  1
  Al  Al1  1  0.22948107  0.19982910  0.15874720  1
  Al  Al2  1  0.78798924  0.08152897  0.90148275  1
  Al  Al3  1  0.89161278  0.19832945  0.65825561  1
  Al  Al4  1  0.45310143  0.08899005  0.39430169  1
  Al  Al5  1  0.55436042  0.19859404  0.14257232  1
  Al  Al6  1  0.10945187  0.10168722  0.90828620  1
  Al  Al7  1  0.88770865  0.20739786  0.14038812  1
  Al  Al8  1  0.44603166  0.08422168  0.90728073  1
  Al  Al9  1  0.56400900  0.18572604  0.66456608  1
  Al  Al10  1  0.10912757  0.43044570  0.39505869  1
  Al  Al11  1  0.21298919  0.54956658  0.08699488  1
  Al  Al12  1  0.77672351  0.42962591  0.89219005  1
  Al  Al13  1  0.89050572  0.53951708  0.64671067  1
  Al  Al14  1  0.43180609  0.43397155  0.32191346  1
  Al  Al15  1  0.55678539  0.54333006  0.14832178  1
  Al  Al16  1  0.10524033  0.42831398  0.89408817  1
  Al  Al17  1  0.22112108  0.54086547  0.58247519  1
  Al  Al18  1  0.79167095  0.42512228  0.40123726  1
  Al  Al19  1  0.11785008  0.75290480  0.32355687  1
  Al  Al20  1  0.22139945  0.87057554  0.08540582  1
  Al  Al21  1  0.77318350  0.77101661  0.89199526  1
  Al  Al22  1  0.88609483  0.87141962  0.65736822  1
  Al  Al23  1  0.44401516  0.77281291  0.38717638  1
  Al  Al24  1  0.55547536  0.87778461  0.14700739  1
  Al  Al25  1  0.11608720  0.76298729  0.83305138  1
  Al  Al26  1  0.20870660  0.87073906  0.56606450  1
  Al  Al27  1  0.77945496  0.75789386  0.40658328  1
  Al  Al28  1  0.88252092  0.87665779  0.14480284  1
  Al  Al29  1  0.45201668  0.76448991  0.89878814  1
  Al  Al30  1  0.55997151  0.87297180  0.64628697  1
  Gd  Gd31  1  0.22970755  0.19509962  0.63489676  1
  Gd  Gd32  1  0.78053478  0.09731987  0.40047375  1
  Gd  Gd33  1  0.88150256  0.54438505  0.14344595  1
  Gd  Gd34  1  0.44924888  0.42287167  0.88106132  1
  Gd  Gd35  1  0.54604407  0.54142999  0.61802899  1
  N  N36  1  0.22814046  0.19935953  0.35243424  1
  N  N37  1  0.11068181  0.10021323  0.09562144  1
  N  N38  1  0.89218374  0.20406347  0.84503573  1
  N  N39  1  0.77915692  0.09234490  0.61786856  1
  N  N40  1  0.53231129  0.21362844  0.32438814  1
  N  N41  1  0.44154923  0.09154705  0.09243478  1
  N  N42  1  0.22229377  0.20745372  0.85702051  1
  N  N43  1  0.08220604  0.08685888  0.57166741  1
  N  N44  1  0.89962341  0.22617737  0.32055426  1
  N  N45  1  0.77980736  0.09389184  0.09360181  1
  N  N46  1  0.57586231  0.16198606  0.85041033  1
  N  N47  1  0.48612257  0.07352993  0.57445390  1
  N  N48  1  0.22731273  0.54352489  0.39013562  1
  N  N49  1  0.13707293  0.41255557  0.11538042  1
  N  N50  1  0.88753035  0.54044174  0.84345707  1
  N  N51  1  0.80797897  0.40683858  0.58670707  1
  N  N52  1  0.55994777  0.54080031  0.34518395  1
  N  N53  1  0.43746010  0.43666421  0.12734162  1
  N  N54  1  0.18803019  0.56224612  0.90395800  1
  N  N55  1  0.09536670  0.44934330  0.58447713  1
  N  N56  1  0.88712011  0.54281053  0.35916982  1
  N  N57  1  0.75754564  0.41450607  0.07392470  1
  N  N58  1  0.56834929  0.55974898  0.83417764  1
  N  N59  1  0.42255665  0.40430952  0.65094003  1
  N  N60  1  0.21620635  0.87019265  0.37248167  1
  N  N61  1  0.11337782  0.76333900  0.13895924  1
  N  N62  1  0.89157624  0.86964031  0.84158508  1
  N  N63  1  0.77892727  0.75934105  0.59537704  1
  N  N64  1  0.56266256  0.87013051  0.33247231  1
  N  N65  1  0.45327507  0.75975161  0.09258912  1
  N  N66  1  0.22155830  0.87218474  0.89429895  1
  N  N67  1  0.12077817  0.75586152  0.64250392  1
  N  N68  1  0.89388097  0.84635030  0.33163196  1
  N  N69  1  0.76004776  0.79494777  0.07363948  1
  N  N70  1  0.55064012  0.87536523  0.83428197  1
  N  N71  1  0.42812695  0.80143544  0.57287051  1
