# generated using pymatgen
data_Gd5Al31N36
_symmetry_space_group_name_H-M   'P 1'
_cell_length_a   9.73941133
_cell_length_b   9.75948921
_cell_length_c   10.19685395
_cell_angle_alpha   89.84796433
_cell_angle_beta   89.69207507
_cell_angle_gamma   60.02671182
_symmetry_Int_Tables_number   1
_chemical_formula_structural   Gd5Al31N36
_chemical_formula_sum   'Gd5 Al31 N36'
_cell_volume   839.58986760
_cell_formula_units_Z   1
loop_
 _symmetry_equiv_pos_site_id
 _symmetry_equiv_pos_as_xyz
  1  'x, y, z'
loop_
 _atom_site_type_symbol
 _atom_site_label
 _atom_site_symmetry_multiplicity
 _atom_site_fract_x
 _atom_site_fract_y
 _atom_site_fract_z
 _atom_site_occupancy
  Al  Al0  1  0.11299568  0.09696279  0.30407133  1
  Al  Al1  1  0.22377093  0.20420832  0.05488167  1
  Al  Al2  1  0.78745255  0.08688285  0.81777531  1
  Al  Al3  1  0.89850035  0.20061888  0.56584228  1
  Al  Al4  1  0.43606632  0.09432999  0.29373529  1
  Al  Al5  1  0.55646927  0.19990566  0.07634745  1
  Al  Al6  1  0.10970900  0.08792045  0.81509746  1
  Al  Al7  1  0.88728255  0.20306162  0.05401583  1
  Al  Al8  1  0.45466634  0.08008921  0.82099029  1
  Al  Al9  1  0.56426916  0.19320161  0.60922874  1
  Al  Al10  1  0.12112628  0.42205682  0.30866969  1
  Al  Al11  1  0.21094511  0.54946584  0.06437690  1
  Al  Al12  1  0.78818728  0.42707657  0.80704685  1
  Al  Al13  1  0.89071358  0.54227314  0.55596882  1
  Al  Al14  1  0.43409413  0.43597066  0.29055291  1
  Al  Al15  1  0.55700983  0.54535910  0.06346108  1
  Al  Al16  1  0.09961075  0.44099222  0.80407827  1
  Al  Al17  1  0.21839404  0.54142272  0.55395094  1
  Al  Al18  1  0.78052795  0.42509455  0.30797355  1
  Al  Al19  1  0.11256057  0.75752344  0.31254917  1
  Al  Al20  1  0.22015767  0.87306215  0.06168099  1
  Al  Al21  1  0.77544878  0.76135116  0.80334099  1
  Al  Al22  1  0.89784541  0.85843596  0.56690878  1
  Al  Al23  1  0.44090080  0.76654906  0.30444623  1
  Al  Al24  1  0.55317827  0.87687628  0.05929197  1
  Al  Al25  1  0.10598171  0.76456955  0.81062174  1
  Al  Al26  1  0.21725007  0.87287223  0.56193326  1
  Al  Al27  1  0.77562418  0.76376915  0.31606147  1
  Al  Al28  1  0.88614327  0.87856320  0.05431217  1
  Al  Al29  1  0.44454956  0.77123399  0.81425108  1
  Al  Al30  1  0.55964935  0.87175387  0.55946216  1
  Gd  Gd31  1  0.22768708  0.20058173  0.57036503  1
  Gd  Gd32  1  0.77959649  0.09184242  0.32077936  1
  Gd  Gd33  1  0.88763329  0.54490218  0.06791302  1
  Gd  Gd34  1  0.43642653  0.43219384  0.83946907  1
  Gd  Gd35  1  0.55397067  0.53778284  0.56082403  1
  N  N36  1  0.22378948  0.20112889  0.34992901  1
  N  N37  1  0.10826614  0.09586014  0.11231280  1
  N  N38  1  0.88935031  0.20730397  0.86660714  1
  N  N39  1  0.78562373  0.08924689  0.61451984  1
  N  N40  1  0.52330350  0.22203402  0.31688247  1
  N  N41  1  0.43834710  0.09092230  0.10437745  1
  N  N42  1  0.22077377  0.20793337  0.85803513  1
  N  N43  1  0.09964092  0.07443861  0.63201865  1
  N  N44  1  0.90723476  0.21987443  0.37986109  1
  N  N45  1  0.78214586  0.09326004  0.09716590  1
  N  N46  1  0.57352177  0.17512963  0.86848629  1
  N  N47  1  0.47838515  0.06926206  0.63472545  1
  N  N48  1  0.22411877  0.54059260  0.36378539  1
  N  N49  1  0.14100777  0.41228049  0.12456445  1
  N  N50  1  0.88633677  0.54284624  0.85033881  1
  N  N51  1  0.80799918  0.41282807  0.62119815  1
  N  N52  1  0.55132889  0.54118394  0.34105893  1
  N  N53  1  0.43714357  0.43898670  0.09410065  1
  N  N54  1  0.17848111  0.56177154  0.88188899  1
  N  N55  1  0.09681968  0.45820404  0.61756445  1
  N  N56  1  0.88834902  0.53911011  0.35789232  1
  N  N57  1  0.76727834  0.40941219  0.12363231  1
  N  N58  1  0.57508104  0.55611090  0.86972632  1
  N  N59  1  0.42835948  0.40738021  0.61525538  1
  N  N60  1  0.21982762  0.87413794  0.36754255  1
  N  N61  1  0.10493539  0.76762625  0.12256740  1
  N  N62  1  0.88916320  0.86946146  0.86278094  1
  N  N63  1  0.77566447  0.75840527  0.61479841  1
  N  N64  1  0.55137875  0.87539764  0.36853867  1
  N  N65  1  0.44232950  0.76707037  0.11643627  1
  N  N66  1  0.22291921  0.86780653  0.87378712  1
  N  N67  1  0.11960179  0.75476404  0.62094068  1
  N  N68  1  0.90683305  0.83794059  0.38369261  1
  N  N69  1  0.76023154  0.79909641  0.13039012  1
  N  N70  1  0.56148258  0.86641739  0.87317059  1
  N  N71  1  0.42878274  0.79174221  0.62566873  1
