# generated using pymatgen
data_Gd5Al31N36
_symmetry_space_group_name_H-M   'P 1'
_cell_length_a   9.74900959
_cell_length_b   9.72635379
_cell_length_c   10.43347620
_cell_angle_alpha   89.79857690
_cell_angle_beta   90.33257572
_cell_angle_gamma   60.20589664
_symmetry_Int_Tables_number   1
_chemical_formula_structural   Gd5Al31N36
_chemical_formula_sum   'Gd5 Al31 N36'
_cell_volume   858.51604196
_cell_formula_units_Z   1
loop_
 _symmetry_equiv_pos_site_id
 _symmetry_equiv_pos_as_xyz
  1  'x, y, z'
loop_
 _atom_site_type_symbol
 _atom_site_label
 _atom_site_symmetry_multiplicity
 _atom_site_fract_x
 _atom_site_fract_y
 _atom_site_fract_z
 _atom_site_occupancy
  Al  Al0  1  0.12718801  0.09135044  0.29499628  1
  Al  Al1  1  0.22426406  0.20529645  0.05101007  1
  Al  Al2  1  0.77780167  0.09394611  0.87622908  1
  Al  Al3  1  0.88648075  0.19987818  0.63403491  1
  Al  Al4  1  0.44923995  0.08911088  0.37071781  1
  Al  Al5  1  0.54918992  0.20422372  0.11447989  1
  Al  Al6  1  0.10855232  0.08765672  0.81568809  1
  Al  Al7  1  0.88660671  0.20931864  0.11573313  1
  Al  Al8  1  0.45616609  0.07681915  0.87496510  1
  Al  Al9  1  0.57084416  0.18110410  0.63099345  1
  Al  Al10  1  0.13002810  0.41682810  0.30778025  1
  Al  Al11  1  0.21316413  0.54841244  0.06335457  1
  Al  Al12  1  0.77428556  0.42743169  0.87338916  1
  Al  Al13  1  0.89586945  0.54569085  0.55708336  1
  Al  Al14  1  0.43598530  0.43722717  0.29216626  1
  Al  Al15  1  0.54601037  0.55168164  0.05223365  1
  Al  Al16  1  0.09120724  0.44390393  0.80753934  1
  Al  Al17  1  0.21975899  0.54048336  0.55555909  1
  Al  Al18  1  0.79689369  0.42153268  0.36566252  1
  Al  Al19  1  0.11371422  0.75751315  0.31038812  1
  Al  Al20  1  0.22215546  0.87158619  0.05692979  1
  Al  Al21  1  0.78186260  0.75969644  0.80561087  1
  Al  Al22  1  0.89869754  0.85939979  0.56319761  1
  Al  Al23  1  0.44176371  0.75645332  0.30348199  1
  Al  Al24  1  0.54733529  0.88733154  0.13021734  1
  Al  Al25  1  0.10115355  0.76683628  0.80941263  1
  Al  Al26  1  0.21324418  0.87456938  0.55695258  1
  Al  Al27  1  0.78258621  0.76441682  0.31190534  1
  Al  Al28  1  0.89098197  0.87637912  0.05832804  1
  Al  Al29  1  0.43124547  0.77454119  0.80540319  1
  Al  Al30  1  0.55874729  0.87644830  0.62386929  1
  Gd  Gd31  1  0.22212090  0.20368905  0.58132547  1
  Gd  Gd32  1  0.77267057  0.10516981  0.36176182  1
  Gd  Gd33  1  0.89260399  0.54620383  0.07742862  1
  Gd  Gd34  1  0.42865592  0.42417765  0.83490488  1
  Gd  Gd35  1  0.55418338  0.53556005  0.56905041  1
  N  N36  1  0.22415987  0.20096623  0.36071078  1
  N  N37  1  0.12127213  0.09027764  0.10477604  1
  N  N38  1  0.87595340  0.21247333  0.82044746  1
  N  N39  1  0.78384437  0.09089140  0.58056714  1
  N  N40  1  0.52255770  0.21618432  0.29327680  1
  N  N41  1  0.44814731  0.09034820  0.05590757  1
  N  N42  1  0.21521175  0.21146526  0.85592565  1
  N  N43  1  0.10206537  0.07023283  0.63402563  1
  N  N44  1  0.90586548  0.22132707  0.29580415  1
  N  N45  1  0.77386295  0.10295913  0.06811615  1
  N  N46  1  0.57535630  0.16319901  0.81413799  1
  N  N47  1  0.48681679  0.07162608  0.55017149  1
  N  N48  1  0.22856960  0.53892213  0.36607319  1
  N  N49  1  0.14998102  0.40593485  0.12683676  1
  N  N50  1  0.87923920  0.54293433  0.85420727  1
  N  N51  1  0.82037559  0.39998526  0.55371826  1
  N  N52  1  0.56132334  0.53209053  0.34593419  1
  N  N53  1  0.43686062  0.44035337  0.09530411  1
  N  N54  1  0.17388880  0.56287759  0.88456724  1
  N  N55  1  0.09628847  0.46190108  0.62545514  1
  N  N56  1  0.89982701  0.54252422  0.35050887  1
  N  N57  1  0.76365860  0.41513260  0.05696790  1
  N  N58  1  0.55272644  0.56267020  0.85794911  1
  N  N59  1  0.42873674  0.40391020  0.61487240  1
  N  N60  1  0.22125611  0.87255733  0.36557532  1
  N  N61  1  0.10751161  0.76671628  0.12360449  1
  N  N62  1  0.88993406  0.86904678  0.87027956  1
  N  N63  1  0.78324767  0.75676026  0.61746045  1
  N  N64  1  0.55139414  0.87371320  0.31739742  1
  N  N65  1  0.43990761  0.76367872  0.11492174  1
  N  N66  1  0.21781589  0.87004666  0.87321125  1
  N  N67  1  0.11776107  0.75543666  0.62109478  1
  N  N68  1  0.90941481  0.84154747  0.37986189  1
  N  N69  1  0.76737453  0.80003078  0.12903027  1
  N  N70  1  0.55524671  0.87297796  0.81420421  1
  N  N71  1  0.42155510  0.79213218  0.61904605  1
