# generated using pymatgen
data_Gd5Al31N36
_symmetry_space_group_name_H-M   'P 1'
_cell_length_a   9.73816683
_cell_length_b   9.72424685
_cell_length_c   10.41812142
_cell_angle_alpha   89.97565719
_cell_angle_beta   90.40615136
_cell_angle_gamma   59.84629502
_symmetry_Int_Tables_number   1
_chemical_formula_structural   Gd5Al31N36
_chemical_formula_sum   'Gd5 Al31 N36'
_cell_volume   853.02737931
_cell_formula_units_Z   1
loop_
 _symmetry_equiv_pos_site_id
 _symmetry_equiv_pos_as_xyz
  1  'x, y, z'
loop_
 _atom_site_type_symbol
 _atom_site_label
 _atom_site_symmetry_multiplicity
 _atom_site_fract_x
 _atom_site_fract_y
 _atom_site_fract_z
 _atom_site_occupancy
  Al  Al0  1  0.10755350  0.09401785  0.40173369  1
  Al  Al1  1  0.23525060  0.19119452  0.17106332  1
  Al  Al2  1  0.78632464  0.08377195  0.91513483  1
  Al  Al3  1  0.88669522  0.20216418  0.67197931  1
  Al  Al4  1  0.45585470  0.08478311  0.40963690  1
  Al  Al5  1  0.55553658  0.19738155  0.15550605  1
  Al  Al6  1  0.10892111  0.10454073  0.92164303  1
  Al  Al7  1  0.88869836  0.20362392  0.15309393  1
  Al  Al8  1  0.44469468  0.08799091  0.92060263  1
  Al  Al9  1  0.56084893  0.19182836  0.67953453  1
  Al  Al10  1  0.12282552  0.42389737  0.35346402  1
  Al  Al11  1  0.21416571  0.54526786  0.10151165  1
  Al  Al12  1  0.77104859  0.43281504  0.90338207  1
  Al  Al13  1  0.87903591  0.54622202  0.66839756  1
  Al  Al14  1  0.43230818  0.42858813  0.33793375  1
  Al  Al15  1  0.55937355  0.53470084  0.16232440  1
  Al  Al16  1  0.10627452  0.43782318  0.84909140  1
  Al  Al17  1  0.21532438  0.53982689  0.60101329  1
  Al  Al18  1  0.80084368  0.42144446  0.41313140  1
  Al  Al19  1  0.12082892  0.75001906  0.34227209  1
  Al  Al20  1  0.22850196  0.86418797  0.09459528  1
  Al  Al21  1  0.77056147  0.77367695  0.91087287  1
  Al  Al22  1  0.88448101  0.87244144  0.67278137  1
  Al  Al23  1  0.44102005  0.76556754  0.34171968  1
  Al  Al24  1  0.55980250  0.87731199  0.16344886  1
  Al  Al25  1  0.11260709  0.76262352  0.84900841  1
  Al  Al26  1  0.20659580  0.87274783  0.58660129  1
  Al  Al27  1  0.78454980  0.75251720  0.41843495  1
  Al  Al28  1  0.88616488  0.87481612  0.16283200  1
  Al  Al29  1  0.43263008  0.78181865  0.83532345  1
  Al  Al30  1  0.56199553  0.88235198  0.66265409  1
  Gd  Gd31  1  0.22625895  0.19006373  0.64372651  1
  Gd  Gd32  1  0.78054780  0.09832032  0.41724273  1
  Gd  Gd33  1  0.88926006  0.53510939  0.13999953  1
  Gd  Gd34  1  0.44833149  0.43143763  0.89094600  1
  Gd  Gd35  1  0.53907319  0.55101207  0.61423075  1
  N  N36  1  0.23275268  0.18920535  0.36798832  1
  N  N37  1  0.11214178  0.09849241  0.10729272  1
  N  N38  1  0.89161065  0.20554890  0.85758039  1
  N  N39  1  0.77579252  0.09472524  0.63337619  1
  N  N40  1  0.53396612  0.20868287  0.33649431  1
  N  N41  1  0.44397495  0.08946756  0.10488955  1
  N  N42  1  0.22276229  0.20661484  0.86883756  1
  N  N43  1  0.07303091  0.08916894  0.58112009  1
  N  N44  1  0.90324040  0.22217592  0.33155975  1
  N  N45  1  0.78119194  0.09135568  0.10654950  1
  N  N46  1  0.57314841  0.16952976  0.86526522  1
  N  N47  1  0.48328728  0.08059712  0.58815215  1
  N  N48  1  0.22637758  0.53723990  0.41167566  1
  N  N49  1  0.14933785  0.41135947  0.17098314  1
  N  N50  1  0.87953313  0.54572825  0.86729689  1
  N  N51  1  0.80674557  0.41149588  0.59841467  1
  N  N52  1  0.56483346  0.53004061  0.36154693  1
  N  N53  1  0.43806412  0.43433184  0.14134556  1
  N  N54  1  0.18459844  0.55983989  0.92268645  1
  N  N55  1  0.09621204  0.45598469  0.66392538  1
  N  N56  1  0.89541836  0.53845750  0.36561601  1
  N  N57  1  0.75502388  0.41172701  0.08470117  1
  N  N58  1  0.56866414  0.56250525  0.83650181  1
  N  N59  1  0.42391764  0.41107007  0.66259134  1
  N  N60  1  0.22713333  0.85947476  0.39852494  1
  N  N61  1  0.11802693  0.76041048  0.15701766  1
  N  N62  1  0.88888368  0.87109273  0.85664158  1
  N  N63  1  0.77723117  0.76046418  0.60671605  1
  N  N64  1  0.56662722  0.86725451  0.35172477  1
  N  N65  1  0.44452237  0.76203659  0.15472791  1
  N  N66  1  0.22368155  0.86926480  0.90895988  1
  N  N67  1  0.11703455  0.75732089  0.65868222  1
  N  N68  1  0.89703396  0.84744851  0.34880619  1
  N  N69  1  0.76347958  0.79253292  0.09293798  1
  N  N70  1  0.55626563  0.88116310  0.85051344  1
  N  N71  1  0.40585613  0.82126618  0.65120738  1
