# generated using pymatgen
data_Gd5Al31N36
_symmetry_space_group_name_H-M   'P 1'
_cell_length_a   9.75404807
_cell_length_b   9.72645649
_cell_length_c   10.43238741
_cell_angle_alpha   89.87866905
_cell_angle_beta   90.40290605
_cell_angle_gamma   59.80603022
_symmetry_Int_Tables_number   1
_chemical_formula_structural   Gd5Al31N36
_chemical_formula_sum   'Gd5 Al31 N36'
_cell_volume   855.42446366
_cell_formula_units_Z   1
loop_
 _symmetry_equiv_pos_site_id
 _symmetry_equiv_pos_as_xyz
  1  'x, y, z'
loop_
 _atom_site_type_symbol
 _atom_site_label
 _atom_site_symmetry_multiplicity
 _atom_site_fract_x
 _atom_site_fract_y
 _atom_site_fract_z
 _atom_site_occupancy
  Al  Al0  1  0.10910391  0.09805884  0.39423045  1
  Al  Al1  1  0.22711663  0.20567950  0.08688233  1
  Al  Al2  1  0.78688864  0.08318908  0.90374465  1
  Al  Al3  1  0.88569584  0.20202695  0.65923614  1
  Al  Al4  1  0.45150054  0.08890950  0.40130479  1
  Al  Al5  1  0.55485666  0.19848506  0.14533688  1
  Al  Al6  1  0.10299569  0.09847686  0.90479531  1
  Al  Al7  1  0.88909200  0.20401187  0.14183716  1
  Al  Al8  1  0.45728109  0.08176484  0.90561773  1
  Al  Al9  1  0.56308746  0.19143954  0.66601464  1
  Al  Al10  1  0.12792374  0.41357890  0.34006373  1
  Al  Al11  1  0.21341821  0.54626512  0.09055773  1
  Al  Al12  1  0.77039250  0.43342038  0.89263843  1
  Al  Al13  1  0.88122377  0.54412250  0.65677147  1
  Al  Al14  1  0.43141553  0.42913669  0.32705758  1
  Al  Al15  1  0.55815151  0.53551126  0.15116885  1
  Al  Al16  1  0.10416784  0.44113302  0.84014724  1
  Al  Al17  1  0.21533575  0.53726300  0.58801791  1
  Al  Al18  1  0.80245170  0.42145377  0.40150488  1
  Al  Al19  1  0.12020034  0.75052394  0.33094018  1
  Al  Al20  1  0.22792649  0.86414000  0.08231859  1
  Al  Al21  1  0.77246938  0.77170733  0.89975917  1
  Al  Al22  1  0.88469927  0.87202244  0.65980691  1
  Al  Al23  1  0.43926836  0.76778862  0.33003927  1
  Al  Al24  1  0.55741591  0.88034968  0.15296234  1
  Al  Al25  1  0.11276302  0.76089794  0.83554456  1
  Al  Al26  1  0.20685750  0.87107391  0.57521476  1
  Al  Al27  1  0.78444937  0.75292548  0.40644400  1
  Al  Al28  1  0.88532239  0.87549641  0.15136370  1
  Al  Al29  1  0.43370954  0.78002922  0.82234722  1
  Al  Al30  1  0.56481429  0.87927309  0.65007725  1
  Gd  Gd31  1  0.22829687  0.18830050  0.62882784  1
  Gd  Gd32  1  0.78088448  0.09887883  0.40389832  1
  Gd  Gd33  1  0.88517812  0.53765410  0.13290148  1
  Gd  Gd34  1  0.44807237  0.43127977  0.87821481  1
  Gd  Gd35  1  0.53984102  0.55041180  0.60121588  1
  N  N36  1  0.22819021  0.19940214  0.39305223  1
  N  N37  1  0.10832499  0.09748176  0.08927877  1
  N  N38  1  0.88864111  0.20647413  0.84414236  1
  N  N39  1  0.77683472  0.09393730  0.61923550  1
  N  N40  1  0.53304218  0.20901042  0.32543772  1
  N  N41  1  0.44889934  0.08914619  0.08804505  1
  N  N42  1  0.22134317  0.21072741  0.88241641  1
  N  N43  1  0.07374792  0.08625288  0.57483930  1
  N  N44  1  0.90582283  0.22214432  0.32001379  1
  N  N45  1  0.78051673  0.09249311  0.09508794  1
  N  N46  1  0.57609501  0.16979810  0.85051539  1
  N  N47  1  0.48774165  0.07746085  0.58004372  1
  N  N48  1  0.22470832  0.53672251  0.39783588  1
  N  N49  1  0.14857252  0.40758944  0.15484492  1
  N  N50  1  0.87886226  0.54565039  0.85642063  1
  N  N51  1  0.80754253  0.41118824  0.58625195  1
  N  N52  1  0.56450684  0.53072906  0.34968477  1
  N  N53  1  0.43706799  0.43501462  0.13000795  1
  N  N54  1  0.18501664  0.56041998  0.91206631  1
  N  N55  1  0.09867377  0.45323695  0.65797681  1
  N  N56  1  0.89672264  0.53862906  0.35386893  1
  N  N57  1  0.75406305  0.41259227  0.07346261  1
  N  N58  1  0.56889572  0.56122640  0.82431564  1
  N  N59  1  0.42454866  0.41078022  0.64933933  1
  N  N60  1  0.22592355  0.86133102  0.38733359  1
  N  N61  1  0.11717527  0.76119142  0.14547376  1
  N  N62  1  0.88918363  0.87073063  0.84422778  1
  N  N63  1  0.77963370  0.75789071  0.59447642  1
  N  N64  1  0.56425866  0.87011031  0.34048989  1
  N  N65  1  0.44344491  0.76340905  0.14287355  1
  N  N66  1  0.22448270  0.86669581  0.89505280  1
  N  N67  1  0.11737389  0.75473787  0.64608751  1
  N  N68  1  0.89635703  0.84813783  0.33668664  1
  N  N69  1  0.76204994  0.79396103  0.08139918  1
  N  N70  1  0.55873851  0.87777646  0.83726598  1
  N  N71  1  0.40675660  0.82028638  0.63913737  1
