# generated using pymatgen
data_Gd5Al31N36
_symmetry_space_group_name_H-M   'P 1'
_cell_length_a   9.71462950
_cell_length_b   9.75037847
_cell_length_c   10.35841992
_cell_angle_alpha   90.58369269
_cell_angle_beta   90.83001540
_cell_angle_gamma   59.96494308
_symmetry_Int_Tables_number   1
_chemical_formula_structural   Gd5Al31N36
_chemical_formula_sum   'Gd5 Al31 N36'
_cell_volume   849.31787295
_cell_formula_units_Z   1
loop_
 _symmetry_equiv_pos_site_id
 _symmetry_equiv_pos_as_xyz
  1  'x, y, z'
loop_
 _atom_site_type_symbol
 _atom_site_label
 _atom_site_symmetry_multiplicity
 _atom_site_fract_x
 _atom_site_fract_y
 _atom_site_fract_z
 _atom_site_occupancy
  Al  Al0  1  0.10736978  0.10087571  0.38281340  1
  Al  Al1  1  0.22774842  0.20245420  0.15436277  1
  Al  Al2  1  0.78776094  0.08035240  0.90096334  1
  Al  Al3  1  0.89232987  0.19681693  0.65799292  1
  Al  Al4  1  0.45046628  0.09238037  0.39442567  1
  Al  Al5  1  0.55412387  0.19889357  0.14390932  1
  Al  Al6  1  0.11135575  0.09630603  0.90999308  1
  Al  Al7  1  0.88619526  0.20817423  0.13988936  1
  Al  Al8  1  0.44702335  0.08214201  0.90730343  1
  Al  Al9  1  0.56321801  0.18560646  0.66366238  1
  Al  Al10  1  0.10712985  0.43258559  0.40276804  1
  Al  Al11  1  0.21291409  0.55036563  0.08213824  1
  Al  Al12  1  0.77823022  0.42888301  0.89193301  1
  Al  Al13  1  0.89256056  0.53936357  0.65190668  1
  Al  Al14  1  0.43161659  0.43446564  0.32335779  1
  Al  Al15  1  0.55621606  0.54296414  0.14934617  1
  Al  Al16  1  0.10882277  0.42294124  0.90522398  1
  Al  Al17  1  0.22279124  0.54168441  0.58431772  1
  Al  Al18  1  0.79288832  0.42569993  0.40199990  1
  Al  Al19  1  0.11753714  0.75269576  0.32269708  1
  Al  Al20  1  0.22192149  0.87160318  0.10112019  1
  Al  Al21  1  0.77410904  0.76833112  0.89248338  1
  Al  Al22  1  0.88476091  0.87118270  0.65822551  1
  Al  Al23  1  0.44358913  0.77412136  0.38514329  1
  Al  Al24  1  0.55524858  0.87835626  0.14832768  1
  Al  Al25  1  0.11686584  0.76245099  0.83427976  1
  Al  Al26  1  0.20866626  0.87185638  0.57128590  1
  Al  Al27  1  0.77901785  0.75915116  0.40767871  1
  Al  Al28  1  0.88083106  0.87667180  0.14488959  1
  Al  Al29  1  0.45005822  0.76472763  0.90088782  1
  Al  Al30  1  0.55780986  0.87371685  0.64681285  1
  Gd  Gd31  1  0.22608582  0.19675526  0.63926245  1
  Gd  Gd32  1  0.78311459  0.09776292  0.40070739  1
  Gd  Gd33  1  0.88115117  0.54359798  0.14416791  1
  Gd  Gd34  1  0.45249948  0.42170121  0.88031064  1
  Gd  Gd35  1  0.54916785  0.54157868  0.61823762  1
  N  N36  1  0.22515614  0.20674835  0.34787496  1
  N  N37  1  0.10951201  0.10035929  0.09680863  1
  N  N38  1  0.89278120  0.20235822  0.84487573  1
  N  N39  1  0.77886623  0.09134860  0.61766247  1
  N  N40  1  0.53340025  0.21416086  0.32587842  1
  N  N41  1  0.44191016  0.09179263  0.09294237  1
  N  N42  1  0.22341469  0.20244053  0.85861997  1
  N  N43  1  0.08165173  0.08621532  0.56678541  1
  N  N44  1  0.89895485  0.22865178  0.31940100  1
  N  N45  1  0.77878628  0.09391353  0.09344124  1
  N  N46  1  0.57529644  0.16083863  0.84896207  1
  N  N47  1  0.48086905  0.07543383  0.57540839  1
  N  N48  1  0.22645208  0.54439750  0.39064960  1
  N  N49  1  0.13389432  0.41044113  0.09360297  1
  N  N50  1  0.89100444  0.53776828  0.84581719  1
  N  N51  1  0.81207024  0.40540267  0.58768584  1
  N  N52  1  0.56043939  0.54134974  0.34569062  1
  N  N53  1  0.43580277  0.43663672  0.12851158  1
  N  N54  1  0.19194566  0.55987087  0.89922980  1
  N  N55  1  0.09635123  0.45060871  0.58660102  1
  N  N56  1  0.88767181  0.54412071  0.35938072  1
  N  N57  1  0.75610401  0.41505936  0.07340341  1
  N  N58  1  0.56937646  0.56075262  0.83390620  1
  N  N59  1  0.42613000  0.40469372  0.64912132  1
  N  N60  1  0.21855718  0.87415788  0.35547694  1
  N  N61  1  0.11065442  0.76119975  0.13785820  1
  N  N62  1  0.89160971  0.86818628  0.84223860  1
  N  N63  1  0.77763871  0.75884405  0.59666763  1
  N  N64  1  0.56207234  0.87251163  0.33361143  1
  N  N65  1  0.45361308  0.75941306  0.09477795  1
  N  N66  1  0.22214896  0.87094230  0.89425236  1
  N  N67  1  0.11919825  0.75722615  0.64169403  1
  N  N68  1  0.89346679  0.84744442  0.33232407  1
  N  N69  1  0.75939514  0.79346749  0.07432833  1
  N  N70  1  0.55091893  0.87344662  0.83474633  1
  N  N71  1  0.42607518  0.80171833  0.57049046  1
