# generated using pymatgen
data_Gd5Al31N36
_symmetry_space_group_name_H-M   'P 1'
_cell_length_a   9.72286108
_cell_length_b   9.76669650
_cell_length_c   10.22001338
_cell_angle_alpha   90.55431411
_cell_angle_beta   90.72606525
_cell_angle_gamma   60.00076442
_symmetry_Int_Tables_number   1
_chemical_formula_structural   Gd5Al31N36
_chemical_formula_sum   'Gd5 Al31 N36'
_cell_volume   840.40594201
_cell_formula_units_Z   1
loop_
 _symmetry_equiv_pos_site_id
 _symmetry_equiv_pos_as_xyz
  1  'x, y, z'
loop_
 _atom_site_type_symbol
 _atom_site_label
 _atom_site_symmetry_multiplicity
 _atom_site_fract_x
 _atom_site_fract_y
 _atom_site_fract_z
 _atom_site_occupancy
  Al  Al0  1  0.11064206  0.09317051  0.39044959  1
  Al  Al1  1  0.22711234  0.20058544  0.15286119  1
  Al  Al2  1  0.78655080  0.08260970  0.89954168  1
  Al  Al3  1  0.89384593  0.19696463  0.65688463  1
  Al  Al4  1  0.45084524  0.09100976  0.39164305  1
  Al  Al5  1  0.55544077  0.19717178  0.14057952  1
  Al  Al6  1  0.11353986  0.09328233  0.90332420  1
  Al  Al7  1  0.88854623  0.20693737  0.13820269  1
  Al  Al8  1  0.44633053  0.08252643  0.90556552  1
  Al  Al9  1  0.56595220  0.18375819  0.66274753  1
  Al  Al10  1  0.10966822  0.43558966  0.39879865  1
  Al  Al11  1  0.21453314  0.54763929  0.11446726  1
  Al  Al12  1  0.77706256  0.42953269  0.89058507  1
  Al  Al13  1  0.89072502  0.54024951  0.65069522  1
  Al  Al14  1  0.43266334  0.43326967  0.32202853  1
  Al  Al15  1  0.55499843  0.54585665  0.14720517  1
  Al  Al16  1  0.11026206  0.42237451  0.90259521  1
  Al  Al17  1  0.21409056  0.54275741  0.63335204  1
  Al  Al18  1  0.79547380  0.42382804  0.39961670  1
  Al  Al19  1  0.11446895  0.75654562  0.39412160  1
  Al  Al20  1  0.22045316  0.87502070  0.14558165  1
  Al  Al21  1  0.77319547  0.76970537  0.89047071  1
  Al  Al22  1  0.89263714  0.86858449  0.65443832  1
  Al  Al23  1  0.43711458  0.77782756  0.39015006  1
  Al  Al24  1  0.55366036  0.87776134  0.14522964  1
  Al  Al25  1  0.10474964  0.77027921  0.89945290  1
  Al  Al26  1  0.21422751  0.87613274  0.64454200  1
  Al  Al27  1  0.77960836  0.75830462  0.40520948  1
  Al  Al28  1  0.88729899  0.87498845  0.14530980  1
  Al  Al29  1  0.44616255  0.76649064  0.89395421  1
  Al  Al30  1  0.55958331  0.87279784  0.64528894  1
  Gd  Gd31  1  0.22938265  0.19872033  0.63406105  1
  Gd  Gd32  1  0.78016051  0.09863138  0.39702199  1
  Gd  Gd33  1  0.88188731  0.54494902  0.14020962  1
  Gd  Gd34  1  0.45140441  0.42320716  0.88384446  1
  Gd  Gd35  1  0.54889670  0.53884026  0.61243186  1
  N  N36  1  0.22460818  0.20389203  0.34979144  1
  N  N37  1  0.11295773  0.09385485  0.09091237  1
  N  N38  1  0.89185107  0.20349828  0.84551854  1
  N  N39  1  0.78093264  0.09130580  0.61659511  1
  N  N40  1  0.53190774  0.21417933  0.32386929  1
  N  N41  1  0.44119018  0.09151723  0.09254924  1
  N  N42  1  0.22405910  0.20190094  0.85553419  1
  N  N43  1  0.08992308  0.07856639  0.57501464  1
  N  N44  1  0.90378573  0.22419674  0.32090731  1
  N  N45  1  0.77963156  0.09381577  0.09446936  1
  N  N46  1  0.57471563  0.16206670  0.84971925  1
  N  N47  1  0.48509705  0.07318127  0.57374805  1
  N  N48  1  0.21740409  0.54295239  0.34610294  1
  N  N49  1  0.13582993  0.40939551  0.09008083  1
  N  N50  1  0.88994137  0.53831769  0.84656556  1
  N  N51  1  0.81316252  0.40465959  0.58688720  1
  N  N52  1  0.55852510  0.54251910  0.34670108  1
  N  N53  1  0.44090366  0.43455505  0.12357871  1
  N  N54  1  0.19170377  0.55557241  0.87142124  1
  N  N55  1  0.09528912  0.45399031  0.58500244  1
  N  N56  1  0.88785332  0.54353459  0.35749368  1
  N  N57  1  0.75679526  0.41590413  0.07488215  1
  N  N58  1  0.56875836  0.56053288  0.83186358  1
  N  N59  1  0.42757642  0.40160802  0.64456602  1
  N  N60  1  0.21899921  0.87316140  0.33231454  1
  N  N61  1  0.10565407  0.77214588  0.08870177  1
  N  N62  1  0.89324250  0.86917902  0.84001456  1
  N  N63  1  0.77909131  0.75893151  0.59622069  1
  N  N64  1  0.56097979  0.87020830  0.33306318  1
  N  N65  1  0.44396048  0.76383133  0.08852901  1
  N  N66  1  0.22116331  0.87419506  0.83809883  1
  N  N67  1  0.11267240  0.76016983  0.58823967  1
  N  N68  1  0.90015616  0.84516563  0.33205801  1
  N  N69  1  0.75962239  0.79588046  0.07472185  1
  N  N70  1  0.55139821  0.87390257  0.83442269  1
  N  N71  1  0.42187849  0.80294162  0.57595031  1
