# generated using pymatgen
data_Gd5Al31N36
_symmetry_space_group_name_H-M   'P 1'
_cell_length_a   9.75527861
_cell_length_b   9.75328432
_cell_length_c   10.33851990
_cell_angle_alpha   90.12839026
_cell_angle_beta   90.39719992
_cell_angle_gamma   59.91999169
_symmetry_Int_Tables_number   1
_chemical_formula_structural   Gd5Al31N36
_chemical_formula_sum   'Gd5 Al31 N36'
_cell_volume   851.17328363
_cell_formula_units_Z   1
loop_
 _symmetry_equiv_pos_site_id
 _symmetry_equiv_pos_as_xyz
  1  'x, y, z'
loop_
 _atom_site_type_symbol
 _atom_site_label
 _atom_site_symmetry_multiplicity
 _atom_site_fract_x
 _atom_site_fract_y
 _atom_site_fract_z
 _atom_site_occupancy
  Al  Al0  1  0.10630716  0.09560703  0.38848853  1
  Al  Al1  1  0.23375572  0.19282018  0.15714923  1
  Al  Al2  1  0.78692066  0.08287842  0.90185089  1
  Al  Al3  1  0.89106485  0.19949314  0.65843889  1
  Al  Al4  1  0.45547248  0.08612300  0.39555514  1
  Al  Al5  1  0.55396284  0.19827445  0.14154659  1
  Al  Al6  1  0.10953520  0.10463970  0.90722188  1
  Al  Al7  1  0.88788518  0.20540391  0.14006783  1
  Al  Al8  1  0.44326162  0.08724973  0.90572100  1
  Al  Al9  1  0.56243005  0.18847739  0.66580654  1
  Al  Al10  1  0.12134335  0.42607278  0.33966417  1
  Al  Al11  1  0.21323568  0.54639506  0.08800873  1
  Al  Al12  1  0.77207195  0.43086814  0.89148554  1
  Al  Al13  1  0.87935062  0.54716720  0.65375263  1
  Al  Al14  1  0.43117702  0.43043078  0.32476017  1
  Al  Al15  1  0.55740312  0.53876423  0.15115374  1
  Al  Al16  1  0.10508125  0.43914559  0.83544815  1
  Al  Al17  1  0.21554760  0.54117592  0.58732098  1
  Al  Al18  1  0.80099492  0.42220090  0.39962331  1
  Al  Al19  1  0.11825397  0.75184126  0.32660449  1
  Al  Al20  1  0.22764038  0.86588832  0.08457001  1
  Al  Al21  1  0.76896274  0.77502929  0.89476162  1
  Al  Al22  1  0.88622945  0.87235966  0.65749697  1
  Al  Al23  1  0.44170052  0.76785472  0.34497022  1
  Al  Al24  1  0.55684740  0.87762332  0.15052371  1
  Al  Al25  1  0.11371824  0.76242012  0.83495527  1
  Al  Al26  1  0.21045292  0.87014472  0.56925713  1
  Al  Al27  1  0.78445591  0.75338923  0.40425968  1
  Al  Al28  1  0.88389155  0.87597309  0.14707052  1
  Al  Al29  1  0.43867903  0.77434429  0.83579321  1
  Al  Al30  1  0.56173039  0.87767779  0.64300367  1
  Gd  Gd31  1  0.22636508  0.19623934  0.62672316  1
  Gd  Gd32  1  0.77905059  0.09850876  0.40112907  1
  Gd  Gd33  1  0.88783745  0.53856152  0.12459668  1
  Gd  Gd34  1  0.44775684  0.42696647  0.87918634  1
  Gd  Gd35  1  0.54545284  0.53967970  0.60345408  1
  N  N36  1  0.23143227  0.19171146  0.35561444  1
  N  N37  1  0.11116272  0.09948165  0.09407864  1
  N  N38  1  0.89169751  0.20484158  0.84537769  1
  N  N39  1  0.77742660  0.09487530  0.61891412  1
  N  N40  1  0.53173633  0.21134845  0.32349406  1
  N  N41  1  0.44242113  0.08991042  0.09130270  1
  N  N42  1  0.22188924  0.20810703  0.85417344  1
  N  N43  1  0.07976197  0.08644698  0.57131718  1
  N  N44  1  0.90234012  0.22301875  0.31993476  1
  N  N45  1  0.78008775  0.09289996  0.09418002  1
  N  N46  1  0.57459959  0.16558756  0.85239449  1
  N  N47  1  0.48486976  0.07803719  0.57488519  1
  N  N48  1  0.22489841  0.53987732  0.39692888  1
  N  N49  1  0.14792907  0.41234401  0.15597054  1
  N  N50  1  0.87817666  0.54620080  0.85412533  1
  N  N51  1  0.81202463  0.40844441  0.58588904  1
  N  N52  1  0.56386964  0.53143394  0.35067325  1
  N  N53  1  0.43716064  0.43611113  0.12814154  1
  N  N54  1  0.18484417  0.56006668  0.90795261  1
  N  N55  1  0.09477991  0.45967475  0.64955909  1
  N  N56  1  0.89439265  0.53969476  0.35175184  1
  N  N57  1  0.75462927  0.41332070  0.07407329  1
  N  N58  1  0.56815054  0.55913525  0.82733753  1
  N  N59  1  0.42192841  0.40644524  0.64997790  1
  N  N60  1  0.21994630  0.86502972  0.37905231  1
  N  N61  1  0.11512092  0.76168449  0.14046005  1
  N  N62  1  0.88985817  0.87066906  0.84274894  1
  N  N63  1  0.77910998  0.76061571  0.59310410  1
  N  N64  1  0.56687582  0.86928112  0.33839920  1
  N  N65  1  0.44447968  0.76286538  0.13953713  1
  N  N66  1  0.22491692  0.86982028  0.89432153  1
  N  N67  1  0.11900223  0.75787735  0.64399732  1
  N  N68  1  0.89569859  0.84770491  0.33393375  1
  N  N69  1  0.75959446  0.79563725  0.07743965  1
  N  N70  1  0.55286468  0.88021349  0.83304127  1
  N  N71  1  0.42084412  0.80508216  0.60875594  1
