# generated using pymatgen
data_Gd5Al31N36
_symmetry_space_group_name_H-M   'P 1'
_cell_length_a   9.73689757
_cell_length_b   9.73861699
_cell_length_c   10.35738340
_cell_angle_alpha   90.34459267
_cell_angle_beta   90.43973567
_cell_angle_gamma   60.04168236
_symmetry_Int_Tables_number   1
_chemical_formula_structural   Gd5Al31N36
_chemical_formula_sum   'Gd5 Al31 N36'
_cell_volume   850.87676146
_cell_formula_units_Z   1
loop_
 _symmetry_equiv_pos_site_id
 _symmetry_equiv_pos_as_xyz
  1  'x, y, z'
loop_
 _atom_site_type_symbol
 _atom_site_label
 _atom_site_symmetry_multiplicity
 _atom_site_fract_x
 _atom_site_fract_y
 _atom_site_fract_z
 _atom_site_occupancy
  Al  Al0  1  0.10515065  0.09748623  0.38764978  1
  Al  Al1  1  0.23324875  0.19478390  0.15810119  1
  Al  Al2  1  0.78790539  0.08139725  0.90137908  1
  Al  Al3  1  0.89136874  0.19857291  0.65853804  1
  Al  Al4  1  0.45558734  0.08628522  0.39482160  1
  Al  Al5  1  0.55414603  0.19907572  0.14267149  1
  Al  Al6  1  0.10976809  0.10381649  0.90687760  1
  Al  Al7  1  0.88723746  0.20702536  0.14088937  1
  Al  Al8  1  0.44334787  0.08581340  0.90514631  1
  Al  Al9  1  0.56409073  0.18572116  0.66515733  1
  Al  Al10  1  0.12109551  0.42701901  0.34260302  1
  Al  Al11  1  0.21222612  0.54669398  0.08781774  1
  Al  Al12  1  0.77398058  0.42947414  0.89309890  1
  Al  Al13  1  0.88022465  0.54554752  0.65077881  1
  Al  Al14  1  0.43161843  0.43405865  0.32403503  1
  Al  Al15  1  0.55612830  0.54370799  0.14914698  1
  Al  Al16  1  0.10440763  0.43901378  0.83397348  1
  Al  Al17  1  0.21770761  0.53983291  0.58628753  1
  Al  Al18  1  0.79555909  0.42521642  0.39977791  1
  Al  Al19  1  0.11765171  0.75251467  0.32549256  1
  Al  Al20  1  0.22100847  0.87016801  0.08511294  1
  Al  Al21  1  0.77031980  0.77327244  0.89329276  1
  Al  Al22  1  0.88674464  0.87074535  0.65740385  1
  Al  Al23  1  0.44440144  0.77255377  0.38762795  1
  Al  Al24  1  0.55564972  0.87739699  0.14711700  1
  Al  Al25  1  0.11541090  0.76244439  0.83457023  1
  Al  Al26  1  0.20873288  0.87035149  0.56685265  1
  Al  Al27  1  0.78229881  0.75479305  0.40428614  1
  Al  Al28  1  0.88291583  0.87681690  0.14628913  1
  Al  Al29  1  0.45125883  0.76447488  0.89878436  1
  Al  Al30  1  0.55954272  0.87344294  0.64618924  1
  Gd  Gd31  1  0.22857287  0.19492010  0.62695303  1
  Gd  Gd32  1  0.77935421  0.09822135  0.40158490  1
  Gd  Gd33  1  0.88633705  0.54110074  0.12981053  1
  Gd  Gd34  1  0.44761777  0.42246633  0.88184407  1
  Gd  Gd35  1  0.54581425  0.54109729  0.61774500  1
  N  N36  1  0.23125301  0.19319595  0.35643842  1
  N  N37  1  0.11041213  0.10160810  0.09495344  1
  N  N38  1  0.89153581  0.20464674  0.84513272  1
  N  N39  1  0.77915788  0.09246728  0.61861861  1
  N  N40  1  0.53148246  0.21363149  0.32433994  1
  N  N41  1  0.44181547  0.09156669  0.09099203  1
  N  N42  1  0.22185248  0.20846309  0.85378752  1
  N  N43  1  0.08066295  0.08613060  0.57130294  1
  N  N44  1  0.90022447  0.22507703  0.32067217  1
  N  N45  1  0.77998904  0.09358181  0.09367265  1
  N  N46  1  0.57603166  0.16192245  0.85074864  1
  N  N47  1  0.48732446  0.07340581  0.57471044  1
  N  N48  1  0.22549702  0.54151290  0.39697123  1
  N  N49  1  0.14648943  0.41428596  0.15823157  1
  N  N50  1  0.87815107  0.54542634  0.85060169  1
  N  N51  1  0.80908047  0.40767457  0.58557112  1
  N  N52  1  0.56007913  0.54067002  0.34586772  1
  N  N53  1  0.43703746  0.43735644  0.12783889  1
  N  N54  1  0.18456837  0.55961963  0.90758571  1
  N  N55  1  0.09580230  0.45786508  0.64632775  1
  N  N56  1  0.89371108  0.54000290  0.35529792  1
  N  N57  1  0.75633313  0.41382949  0.07521214  1
  N  N58  1  0.56602691  0.55939197  0.83430055  1
  N  N59  1  0.42316576  0.40402775  0.65047483  1
  N  N60  1  0.21699790  0.86855735  0.37306737  1
  N  N61  1  0.11420759  0.76161701  0.14033348  1
  N  N62  1  0.89090390  0.86919236  0.84171795  1
  N  N63  1  0.77783018  0.76005378  0.59323293  1
  N  N64  1  0.56395777  0.86875001  0.33225112  1
  N  N65  1  0.45304844  0.76010209  0.09247954  1
  N  N66  1  0.22056251  0.87231841  0.89504031  1
  N  N67  1  0.12112500  0.75648743  0.64353587  1
  N  N68  1  0.89427981  0.84764115  0.33278325  1
  N  N69  1  0.75982021  0.79607537  0.07545586  1
  N  N70  1  0.54974703  0.87577378  0.83424374  1
  N  N71  1  0.42779252  0.80189704  0.57319032  1
