# generated using pymatgen
data_Gd5Al31N36
_symmetry_space_group_name_H-M   'P 1'
_cell_length_a   9.72656349
_cell_length_b   9.76805161
_cell_length_c   10.27773704
_cell_angle_alpha   90.57572698
_cell_angle_beta   90.85578902
_cell_angle_gamma   59.94679836
_symmetry_Int_Tables_number   1
_chemical_formula_structural   Gd5Al31N36
_chemical_formula_sum   'Gd5 Al31 N36'
_cell_volume   845.10772947
_cell_formula_units_Z   1
loop_
 _symmetry_equiv_pos_site_id
 _symmetry_equiv_pos_as_xyz
  1  'x, y, z'
loop_
 _atom_site_type_symbol
 _atom_site_label
 _atom_site_symmetry_multiplicity
 _atom_site_fract_x
 _atom_site_fract_y
 _atom_site_fract_z
 _atom_site_occupancy
  Al  Al0  1  0.11133838  0.09325259  0.39229037  1
  Al  Al1  1  0.22690144  0.20041231  0.15406004  1
  Al  Al2  1  0.78553844  0.08409396  0.90020059  1
  Al  Al3  1  0.89443909  0.19681860  0.65718537  1
  Al  Al4  1  0.45126039  0.09064966  0.39242674  1
  Al  Al5  1  0.55402826  0.19876706  0.14189404  1
  Al  Al6  1  0.11287809  0.09506344  0.90486832  1
  Al  Al7  1  0.88784535  0.20684446  0.13956106  1
  Al  Al8  1  0.44679530  0.08279130  0.90677984  1
  Al  Al9  1  0.56562608  0.18475512  0.66178355  1
  Al  Al10  1  0.10698221  0.43014771  0.39925910  1
  Al  Al11  1  0.21403165  0.54837506  0.08654357  1
  Al  Al12  1  0.77700387  0.42941385  0.89152691  1
  Al  Al13  1  0.89298847  0.53920963  0.65081135  1
  Al  Al14  1  0.43307884  0.43278142  0.32216652  1
  Al  Al15  1  0.55379904  0.54545081  0.14717799  1
  Al  Al16  1  0.10808869  0.42203401  0.90618289  1
  Al  Al17  1  0.22054926  0.54366430  0.58145283  1
  Al  Al18  1  0.79436584  0.42314040  0.40036244  1
  Al  Al19  1  0.11601617  0.75512241  0.33887766  1
  Al  Al20  1  0.22321672  0.87709776  0.14316105  1
  Al  Al21  1  0.77197146  0.76963059  0.89123085  1
  Al  Al22  1  0.89255638  0.86758726  0.65651097  1
  Al  Al23  1  0.43833075  0.77740211  0.39126388  1
  Al  Al24  1  0.55313574  0.87810386  0.14638995  1
  Al  Al25  1  0.10838174  0.76701824  0.86619119  1
  Al  Al26  1  0.21457195  0.87640008  0.64434174  1
  Al  Al27  1  0.77931700  0.75728167  0.40683523  1
  Al  Al28  1  0.88169848  0.87706895  0.14224738  1
  Al  Al29  1  0.44748085  0.76680908  0.89507887  1
  Al  Al30  1  0.55959768  0.87309784  0.64550147  1
  Gd  Gd31  1  0.23061423  0.19992024  0.63756113  1
  Gd  Gd32  1  0.78204292  0.09565967  0.39947635  1
  Gd  Gd33  1  0.87988801  0.54584709  0.14180848  1
  Gd  Gd34  1  0.44976759  0.42318284  0.87697990  1
  Gd  Gd35  1  0.54941735  0.53960954  0.61392622  1
  N  N36  1  0.22530069  0.20283985  0.34931636  1
  N  N37  1  0.11170363  0.09517157  0.09086525  1
  N  N38  1  0.89181790  0.20385700  0.84538744  1
  N  N39  1  0.78127094  0.09096904  0.61785633  1
  N  N40  1  0.53319327  0.21331542  0.32471434  1
  N  N41  1  0.44103081  0.09184408  0.09311085  1
  N  N42  1  0.22368328  0.20377262  0.85817758  1
  N  N43  1  0.09099427  0.07957529  0.57568767  1
  N  N44  1  0.90367387  0.22279470  0.32188218  1
  N  N45  1  0.77787426  0.09527564  0.09354385  1
  N  N46  1  0.57408661  0.16246276  0.84880585  1
  N  N47  1  0.48537826  0.07334882  0.57346602  1
  N  N48  1  0.22636389  0.54050369  0.38347586  1
  N  N49  1  0.13374695  0.40923825  0.09626073  1
  N  N50  1  0.89031664  0.53835690  0.84669457  1
  N  N51  1  0.81295237  0.40474857  0.58702356  1
  N  N52  1  0.55866651  0.54243903  0.34653434  1
  N  N53  1  0.43691005  0.43619240  0.12701084  1
  N  N54  1  0.19155062  0.55721296  0.90073735  1
  N  N55  1  0.09554284  0.45132605  0.58398199  1
  N  N56  1  0.88701326  0.54279468  0.35761938  1
  N  N57  1  0.75598297  0.41559265  0.07510302  1
  N  N58  1  0.56863133  0.56073822  0.83263011  1
  N  N59  1  0.42510703  0.40373152  0.64531418  1
  N  N60  1  0.22268018  0.87627285  0.33042415  1
  N  N61  1  0.10775510  0.76756249  0.12046596  1
  N  N62  1  0.88975430  0.87076177  0.84372717  1
  N  N63  1  0.77906543  0.75831660  0.59676536  1
  N  N64  1  0.56125089  0.86987703  0.33351143  1
  N  N65  1  0.44520867  0.76356008  0.08806682  1
  N  N66  1  0.22362749  0.87742100  0.84136887  1
  N  N67  1  0.11346002  0.75836519  0.62156078  1
  N  N68  1  0.89495705  0.84495025  0.32949980  1
  N  N69  1  0.75709579  0.79571266  0.07372090  1
  N  N70  1  0.55090139  0.87478947  0.83396676  1
  N  N71  1  0.42230204  0.80293509  0.57589627  1
