# generated using pymatgen
data_Gd5Al31N36
_symmetry_space_group_name_H-M   'P 1'
_cell_length_a   9.75920005
_cell_length_b   9.73169105
_cell_length_c   10.40903335
_cell_angle_alpha   89.93809924
_cell_angle_beta   90.38714086
_cell_angle_gamma   59.92085026
_symmetry_Int_Tables_number   1
_chemical_formula_structural   Gd5Al31N36
_chemical_formula_sum   'Gd5 Al31 N36'
_cell_volume   855.42302099
_cell_formula_units_Z   1
loop_
 _symmetry_equiv_pos_site_id
 _symmetry_equiv_pos_as_xyz
  1  'x, y, z'
loop_
 _atom_site_type_symbol
 _atom_site_label
 _atom_site_symmetry_multiplicity
 _atom_site_fract_x
 _atom_site_fract_y
 _atom_site_fract_z
 _atom_site_occupancy
  Al  Al0  1  0.10965540  0.09825880  0.39485933  1
  Al  Al1  1  0.22656986  0.20622991  0.08425683  1
  Al  Al2  1  0.78684698  0.08318953  0.90245853  1
  Al  Al3  1  0.88777408  0.20127382  0.65785699  1
  Al  Al4  1  0.45102871  0.08889873  0.39890086  1
  Al  Al5  1  0.55378519  0.19905154  0.14292215  1
  Al  Al6  1  0.10319089  0.09830895  0.90159148  1
  Al  Al7  1  0.88991672  0.20397206  0.14076511  1
  Al  Al8  1  0.45720402  0.08087552  0.90325244  1
  Al  Al9  1  0.56467915  0.18963182  0.66377354  1
  Al  Al10  1  0.12739887  0.41422844  0.33758193  1
  Al  Al11  1  0.21294616  0.54741791  0.08901398  1
  Al  Al12  1  0.76978611  0.43253847  0.89191637  1
  Al  Al13  1  0.88047492  0.54471955  0.65512168  1
  Al  Al14  1  0.43032324  0.42984488  0.32493569  1
  Al  Al15  1  0.55790470  0.53590508  0.14941634  1
  Al  Al16  1  0.10244452  0.44278150  0.83886460  1
  Al  Al17  1  0.21452605  0.53858959  0.58585051  1
  Al  Al18  1  0.80324635  0.42099602  0.39946983  1
  Al  Al19  1  0.11942276  0.75204783  0.32957026  1
  Al  Al20  1  0.22779745  0.86479793  0.08017104  1
  Al  Al21  1  0.77159878  0.77256145  0.89742225  1
  Al  Al22  1  0.88532252  0.87211845  0.65714659  1
  Al  Al23  1  0.43886852  0.76799507  0.32933474  1
  Al  Al24  1  0.55658665  0.88057795  0.15096697  1
  Al  Al25  1  0.11237789  0.76149595  0.83361636  1
  Al  Al26  1  0.20927832  0.87056533  0.57478254  1
  Al  Al27  1  0.78427695  0.75284059  0.40433393  1
  Al  Al28  1  0.88483087  0.87612612  0.14948220  1
  Al  Al29  1  0.43483296  0.77756419  0.82009067  1
  Al  Al30  1  0.56531471  0.87766436  0.64718603  1
  Gd  Gd31  1  0.22987123  0.19253365  0.62726415  1
  Gd  Gd32  1  0.77863415  0.09957128  0.40056734  1
  Gd  Gd33  1  0.88530566  0.53902721  0.12957804  1
  Gd  Gd34  1  0.44619204  0.42990374  0.87591304  1
  Gd  Gd35  1  0.54171326  0.54595238  0.59928218  1
  N  N36  1  0.22790568  0.20058442  0.39137106  1
  N  N37  1  0.10819941  0.09772015  0.08670305  1
  N  N38  1  0.88814677  0.20640124  0.84316320  1
  N  N39  1  0.77825252  0.09399186  0.61635936  1
  N  N40  1  0.53103905  0.21022497  0.32312283  1
  N  N41  1  0.44803881  0.08916410  0.08591794  1
  N  N42  1  0.22110976  0.21169801  0.87983117  1
  N  N43  1  0.07887681  0.08584469  0.57789912  1
  N  N44  1  0.90699389  0.22071395  0.31991709  1
  N  N45  1  0.77999932  0.09319783  0.09424539  1
  N  N46  1  0.57675619  0.16842614  0.84860217  1
  N  N47  1  0.48950390  0.07551445  0.57767293  1
  N  N48  1  0.22376856  0.53804260  0.39547277  1
  N  N49  1  0.14840059  0.40799427  0.15229142  1
  N  N50  1  0.87752977  0.54598286  0.85547166  1
  N  N51  1  0.80897356  0.41015364  0.58459128  1
  N  N52  1  0.56407615  0.53068679  0.34843432  1
  N  N53  1  0.43655702  0.43556051  0.12762270  1
  N  N54  1  0.18361068  0.56181377  0.91042085  1
  N  N55  1  0.09686946  0.45630245  0.65653416  1
  N  N56  1  0.89646819  0.53883361  0.35126601  1
  N  N57  1  0.75477491  0.41261832  0.07354038  1
  N  N58  1  0.56833392  0.55890706  0.82410222  1
  N  N59  1  0.42332831  0.40832506  0.64683605  1
  N  N60  1  0.22519703  0.86277961  0.38637522  1
  N  N61  1  0.11649852  0.76234905  0.14362851  1
  N  N62  1  0.88899348  0.87115363  0.84210678  1
  N  N63  1  0.78007072  0.75771459  0.59253911  1
  N  N64  1  0.56409059  0.87022984  0.33865564  1
  N  N65  1  0.44280931  0.76347447  0.14138718  1
  N  N66  1  0.22500589  0.86675261  0.89229749  1
  N  N67  1  0.11773657  0.75531744  0.64401673  1
  N  N68  1  0.89599320  0.84841160  0.33507455  1
  N  N69  1  0.76086794  0.79542332  0.07930523  1
  N  N70  1  0.55825797  0.87701054  0.83488785  1
  N  N71  1  0.41137244  0.81382681  0.63576340  1
