# generated using pymatgen
data_Gd5Al31N36
_symmetry_space_group_name_H-M   'P 1'
_cell_length_a   9.75537548
_cell_length_b   9.75325597
_cell_length_c   10.33229486
_cell_angle_alpha   90.15664809
_cell_angle_beta   90.40128575
_cell_angle_gamma   59.92713613
_symmetry_Int_Tables_number   1
_chemical_formula_structural   Gd5Al31N36
_chemical_formula_sum   'Gd5 Al31 N36'
_cell_volume   850.72828184
_cell_formula_units_Z   1
loop_
 _symmetry_equiv_pos_site_id
 _symmetry_equiv_pos_as_xyz
  1  'x, y, z'
loop_
 _atom_site_type_symbol
 _atom_site_label
 _atom_site_symmetry_multiplicity
 _atom_site_fract_x
 _atom_site_fract_y
 _atom_site_fract_z
 _atom_site_occupancy
  Al  Al0  1  0.10605203  0.09577362  0.38806630  1
  Al  Al1  1  0.23378921  0.19284711  0.15711407  1
  Al  Al2  1  0.78694869  0.08276758  0.90195967  1
  Al  Al3  1  0.89140338  0.19917056  0.65838672  1
  Al  Al4  1  0.45558618  0.08606278  0.39546284  1
  Al  Al5  1  0.55385806  0.19832912  0.14170501  1
  Al  Al6  1  0.10931658  0.10482253  0.90710528  1
  Al  Al7  1  0.88756852  0.20578528  0.14009754  1
  Al  Al8  1  0.44276147  0.08765018  0.90559638  1
  Al  Al9  1  0.56249369  0.18804936  0.66566660  1
  Al  Al10  1  0.12132037  0.42617403  0.33960639  1
  Al  Al11  1  0.21324324  0.54633266  0.08807572  1
  Al  Al12  1  0.77248579  0.43050853  0.89179856  1
  Al  Al13  1  0.87938332  0.54727893  0.65346962  1
  Al  Al14  1  0.43124043  0.43094765  0.32466968  1
  Al  Al15  1  0.55639809  0.54106082  0.15188778  1
  Al  Al16  1  0.10498479  0.43924206  0.83544299  1
  Al  Al17  1  0.21573375  0.54116019  0.58715791  1
  Al  Al18  1  0.80048632  0.42261055  0.39947695  1
  Al  Al19  1  0.11795699  0.75186820  0.32598919  1
  Al  Al20  1  0.22647838  0.86669016  0.08587499  1
  Al  Al21  1  0.76918924  0.77504190  0.89443667  1
  Al  Al22  1  0.88610619  0.87237414  0.65724148  1
  Al  Al23  1  0.44311472  0.76988216  0.36790821  1
  Al  Al24  1  0.55591343  0.87681999  0.15030436  1
  Al  Al25  1  0.11384110  0.76241348  0.83471196  1
  Al  Al26  1  0.21003919  0.86999893  0.56790744  1
  Al  Al27  1  0.78440301  0.75349373  0.40394619  1
  Al  Al28  1  0.88357409  0.87597159  0.14684009  1
  Al  Al29  1  0.44372458  0.77053460  0.86130853  1
  Al  Al30  1  0.56062142  0.87582088  0.64195126  1
  Gd  Gd31  1  0.22617595  0.19718630  0.62616616  1
  Gd  Gd32  1  0.77913515  0.09838673  0.40086956  1
  Gd  Gd33  1  0.88740713  0.53893483  0.12474245  1
  Gd  Gd34  1  0.44778235  0.42622923  0.87979874  1
  Gd  Gd35  1  0.54653324  0.53846063  0.60576327  1
  N  N36  1  0.23137118  0.19190474  0.35575305  1
  N  N37  1  0.11081414  0.09991718  0.09407133  1
  N  N38  1  0.89140248  0.20498522  0.84533293  1
  N  N39  1  0.77751973  0.09487472  0.61881027  1
  N  N40  1  0.53166045  0.21162825  0.32376400  1
  N  N41  1  0.44239672  0.09002830  0.09114415  1
  N  N42  1  0.22167025  0.20832229  0.85396177  1
  N  N43  1  0.08054643  0.08605174  0.57185080  1
  N  N44  1  0.90198158  0.22340660  0.32009667  1
  N  N45  1  0.78004297  0.09295626  0.09418795  1
  N  N46  1  0.57467427  0.16504404  0.85228029  1
  N  N47  1  0.48501647  0.07732872  0.57530304  1
  N  N48  1  0.22485406  0.54002653  0.39685685  1
  N  N49  1  0.14768393  0.41241508  0.15581017  1
  N  N50  1  0.87795858  0.54630064  0.85395269  1
  N  N51  1  0.81241630  0.40807367  0.58592374  1
  N  N52  1  0.56313216  0.53304993  0.35027275  1
  N  N53  1  0.43717456  0.43629211  0.12827234  1
  N  N54  1  0.18511637  0.55994200  0.90774456  1
  N  N55  1  0.09463036  0.46009166  0.64950922  1
  N  N56  1  0.89441696  0.53969288  0.35189079  1
  N  N57  1  0.75429774  0.41347293  0.07418003  1
  N  N58  1  0.56766262  0.55988278  0.82739652  1
  N  N59  1  0.42171479  0.40600736  0.65028248  1
  N  N60  1  0.21715407  0.86667722  0.37631795  1
  N  N61  1  0.11463947  0.76151876  0.13997037  1
  N  N62  1  0.88984595  0.87062233  0.84248271  1
  N  N63  1  0.77899271  0.76070016  0.59314010  1
  N  N64  1  0.56674490  0.86930243  0.33681060  1
  N  N65  1  0.44713396  0.76195428  0.12428450  1
  N  N66  1  0.22326198  0.87087555  0.89368546  1
  N  N67  1  0.11948817  0.75781883  0.64386729  1
  N  N68  1  0.89545333  0.84762533  0.33373667  1
  N  N69  1  0.75929227  0.79593542  0.07690324  1
  N  N70  1  0.55099505  0.87963820  0.83186992  1
  N  N71  1  0.42614030  0.80214031  0.58403481  1
