# generated using pymatgen
data_Gd5Al31N36
_symmetry_space_group_name_H-M   'P 1'
_cell_length_a   9.75643038
_cell_length_b   9.72306205
_cell_length_c   10.35423494
_cell_angle_alpha   89.85078050
_cell_angle_beta   89.95374154
_cell_angle_gamma   60.07330300
_symmetry_Int_Tables_number   1
_chemical_formula_structural   Gd5Al31N36
_chemical_formula_sum   'Gd5 Al31 N36'
_cell_volume   851.25843537
_cell_formula_units_Z   1
loop_
 _symmetry_equiv_pos_site_id
 _symmetry_equiv_pos_as_xyz
  1  'x, y, z'
loop_
 _atom_site_type_symbol
 _atom_site_label
 _atom_site_symmetry_multiplicity
 _atom_site_fract_x
 _atom_site_fract_y
 _atom_site_fract_z
 _atom_site_occupancy
  Al  Al0  1  0.11713776  0.09761791  0.30625041  1
  Al  Al1  1  0.22177789  0.20649537  0.05474538  1
  Al  Al2  1  0.77885720  0.09164109  0.87511624  1
  Al  Al3  1  0.89817363  0.19970315  0.56362416  1
  Al  Al4  1  0.44789387  0.09049008  0.37120471  1
  Al  Al5  1  0.54438885  0.20629867  0.11335345  1
  Al  Al6  1  0.10401453  0.08896970  0.81517376  1
  Al  Al7  1  0.88831895  0.20941652  0.05975021  1
  Al  Al8  1  0.45555121  0.07885498  0.87417492  1
  Al  Al9  1  0.57399747  0.18244203  0.62797130  1
  Al  Al10  1  0.12371701  0.41779682  0.31163652  1
  Al  Al11  1  0.21269863  0.54845873  0.06273012  1
  Al  Al12  1  0.78621471  0.42880438  0.80631702  1
  Al  Al13  1  0.89178828  0.54163329  0.55568478  1
  Al  Al14  1  0.43062299  0.43841961  0.29026834  1
  Al  Al15  1  0.55523452  0.54788541  0.05828569  1
  Al  Al16  1  0.09683614  0.44417658  0.80310043  1
  Al  Al17  1  0.21995426  0.54030476  0.55479440  1
  Al  Al18  1  0.78029996  0.42729357  0.30456570  1
  Al  Al19  1  0.11362097  0.75593883  0.31110662  1
  Al  Al20  1  0.22064499  0.87348323  0.05959326  1
  Al  Al21  1  0.78394372  0.76142989  0.80182729  1
  Al  Al22  1  0.89753199  0.86078887  0.56044577  1
  Al  Al23  1  0.43523312  0.76218990  0.30273348  1
  Al  Al24  1  0.54780525  0.88647857  0.13050064  1
  Al  Al25  1  0.10354025  0.76671610  0.80907971  1
  Al  Al26  1  0.21405695  0.87228600  0.56033241  1
  Al  Al27  1  0.78143641  0.75828609  0.31497099  1
  Al  Al28  1  0.89131027  0.87352503  0.05960182  1
  Al  Al29  1  0.43895328  0.76991906  0.81038351  1
  Al  Al30  1  0.56039648  0.87422337  0.62267986  1
  Gd  Gd31  1  0.22701028  0.20020926  0.58660777  1
  Gd  Gd32  1  0.77558781  0.09469838  0.34057216  1
  Gd  Gd33  1  0.89112743  0.54504948  0.06414160  1
  Gd  Gd34  1  0.43610552  0.42833400  0.83582902  1
  Gd  Gd35  1  0.55582529  0.53361106  0.55749025  1
  N  N36  1  0.22461556  0.20114615  0.36264571  1
  N  N37  1  0.11081184  0.09679862  0.11461864  1
  N  N38  1  0.88813862  0.21136464  0.87317472  1
  N  N39  1  0.78405084  0.09124339  0.57352217  1
  N  N40  1  0.51865116  0.21889379  0.29352334  1
  N  N41  1  0.44586821  0.09036105  0.05683807  1
  N  N42  1  0.21606644  0.21109546  0.85509396  1
  N  N43  1  0.09643230  0.07231757  0.63450144  1
  N  N44  1  0.90923457  0.22122347  0.37209000  1
  N  N45  1  0.77136674  0.10013282  0.07579158  1
  N  N46  1  0.57648750  0.16614850  0.81471577  1
  N  N47  1  0.48824309  0.07109529  0.55173952  1
  N  N48  1  0.22514754  0.53894217  0.36529586  1
  N  N49  1  0.14437828  0.41011285  0.12825764  1
  N  N50  1  0.88473642  0.54473274  0.85038714  1
  N  N51  1  0.80960486  0.41163000  0.62286495  1
  N  N52  1  0.55145315  0.53742060  0.33990366  1
  N  N53  1  0.43697154  0.44019943  0.09217079  1
  N  N54  1  0.17859538  0.56162663  0.88235089  1
  N  N55  1  0.09630643  0.46013165  0.61937254  1
  N  N56  1  0.88921779  0.53746971  0.36022076  1
  N  N57  1  0.76483205  0.41669988  0.12252793  1
  N  N58  1  0.57225742  0.55640991  0.86875731  1
  N  N59  1  0.42929309  0.40637065  0.61463572  1
  N  N60  1  0.21827617  0.87337632  0.36778295  1
  N  N61  1  0.10746564  0.76712519  0.12340331  1
  N  N62  1  0.89158216  0.86841024  0.87043432  1
  N  N63  1  0.78404444  0.75636391  0.61457855  1
  N  N64  1  0.54992859  0.87394442  0.31882751  1
  N  N65  1  0.43822104  0.76633304  0.11413609  1
  N  N66  1  0.22082067  0.86932175  0.87419488  1
  N  N67  1  0.11670225  0.75527251  0.62113359  1
  N  N68  1  0.91003379  0.83463181  0.37819401  1
  N  N69  1  0.76922628  0.79447190  0.13006070  1
  N  N70  1  0.55788232  0.87346072  0.81456670  1
  N  N71  1  0.42372814  0.78752233  0.62179294  1
