# generated using pymatgen
data_Gd5Al31N36
_symmetry_space_group_name_H-M   'P 1'
_cell_length_a   9.71049521
_cell_length_b   9.72148036
_cell_length_c   10.49249815
_cell_angle_alpha   90.14030717
_cell_angle_beta   90.39360818
_cell_angle_gamma   60.23381681
_symmetry_Int_Tables_number   1
_chemical_formula_structural   Gd5Al31N36
_chemical_formula_sum   'Gd5 Al31 N36'
_cell_volume   859.78769212
_cell_formula_units_Z   1
loop_
 _symmetry_equiv_pos_site_id
 _symmetry_equiv_pos_as_xyz
  1  'x, y, z'
loop_
 _atom_site_type_symbol
 _atom_site_label
 _atom_site_symmetry_multiplicity
 _atom_site_fract_x
 _atom_site_fract_y
 _atom_site_fract_z
 _atom_site_occupancy
  Al  Al0  1  0.12921766  0.08900627  0.31855077  1
  Al  Al1  1  0.22209562  0.20598102  0.07716715  1
  Al  Al2  1  0.77682105  0.09801578  0.90040350  1
  Al  Al3  1  0.88603962  0.19796586  0.66098019  1
  Al  Al4  1  0.45369034  0.08633294  0.39368677  1
  Al  Al5  1  0.54718942  0.20576996  0.13932572  1
  Al  Al6  1  0.10895267  0.08842423  0.84021482  1
  Al  Al7  1  0.88630457  0.20856880  0.14199154  1
  Al  Al8  1  0.45226925  0.08184348  0.90056828  1
  Al  Al9  1  0.56927963  0.18111534  0.65564406  1
  Al  Al10  1  0.13504988  0.41468306  0.33148296  1
  Al  Al11  1  0.21171650  0.54913039  0.08797730  1
  Al  Al12  1  0.77502312  0.42940594  0.89834420  1
  Al  Al13  1  0.88231299  0.54443792  0.65668792  1
  Al  Al14  1  0.43922077  0.43749034  0.31693864  1
  Al  Al15  1  0.54593050  0.55140845  0.07517142  1
  Al  Al16  1  0.09693627  0.44232323  0.83918714  1
  Al  Al17  1  0.21788949  0.53979829  0.58037138  1
  Al  Al18  1  0.80744852  0.41789654  0.40116597  1
  Al  Al19  1  0.11498010  0.75655147  0.33438456  1
  Al  Al20  1  0.22276520  0.87127731  0.08107462  1
  Al  Al21  1  0.76640936  0.77210242  0.89592861  1
  Al  Al22  1  0.90071737  0.85966679  0.58912000  1
  Al  Al23  1  0.44781836  0.75495870  0.32569049  1
  Al  Al24  1  0.55382527  0.88377401  0.14893224  1
  Al  Al25  1  0.10203154  0.76837769  0.83168501  1
  Al  Al26  1  0.21507021  0.87433364  0.58101232  1
  Al  Al27  1  0.78249449  0.74759987  0.40978556  1
  Al  Al28  1  0.89347913  0.87659765  0.07631970  1
  Al  Al29  1  0.43129683  0.77602463  0.82889773  1
  Al  Al30  1  0.56101647  0.87594077  0.65057692  1
  Gd  Gd31  1  0.21735008  0.20793478  0.60096131  1
  Gd  Gd32  1  0.77442703  0.10201163  0.38567257  1
  Gd  Gd33  1  0.88224019  0.54518377  0.13971632  1
  Gd  Gd34  1  0.42757320  0.42823903  0.85657850  1
  Gd  Gd35  1  0.55193929  0.53659496  0.59049994  1
  N  N36  1  0.22789904  0.19856053  0.38196179  1
  N  N37  1  0.12061518  0.08935020  0.13039122  1
  N  N38  1  0.87596558  0.21422064  0.84510727  1
  N  N39  1  0.78315400  0.08980591  0.60510007  1
  N  N40  1  0.52328004  0.21691923  0.31766866  1
  N  N41  1  0.44605556  0.09131444  0.08161397  1
  N  N42  1  0.21300669  0.21335538  0.88439389  1
  N  N43  1  0.10309494  0.07001747  0.65922461  1
  N  N44  1  0.90696618  0.22069934  0.32254321  1
  N  N45  1  0.77335358  0.10169409  0.09466178  1
  N  N46  1  0.57292657  0.16697647  0.83947487  1
  N  N47  1  0.48494070  0.07113899  0.57394823  1
  N  N48  1  0.23077894  0.53815769  0.39106174  1
  N  N49  1  0.14769061  0.40799377  0.14890048  1
  N  N50  1  0.87098307  0.54877708  0.84806292  1
  N  N51  1  0.82180309  0.40019970  0.58673757  1
  N  N52  1  0.56667878  0.53158269  0.37150188  1
  N  N53  1  0.43686708  0.44108366  0.12117784  1
  N  N54  1  0.17314112  0.56680243  0.91136666  1
  N  N55  1  0.09913369  0.46146811  0.65816706  1
  N  N56  1  0.90300112  0.53602842  0.35575851  1
  N  N57  1  0.76591208  0.41207247  0.07689794  1
  N  N58  1  0.55215985  0.56595573  0.88470559  1
  N  N59  1  0.42877528  0.40365489  0.63852603  1
  N  N60  1  0.22581262  0.87113566  0.38990470  1
  N  N61  1  0.10580440  0.76726813  0.14842542  1
  N  N62  1  0.89310747  0.87656363  0.88769507  1
  N  N63  1  0.77297804  0.75305527  0.59578673  1
  N  N64  1  0.56774539  0.86803121  0.33461744  1
  N  N65  1  0.44080011  0.76307479  0.13998289  1
  N  N66  1  0.21893558  0.87145971  0.89797008  1
  N  N67  1  0.11930239  0.75459473  0.64504940  1
  N  N68  1  0.91259895  0.84013612  0.40355873  1
  N  N69  1  0.75550748  0.79434420  0.07788065  1
  N  N70  1  0.55409482  0.87801642  0.83500977  1
  N  N71  1  0.42239087  0.79120770  0.64485615  1
