# generated using pymatgen
data_Gd5Al31N36
_symmetry_space_group_name_H-M   'P 1'
_cell_length_a   9.74172474
_cell_length_b   9.73145728
_cell_length_c   10.39920260
_cell_angle_alpha   90.02413463
_cell_angle_beta   90.39506236
_cell_angle_gamma   59.89176925
_symmetry_Int_Tables_number   1
_chemical_formula_structural   Gd5Al31N36
_chemical_formula_sum   'Gd5 Al31 N36'
_cell_volume   852.81872304
_cell_formula_units_Z   1
loop_
 _symmetry_equiv_pos_site_id
 _symmetry_equiv_pos_as_xyz
  1  'x, y, z'
loop_
 _atom_site_type_symbol
 _atom_site_label
 _atom_site_symmetry_multiplicity
 _atom_site_fract_x
 _atom_site_fract_y
 _atom_site_fract_z
 _atom_site_occupancy
  Al  Al0  1  0.10750390  0.09428631  0.38862696  1
  Al  Al1  1  0.23473987  0.19175577  0.15724903  1
  Al  Al2  1  0.78657283  0.08354728  0.90153611  1
  Al  Al3  1  0.88823401  0.20128226  0.65832817  1
  Al  Al4  1  0.45552062  0.08511977  0.39559636  1
  Al  Al5  1  0.55495103  0.19773964  0.14149385  1
  Al  Al6  1  0.10927235  0.10446158  0.90749375  1
  Al  Al7  1  0.88884523  0.20393527  0.13967331  1
  Al  Al8  1  0.44446946  0.08743107  0.90645766  1
  Al  Al9  1  0.56163887  0.19047815  0.66578250  1
  Al  Al10  1  0.12219224  0.42475233  0.33951146  1
  Al  Al11  1  0.21387340  0.54585747  0.08781427  1
  Al  Al12  1  0.77100005  0.43224206  0.89007850  1
  Al  Al13  1  0.87885759  0.54657427  0.65458664  1
  Al  Al14  1  0.43172269  0.42918323  0.32414280  1
  Al  Al15  1  0.55918738  0.53520263  0.14876052  1
  Al  Al16  1  0.10567449  0.43847165  0.83548769  1
  Al  Al17  1  0.21518330  0.54041346  0.58718690  1
  Al  Al18  1  0.80112801  0.42150227  0.39924491  1
  Al  Al19  1  0.12017221  0.75085934  0.32826032  1
  Al  Al20  1  0.22852229  0.86452783  0.08094149  1
  Al  Al21  1  0.76986228  0.77427573  0.89650532  1
  Al  Al22  1  0.88511744  0.87233479  0.65854391  1
  Al  Al23  1  0.44087489  0.76584129  0.32908251  1
  Al  Al24  1  0.55911221  0.87761544  0.14970602  1
  Al  Al25  1  0.11278909  0.76279270  0.83522152  1
  Al  Al26  1  0.20812917  0.87198917  0.57266446  1
  Al  Al27  1  0.78434327  0.75277773  0.40441965  1
  Al  Al28  1  0.88561169  0.87534569  0.14861309  1
  Al  Al29  1  0.43333578  0.78021102  0.82102842  1
  Al  Al30  1  0.56222173  0.88119761  0.64777847  1
  Gd  Gd31  1  0.22646159  0.19249973  0.62914926  1
  Gd  Gd32  1  0.77955451  0.09864415  0.40269800  1
  Gd  Gd33  1  0.88915727  0.53620060  0.12518249  1
  Gd  Gd34  1  0.44782275  0.43020253  0.87736904  1
  Gd  Gd35  1  0.54073991  0.54751573  0.60069977  1
  N  N36  1  0.23219898  0.19015629  0.35464406  1
  N  N37  1  0.11207885  0.09864337  0.09354238  1
  N  N38  1  0.89175838  0.20528145  0.84426041  1
  N  N39  1  0.77653084  0.09462371  0.61923777  1
  N  N40  1  0.53291404  0.20958420  0.32269170  1
  N  N41  1  0.44341836  0.08960376  0.09111162  1
  N  N42  1  0.22260340  0.20721630  0.85473676  1
  N  N43  1  0.07561314  0.08840702  0.56890994  1
  N  N44  1  0.90337182  0.22192829  0.31861395  1
  N  N45  1  0.78085338  0.09193516  0.09325246  1
  N  N46  1  0.57369922  0.16833726  0.85170677  1
  N  N47  1  0.48399312  0.07947049  0.57425421  1
  N  N48  1  0.22576620  0.53821840  0.39759387  1
  N  N49  1  0.14909892  0.41169519  0.15685537  1
  N  N50  1  0.87896070  0.54590825  0.85388600  1
  N  N51  1  0.80823320  0.41053533  0.58483542  1
  N  N52  1  0.56456645  0.53026224  0.34842149  1
  N  N53  1  0.43777340  0.43481398  0.12748584  1
  N  N54  1  0.18426764  0.56029085  0.90879188  1
  N  N55  1  0.09546272  0.45751244  0.65016651  1
  N  N56  1  0.89496839  0.53894454  0.35140180  1
  N  N57  1  0.75536894  0.41197149  0.07194126  1
  N  N58  1  0.56844437  0.56105693  0.82379322  1
  N  N59  1  0.42336447  0.40931249  0.64873216  1
  N  N60  1  0.22630262  0.86045865  0.38421110  1
  N  N61  1  0.11737320  0.76105592  0.14271265  1
  N  N62  1  0.88909559  0.87105640  0.84278169  1
  N  N63  1  0.77770311  0.76039022  0.59284055  1
  N  N64  1  0.56637236  0.86770144  0.33810792  1
  N  N65  1  0.44425074  0.76214546  0.14137959  1
  N  N66  1  0.22418941  0.86936846  0.89471305  1
  N  N67  1  0.11755349  0.75749871  0.64469627  1
  N  N68  1  0.89664063  0.84772008  0.33481613  1
  N  N69  1  0.76243422  0.79362221  0.07878374  1
  N  N70  1  0.55571689  0.88072528  0.83599032  1
  N  N71  1  0.40901080  0.81666564  0.63544323  1
