# generated using pymatgen
data_ScAl17N18
_symmetry_space_group_name_H-M   'P 1'
_cell_length_a   9.79859043
_cell_length_b   9.79437968
_cell_length_c   9.11628711
_cell_angle_alpha   90.00002083
_cell_angle_beta   89.98297843
_cell_angle_gamma   60.01663074
_symmetry_Int_Tables_number   1
_chemical_formula_structural   ScAl17N18
_chemical_formula_sum   'Sc2 Al34 N36'
_cell_volume   757.81272980
_cell_formula_units_Z   2
loop_
 _symmetry_equiv_pos_site_id
 _symmetry_equiv_pos_as_xyz
  1  'x, y, z'
loop_
 _atom_site_type_symbol
 _atom_site_label
 _atom_site_symmetry_multiplicity
 _atom_site_fract_x
 _atom_site_fract_y
 _atom_site_fract_z
 _atom_site_occupancy
  Al  Al0  1  0.10946496  0.09607420  0.33480102  1
  Al  Al1  1  0.21760399  0.20575672  0.08420853  1
  Al  Al2  1  0.77926090  0.09342106  0.83050857  1
  Al  Al3  1  0.89002696  0.20670164  0.58792019  1
  Al  Al4  1  0.44016872  0.09297038  0.33664508  1
  Al  Al5  1  0.11214340  0.09297584  0.83387699  1
  Al  Al6  1  0.21760328  0.20997517  0.58420782  1
  Al  Al7  1  0.78496339  0.09156668  0.34119961  1
  Al  Al8  1  0.89267304  0.20451441  0.08139861  1
  Al  Al9  1  0.44016829  0.10019274  0.83664440  1
  Al  Al10  1  0.55455103  0.20898116  0.58569885  1
  Al  Al11  1  0.11214341  0.42821248  0.33387682  1
  Al  Al12  1  0.21961293  0.54252752  0.08117763  1
  Al  Al13  1  0.77799479  0.42869900  0.83485334  1
  Al  Al14  1  0.89267303  0.53614699  0.58139841  1
  Al  Al15  1  0.43968070  0.43511106  0.34047778  1
  Al  Al16  1  0.55543862  0.54038336  0.08444393  1
  Al  Al17  1  0.10946501  0.42779233  0.83480129  1
  Al  Al18  1  0.21980561  0.54000559  0.58814086  1
  Al  Al19  1  0.77799455  0.42663738  0.33485351  1
  Al  Al20  1  0.89002696  0.53660587  0.08792045  1
  Al  Al21  1  0.44456839  0.42896333  0.83053250  1
  Al  Al22  1  0.55543889  0.53751345  0.58444424  1
  Al  Al23  1  0.11116766  0.75923788  0.33404183  1
  Al  Al24  1  0.21980567  0.87352460  0.08814041  1
  Al  Al25  1  0.78496346  0.75680052  0.84119968  1
  Al  Al26  1  0.89375007  0.86874240  0.58434745  1
  Al  Al27  1  0.44456850  0.75979971  0.33053234  1
  Al  Al28  1  0.55455147  0.86980343  0.08569898  1
  Al  Al29  1  0.11116765  0.76292627  0.83404140  1
  Al  Al30  1  0.21961380  0.87119484  0.58117790  1
  Al  Al31  1  0.77926109  0.76064901  0.33050842  1
  Al  Al32  1  0.89374999  0.87084213  0.08434705  1
  Al  Al33  1  0.43968130  0.75853972  0.84047817  1
  Sc  Sc34  1  0.55697677  0.20668278  0.10085844  1
  Sc  Sc35  1  0.55697667  0.86967803  0.60085830  1
  N  N36  1  0.21931088  0.20726852  0.37343765  1
  N  N37  1  0.10953885  0.09592347  0.12402504  1
  N  N38  1  0.88917849  0.20549480  0.86874468  1
  N  N39  1  0.77860604  0.09302176  0.61794225  1
  N  N40  1  0.55559407  0.20581969  0.36626105  1
  N  N41  1  0.43336611  0.08591760  0.12311710  1
  N  N42  1  0.21931074  0.20675791  0.87343865  1
  N  N43  1  0.11298156  0.09249375  0.62270638  1
  N  N44  1  0.89009174  0.20721148  0.37827005  1
  N  N45  1  0.79993333  0.08456071  0.12941958  1
  N  N46  1  0.55711041  0.20670239  0.86334860  1
  N  N47  1  0.43336501  0.11404675  0.62311687  1
  N  N48  1  0.21933777  0.54010019  0.37788974  1
  N  N49  1  0.11298170  0.42785444  0.12270644  1
  N  N50  1  0.89009192  0.53603321  0.87827044  1
  N  N51  1  0.77764008  0.42998149  0.62341083  1
  N  N52  1  0.55697969  0.54004466  0.37381280  1
  N  N53  1  0.43243528  0.44961418  0.12887449  1
  N  N54  1  0.22204330  0.53915688  0.86885731  1
  N  N55  1  0.10953877  0.42786746  0.62402503  1
  N  N56  1  0.88917847  0.53866319  0.36874432  1
  N  N57  1  0.77763959  0.42570713  0.12341100  1
  N  N58  1  0.55697976  0.53631294  0.87381255  1
  N  N59  1  0.44410902  0.42889849  0.61849118  1
  N  N60  1  0.22204367  0.87213689  0.36885774  1
  N  N61  1  0.11138586  0.75963087  0.12352539  1
  N  N62  1  0.89027298  0.87369340  0.87380871  1
  N  N63  1  0.79993342  0.74883406  0.62941964  1
  N  N64  1  0.55711049  0.86952427  0.36334847  1
  N  N65  1  0.44410905  0.76032224  0.11849083  1
  N  N66  1  0.21933839  0.87389916  0.87788923  1
  N  N67  1  0.11138599  0.76231335  0.62352544  1
  N  N68  1  0.89027314  0.86937001  0.37380949  1
  N  N69  1  0.77860652  0.76170074  0.11794218  1
  N  N70  1  0.55559412  0.87192338  0.86626109  1
  N  N71  1  0.43243645  0.75127999  0.62887433  1
