# generated using pymatgen
data_ScAl17N18
_symmetry_space_group_name_H-M   'P 1'
_cell_length_a   9.93418437
_cell_length_b   9.92882761
_cell_length_c   8.69223269
_cell_angle_alpha   90.00000015
_cell_angle_beta   89.98691320
_cell_angle_gamma   60.01809370
_symmetry_Int_Tables_number   1
_chemical_formula_structural   ScAl17N18
_chemical_formula_sum   'Sc2 Al34 N36'
_cell_volume   742.62796667
_cell_formula_units_Z   2
loop_
 _symmetry_equiv_pos_site_id
 _symmetry_equiv_pos_as_xyz
  1  'x, y, z'
loop_
 _atom_site_type_symbol
 _atom_site_label
 _atom_site_symmetry_multiplicity
 _atom_site_fract_x
 _atom_site_fract_y
 _atom_site_fract_z
 _atom_site_occupancy
  Al  Al0  1  0.10958843  0.09582815  0.34350744  1
  Al  Al1  1  0.21756480  0.20599441  0.09321134  1
  Al  Al2  1  0.78081578  0.09268372  0.83919677  1
  Al  Al3  1  0.88997953  0.20662070  0.59603638  1
  Al  Al4  1  0.44014740  0.09544459  0.34677598  1
  Al  Al5  1  0.11199137  0.09314208  0.84236042  1
  Al  Al6  1  0.21756479  0.20977433  0.59321142  1
  Al  Al7  1  0.78342401  0.09236577  0.35012908  1
  Al  Al8  1  0.89250444  0.20489912  0.09014982  1
  Al  Al9  1  0.44014740  0.09774065  0.84677580  1
  Al  Al10  1  0.55474523  0.20883834  0.59782624  1
  Al  Al11  1  0.11199149  0.42819966  0.34236045  1
  Al  Al12  1  0.21940750  0.54233466  0.08996991  1
  Al  Al13  1  0.77799340  0.42867430  0.84332794  1
  Al  Al14  1  0.89250456  0.53593037  0.59014984  1
  Al  Al15  1  0.44063256  0.43339310  0.34944367  1
  Al  Al16  1  0.55565591  0.54038040  0.09321663  1
  Al  Al17  1  0.10958852  0.42791663  0.84350743  1
  Al  Al18  1  0.21995325  0.53996097  0.59612458  1
  Al  Al19  1  0.77799339  0.42666588  0.34332792  1
  Al  Al20  1  0.88997961  0.53673369  0.09603639  1
  Al  Al21  1  0.44351020  0.43056268  0.83960196  1
  Al  Al22  1  0.55565593  0.53729693  0.59321662  1
  Al  Al23  1  0.11126897  0.75949341  0.34264316  1
  Al  Al24  1  0.21995309  0.87341947  0.09612460  1
  Al  Al25  1  0.78342403  0.75754365  0.85012917  1
  Al  Al26  1  0.89356522  0.86922768  0.59304432  1
  Al  Al27  1  0.44351007  0.75925990  0.33960196  1
  Al  Al28  1  0.55474513  0.86974963  0.09782623  1
  Al  Al29  1  0.11126895  0.76257076  0.84264314  1
  Al  Al30  1  0.21940746  0.87159141  0.58996990  1
  Al  Al31  1  0.78081573  0.75983394  0.33919673  1
  Al  Al32  1  0.89356519  0.87054102  0.09304442  1
  Al  Al33  1  0.44063244  0.75930707  0.84944377  1
  Sc  Sc34  1  0.55703348  0.20651805  0.10343692  1
  Sc  Sc35  1  0.55703356  0.86978167  0.60343700  1
  N  N36  1  0.21911109  0.20735258  0.36456562  1
  N  N37  1  0.10958776  0.09572827  0.11544208  1
  N  N38  1  0.88939287  0.20579225  0.86005478  1
  N  N39  1  0.77927020  0.09280927  0.61044985  1
  N  N40  1  0.55595035  0.20601272  0.36421072  1
  N  N41  1  0.43401387  0.08736586  0.11283924  1
  N  N42  1  0.21911106  0.20687011  0.86456555  1
  N  N43  1  0.11277742  0.09261676  0.61423487  1
  N  N44  1  0.88990256  0.20697561  0.36984531  1
  N  N45  1  0.79790837  0.08553672  0.11862246  1
  N  N46  1  0.55688547  0.20647858  0.85218756  1
  N  N47  1  0.43401395  0.11195261  0.61283920  1
  N  N48  1  0.21982676  0.53987896  0.36926906  1
  N  N49  1  0.11277751  0.42793871  0.11423489  1
  N  N50  1  0.88990270  0.53645593  0.86984533  1
  N  N51  1  0.77771437  0.42982751  0.61487590  1
  N  N52  1  0.55700677  0.53931304  0.36498502  1
  N  N53  1  0.43354254  0.44742785  0.11804389  1
  N  N54  1  0.22152351  0.53937484  0.86045990  1
  N  N55  1  0.10958790  0.42801691  0.61544206  1
  N  N56  1  0.88939297  0.53814897  0.36005476  1
  N  N57  1  0.77771436  0.42579150  0.11487586  1
  N  N58  1  0.55700678  0.53701360  0.86498504  1
  N  N59  1  0.44368952  0.42948285  0.61089375  1
  N  N60  1  0.22152340  0.87243550  0.36045991  1
  N  N61  1  0.11149487  0.75972223  0.11502324  1
  N  N62  1  0.89038912  0.87286963  0.86505949  1
  N  N63  1  0.79790843  0.74988815  0.61862250  1
  N  N64  1  0.55688546  0.86996919  0.35218762  1
  N  N65  1  0.44368935  0.76016022  0.11089374  1
  N  N66  1  0.21982667  0.87362814  0.86926906  1
  N  N67  1  0.11149488  0.76211581  0.61502325  1
  N  N68  1  0.89038913  0.87007531  0.36505940  1
  N  N69  1  0.77927010  0.76125382  0.11044984  1
  N  N70  1  0.55595032  0.87137020  0.86421073  1
  N  N71  1  0.43354245  0.75236212  0.61804391  1
