# generated using pymatgen
data_ScAl17N18
_symmetry_space_group_name_H-M   'P 1'
_cell_length_a   9.49905328
_cell_length_b   9.49655685
_cell_length_c   9.99385588
_cell_angle_alpha   89.99999685
_cell_angle_beta   90.02313510
_cell_angle_gamma   60.00863114
_symmetry_Int_Tables_number   1
_chemical_formula_structural   ScAl17N18
_chemical_formula_sum   'Sc2 Al34 N36'
_cell_volume   780.81460522
_cell_formula_units_Z   2
loop_
 _symmetry_equiv_pos_site_id
 _symmetry_equiv_pos_as_xyz
  1  'x, y, z'
loop_
 _atom_site_type_symbol
 _atom_site_label
 _atom_site_symmetry_multiplicity
 _atom_site_fract_x
 _atom_site_fract_y
 _atom_site_fract_z
 _atom_site_occupancy
  Al  Al0  1  0.11118205  0.09406931  0.39449852  1
  Al  Al1  1  0.21812649  0.20548466  0.14485988  1
  Al  Al2  1  0.78399171  0.09144949  0.89099853  1
  Al  Al3  1  0.88963435  0.20614023  0.64393885  1
  Al  Al4  1  0.44087124  0.10009761  0.39531249  1
  Al  Al5  1  0.11067024  0.09487331  0.89455523  1
  Al  Al6  1  0.21812951  0.20972025  0.64485718  1
  Al  Al7  1  0.77882489  0.09401611  0.39806167  1
  Al  Al8  1  0.89289306  0.20442717  0.14486335  1
  Al  Al9  1  0.44087213  0.09236260  0.89531390  1
  Al  Al10  1  0.55440491  0.20912579  0.64679262  1
  Al  Al11  1  0.11067167  0.42778641  0.39455326  1
  Al  Al12  1  0.21941534  0.54291882  0.14506132  1
  Al  Al13  1  0.77788002  0.42772902  0.89401074  1
  Al  Al14  1  0.89289296  0.53601439  0.64486417  1
  Al  Al15  1  0.44427048  0.42856480  0.39845832  1
  Al  Al16  1  0.55490286  0.54162115  0.14449014  1
  Al  Al17  1  0.11117994  0.42808532  0.89449983  1
  Al  Al18  1  0.22068734  0.53957462  0.64340269  1
  Al  Al19  1  0.77788051  0.42772523  0.39401094  1
  Al  Al20  1  0.88963373  0.53755923  0.14394060  1
  Al  Al21  1  0.44075836  0.43427966  0.89122249  1
  Al  Al22  1  0.55490311  0.53681038  0.64449482  1
  Al  Al23  1  0.11114656  0.76170765  0.39476119  1
  Al  Al24  1  0.22068935  0.87307030  0.14340029  1
  Al  Al25  1  0.77882629  0.76049197  0.89806180  1
  Al  Al26  1  0.89363975  0.86951984  0.64457544  1
  Al  Al27  1  0.44075871  0.75829746  0.39122134  1
  Al  Al28  1  0.55440518  0.86979924  0.14679290  1
  Al  Al29  1  0.11114565  0.76048020  0.89476188  1
  Al  Al30  1  0.21941541  0.87100082  0.64506431  1
  Al  Al31  1  0.78398921  0.75789271  0.39099890  1
  Al  Al32  1  0.89364143  0.87017075  0.14457507  1
  Al  Al33  1  0.44427045  0.76049643  0.89846059  1
  Sc  Sc34  1  0.55653213  0.20677201  0.13515294  1
  Sc  Sc35  1  0.55653535  0.87003269  0.63515438  1
  N  N36  1  0.22035049  0.20644979  0.33643206  1
  N  N37  1  0.11080298  0.09481392  0.08629434  1
  N  N38  1  0.88987822  0.20674867  0.83481783  1
  N  N39  1  0.77841625  0.09351918  0.59093732  1
  N  N40  1  0.55681010  0.20649981  0.34762757  1
  N  N41  1  0.43339463  0.08526490  0.08516194  1
  N  N42  1  0.22035205  0.20653286  0.83643219  1
  N  N43  1  0.11192346  0.09356393  0.58702332  1
  N  N44  1  0.88890448  0.20537527  0.33794662  1
  N  N45  1  0.79982863  0.08384184  0.08029214  1
  N  N46  1  0.55538519  0.20567507  0.84437085  1
  N  N47  1  0.43339417  0.11467433  0.58516593  1
  N  N48  1  0.22241876  0.53887054  0.33814510  1
  N  N49  1  0.11192541  0.42784454  0.08702211  1
  N  N50  1  0.88890566  0.53905113  0.83794499  1
  N  N51  1  0.77749963  0.42874441  0.58671757  1
  N  N52  1  0.55645215  0.53663088  0.33598570  1
  N  N53  1  0.43292398  0.44998279  0.08037236  1
  N  N54  1  0.21993716  0.53991565  0.83476153  1
  N  N55  1  0.11080322  0.42771799  0.58629635  1
  N  N56  1  0.88987743  0.53670644  0.33481516  1
  N  N57  1  0.77750016  0.42708701  0.08671883  1
  N  N58  1  0.55645211  0.54024942  0.83598080  1
  N  N59  1  0.44371166  0.42851405  0.59045741  1
  N  N60  1  0.21993593  0.87347868  0.33476414  1
  N  N61  1  0.11137097  0.76080566  0.08635552  1
  N  N62  1  0.88982875  0.86987822  0.83605450  1
  N  N63  1  0.79982917  0.74966405  0.58029314  1
  N  N64  1  0.55538621  0.87227227  0.34437091  1
  N  N65  1  0.44371095  0.76110871  0.09045966  1
  N  N66  1  0.22241814  0.87204572  0.83814196  1
  N  N67  1  0.11137080  0.76115470  0.58635338  1
  N  N68  1  0.88982945  0.87362672  0.33605350  1
  N  N69  1  0.77841645  0.76139985  0.09093901  1
  N  N70  1  0.55680835  0.87002599  0.84762682  1
  N  N71  1  0.43292308  0.75042300  0.58037054  1
