# generated using pymatgen
data_ScAl17N18
_symmetry_space_group_name_H-M   'P 1'
_cell_length_a   9.69876198
_cell_length_b   9.69560576
_cell_length_c   9.42187677
_cell_angle_alpha   90.00000599
_cell_angle_beta   90.01820062
_cell_angle_gamma   60.01488279
_symmetry_Int_Tables_number   1
_chemical_formula_structural   ScAl17N18
_chemical_formula_sum   'Sc2 Al34 N36'
_cell_volume   767.40457208
_cell_formula_units_Z   2
loop_
 _symmetry_equiv_pos_site_id
 _symmetry_equiv_pos_as_xyz
  1  'x, y, z'
loop_
 _atom_site_type_symbol
 _atom_site_label
 _atom_site_symmetry_multiplicity
 _atom_site_fract_x
 _atom_site_fract_y
 _atom_site_fract_z
 _atom_site_occupancy
  Al  Al0  1  0.11188178  0.09326207  0.37853190  1
  Al  Al1  1  0.21777167  0.20552550  0.12843025  1
  Al  Al2  1  0.78568381  0.09103013  0.87273833  1
  Al  Al3  1  0.88987946  0.20657051  0.62538553  1
  Al  Al4  1  0.44025406  0.10160796  0.37693277  1
  Al  Al5  1  0.10979597  0.09577183  0.87797028  1
  Al  Al6  1  0.21777037  0.21004048  0.62843109  1
  Al  Al7  1  0.77835866  0.09401057  0.38151220  1
  Al  Al8  1  0.89284595  0.20438697  0.13051882  1
  Al  Al9  1  0.44025490  0.09146840  0.87693214  1
  Al  Al10  1  0.55442838  0.20918121  0.63020187  1
  Al  Al11  1  0.10979599  0.42776266  0.37796993  1
  Al  Al12  1  0.21953475  0.54275057  0.13076670  1
  Al  Al13  1  0.77799053  0.42695206  0.87771221  1
  Al  Al14  1  0.89284578  0.53610198  0.63051905  1
  Al  Al15  1  0.44494244  0.42806159  0.38170499  1
  Al  Al16  1  0.55524242  0.54083927  0.12814977  1
  Al  Al17  1  0.11188169  0.42818681  0.87853212  1
  Al  Al18  1  0.22009119  0.53985375  0.62505829  1
  Al  Al19  1  0.77799090  0.42838673  0.37771242  1
  Al  Al20  1  0.88987950  0.53688483  0.12538524  1
  Al  Al21  1  0.43943713  0.43594218  0.87334883  1
  Al  Al22  1  0.55524321  0.53725503  0.62814944  1
  Al  Al23  1  0.11113157  0.76266296  0.37855990  1
  Al  Al24  1  0.22009138  0.87339236  0.12505890  1
  Al  Al25  1  0.77835902  0.76096010  0.88151242  1
  Al  Al26  1  0.89377066  0.86891517  0.62822661  1
  Al  Al27  1  0.43943833  0.75795104  0.37334831  1
  Al  Al28  1  0.55442934  0.86972747  0.13020179  1
  Al  Al29  1  0.11113161  0.75953616  0.87855933  1
  Al  Al30  1  0.21953622  0.87105104  0.63076644  1
  Al  Al31  1  0.78568393  0.75661469  0.37273834  1
  Al  Al32  1  0.89377050  0.87064917  0.12822717  1
  Al  Al33  1  0.44494266  0.76032645  0.88170522  1
  Sc  Sc34  1  0.55676839  0.20663139  0.11042796  1
  Sc  Sc35  1  0.55676855  0.86994153  0.61042825  1
  N  N36  1  0.21959507  0.20670089  0.33075281  1
  N  N37  1  0.10984901  0.09567324  0.08039943  1
  N  N38  1  0.89011296  0.20712636  0.82690287  1
  N  N39  1  0.77802107  0.09339478  0.58590041  1
  N  N40  1  0.55707732  0.20674894  0.33832912  1
  N  N41  1  0.43312328  0.08465009  0.08018148  1
  N  N42  1  0.21959557  0.20704381  0.83075416  1
  N  N43  1  0.11278584  0.09274898  0.58150065  1
  N  N44  1  0.88907928  0.20542526  0.33455890  1
  N  N45  1  0.80095012  0.08386640  0.07454997  1
  N  N46  1  0.55547809  0.20577422  0.84071482  1
  N  N47  1  0.43312097  0.11555585  0.58018130  1
  N  N48  1  0.22220812  0.53905662  0.33462800  1
  N  N49  1  0.11278601  0.42779217  0.08150055  1
  N  N50  1  0.88907920  0.53883410  0.83455943  1
  N  N51  1  0.77760071  0.42970857  0.58091241  1
  N  N52  1  0.55687377  0.53623452  0.33037900  1
  N  N53  1  0.43201743  0.45079638  0.07498537  1
  N  N54  1  0.21937018  0.54013609  0.82713193  1
  N  N55  1  0.10984879  0.42780504  0.58039944  1
  N  N56  1  0.89011330  0.53609910  0.32690228  1
  N  N57  1  0.77759975  0.42601575  0.08091230  1
  N  N58  1  0.55687371  0.54023199  0.83037871  1
  N  N59  1  0.44431796  0.42833705  0.58539486  1
  N  N60  1  0.21937129  0.87383335  0.32713283  1
  N  N61  1  0.11133660  0.75990307  0.08077846  1
  N  N62  1  0.89015852  0.86935362  0.83040705  1
  N  N63  1  0.80095022  0.74850760  0.57454995  1
  N  N64  1  0.55547822  0.87208764  0.34071474  1
  N  N65  1  0.44431806  0.76067242  0.08539531  1
  N  N66  1  0.22220863  0.87207505  0.83462750  1
  N  N67  1  0.11133691  0.76208790  0.58077836  1
  N  N68  1  0.89015823  0.87382662  0.33040816  1
  N  N69  1  0.77802210  0.76190871  0.08590049  1
  N  N70  1  0.55707736  0.86951400  0.83832940  1
  N  N71  1  0.43201977  0.75051310  0.57498598  1
