# generated using pymatgen
data_ScAl17N18
_symmetry_space_group_name_H-M   'P 1'
_cell_length_a   9.89105238
_cell_length_b   9.88600209
_cell_length_c   8.82678782
_cell_angle_alpha   90.00000024
_cell_angle_beta   89.98521412
_cell_angle_gamma   60.01774809
_symmetry_Int_Tables_number   1
_chemical_formula_structural   ScAl17N18
_chemical_formula_sum   'Sc2 Al34 N36'
_cell_volume   747.60834641
_cell_formula_units_Z   2
loop_
 _symmetry_equiv_pos_site_id
 _symmetry_equiv_pos_as_xyz
  1  'x, y, z'
loop_
 _atom_site_type_symbol
 _atom_site_label
 _atom_site_symmetry_multiplicity
 _atom_site_fract_x
 _atom_site_fract_y
 _atom_site_fract_z
 _atom_site_occupancy
  Al  Al0  1  0.10942980  0.09603641  0.34025110  1
  Al  Al1  1  0.21753730  0.20594424  0.08976711  1
  Al  Al2  1  0.78032335  0.09286590  0.83573562  1
  Al  Al3  1  0.89003739  0.20668600  0.59324885  1
  Al  Al4  1  0.44015144  0.09469847  0.34317129  1
  Al  Al5  1  0.11215023  0.09297164  0.83910316  1
  Al  Al6  1  0.21753712  0.20985270  0.58976700  1
  Al  Al7  1  0.78393230  0.09215045  0.34716023  1
  Al  Al8  1  0.89254456  0.20475319  0.08659801  1
  Al  Al9  1  0.44015135  0.09848244  0.84317098  1
  Al  Al10  1  0.55468786  0.20885548  0.59412638  1
  Al  Al11  1  0.11215031  0.42821082  0.33910311  1
  Al  Al12  1  0.21951583  0.54237575  0.08640666  1
  Al  Al13  1  0.77799419  0.42878480  0.84013034  1
  Al  Al14  1  0.89254464  0.53603643  0.58659796  1
  Al  Al15  1  0.44025357  0.43396056  0.34642431  1
  Al  Al16  1  0.55560289  0.54027548  0.08987184  1
  Al  Al17  1  0.10942988  0.42786649  0.84025115  1
  Al  Al18  1  0.21981719  0.54001976  0.59337089  1
  Al  Al19  1  0.77799415  0.42655391  0.34013036  1
  Al  Al20  1  0.89003746  0.53661079  0.09324891  1
  Al  Al21  1  0.44391516  0.43005207  0.83601003  1
  Al  Al22  1  0.55560296  0.53745551  0.58987191  1
  Al  Al23  1  0.11122915  0.75928046  0.33938544  1
  Al  Al24  1  0.21981708  0.87349735  0.09337081  1
  Al  Al25  1  0.78393232  0.75724991  0.84716029  1
  Al  Al26  1  0.89364658  0.86896628  0.58973241  1
  Al  Al27  1  0.44391511  0.75936510  0.33600996  1
  Al  Al28  1  0.55468787  0.86979057  0.09412641  1
  Al  Al29  1  0.11122913  0.76282307  0.83938530  1
  Al  Al30  1  0.21951601  0.87144250  0.58640675  1
  Al  Al31  1  0.78032332  0.76014348  0.33573559  1
  Al  Al32  1  0.89364655  0.87072131  0.08973237  1
  Al  Al33  1  0.44025362  0.75911820  0.84642452  1
  Sc  Sc34  1  0.55705540  0.20661447  0.10273455  1
  Sc  Sc35  1  0.55705553  0.86966451  0.60273452  1
  N  N36  1  0.21913537  0.20736901  0.36790449  1
  N  N37  1  0.10948242  0.09588544  0.11871641  1
  N  N38  1  0.88931268  0.20566282  0.86302543  1
  N  N39  1  0.77910867  0.09280866  0.61293104  1
  N  N40  1  0.55580549  0.20592959  0.36490032  1
  N  N41  1  0.43377369  0.08700946  0.11651321  1
  N  N42  1  0.21913532  0.20683039  0.86790470  1
  N  N43  1  0.11292902  0.09248497  0.61737075  1
  N  N44  1  0.88998531  0.20710927  0.37326166  1
  N  N45  1  0.79860692  0.08525237  0.12286548  1
  N  N46  1  0.55699982  0.20657518  0.85559923  1
  N  N47  1  0.43377347  0.11254863  0.61651312  1
  N  N48  1  0.21958544  0.53997526  0.37273825  1
  N  N49  1  0.11292911  0.42791802  0.11737080  1
  N  N50  1  0.88998545  0.53624023  0.87326178  1
  N  N51  1  0.77769084  0.42997337  0.61808227  1
  N  N52  1  0.55701920  0.53962042  0.36830678  1
  N  N53  1  0.43312025  0.44816668  0.12227277  1
  N  N54  1  0.22173876  0.53929383  0.86334058  1
  N  N55  1  0.10948252  0.42796419  0.61871640  1
  N  N56  1  0.88931275  0.53835929  0.36302534  1
  N  N57  1  0.77769075  0.42566790  0.11808226  1
  N  N58  1  0.55701924  0.53669486  0.86830674  1
  N  N59  1  0.44383558  0.42934954  0.61344681  1
  N  N60  1  0.22173877  0.87230214  0.36334069  1
  N  N61  1  0.11145575  0.75960710  0.11821534  1
  N  N62  1  0.89035917  0.87323419  0.86834887  1
  N  N63  1  0.79860696  0.74947257  0.62286551  1
  N  N64  1  0.55699978  0.86975929  0.35559924  1
  N  N65  1  0.44383546  0.76014664  0.11344669  1
  N  N66  1  0.21958550  0.87377407  0.87273809  1
  N  N67  1  0.11145580  0.76226923  0.61821536  1
  N  N68  1  0.89035922  0.86974137  0.36834902  1
  N  N69  1  0.77910869  0.76141471  0.11293102  1
  N  N70  1  0.55580546  0.87159926  0.86490033  1
  N  N71  1  0.43312044  0.75204470  0.62227279  1
