# generated using pymatgen
data_ScAl17N18
_symmetry_space_group_name_H-M   'P 1'
_cell_length_a   9.50002983
_cell_length_b   9.49760439
_cell_length_c   9.99128112
_cell_angle_alpha   89.99995139
_cell_angle_beta   90.02262205
_cell_angle_gamma   60.00780450
_symmetry_Int_Tables_number   1
_chemical_formula_structural   ScAl17N18
_chemical_formula_sum   'Sc2 Al34 N36'
_cell_volume   780.77331015
_cell_formula_units_Z   2
loop_
 _symmetry_equiv_pos_site_id
 _symmetry_equiv_pos_as_xyz
  1  'x, y, z'
loop_
 _atom_site_type_symbol
 _atom_site_label
 _atom_site_symmetry_multiplicity
 _atom_site_fract_x
 _atom_site_fract_y
 _atom_site_fract_z
 _atom_site_occupancy
  Al  Al0  1  0.11118749  0.09406738  0.40940597  1
  Al  Al1  1  0.21812528  0.20548290  0.15976157  1
  Al  Al2  1  0.78400609  0.09144513  0.90590358  1
  Al  Al3  1  0.88963631  0.20613884  0.65883740  1
  Al  Al4  1  0.44086133  0.10012867  0.41020302  1
  Al  Al5  1  0.11066966  0.09487965  0.90945895  1
  Al  Al6  1  0.21812556  0.20972449  0.65976145  1
  Al  Al7  1  0.77880698  0.09402568  0.41295433  1
  Al  Al8  1  0.89289748  0.20442447  0.15977750  1
  Al  Al9  1  0.44086114  0.09234351  0.91020276  1
  Al  Al10  1  0.55439845  0.20913074  0.66172078  1
  Al  Al11  1  0.11066966  0.42778444  0.40945901  1
  Al  Al12  1  0.21940817  0.54291922  0.15997955  1
  Al  Al13  1  0.77788192  0.42772406  0.90891834  1
  Al  Al14  1  0.89289765  0.53601146  0.65977744  1
  Al  Al15  1  0.44427494  0.42855248  0.41335414  1
  Al  Al16  1  0.55489747  0.54162508  0.15939884  1
  Al  Al17  1  0.11118751  0.42807882  0.90940588  1
  Al  Al18  1  0.22068438  0.53957440  0.65830084  1
  Al  Al19  1  0.77788187  0.42772817  0.40891840  1
  Al  Al20  1  0.88963623  0.53755847  0.15883733  1
  Al  Al21  1  0.44074040  0.43430089  0.90612974  1
  Al  Al22  1  0.55489715  0.53681016  0.65939890  1
  Al  Al23  1  0.11114390  0.76171329  0.40966886  1
  Al  Al24  1  0.22068427  0.87307402  0.15830073  1
  Al  Al25  1  0.77880680  0.76050145  0.91295417  1
  Al  Al26  1  0.89363690  0.86952404  0.65948336  1
  Al  Al27  1  0.44074008  0.75829223  0.40612969  1
  Al  Al28  1  0.55439809  0.86980352  0.16172076  1
  Al  Al29  1  0.11114396  0.76047639  0.90966896  1
  Al  Al30  1  0.21940780  0.87100551  0.65997957  1
  Al  Al31  1  0.78400601  0.75788299  0.40590355  1
  Al  Al32  1  0.89363701  0.87017238  0.15948323  1
  Al  Al33  1  0.44427483  0.76050608  0.91335413  1
  Sc  Sc34  1  0.55651193  0.20676251  0.14996566  1
  Sc  Sc35  1  0.55651202  0.87005691  0.64996550  1
  N  N36  1  0.22033805  0.20645699  0.35137601  1
  N  N37  1  0.11078856  0.09481705  0.10123991  1
  N  N38  1  0.88987368  0.20675370  0.84975309  1
  N  N39  1  0.77840699  0.09352376  0.60588008  1
  N  N40  1  0.55681271  0.20650700  0.36250994  1
  N  N41  1  0.43339156  0.08524383  0.10010443  1
  N  N42  1  0.22033790  0.20653728  0.85137566  1
  N  N43  1  0.11192463  0.09356173  0.60196667  1
  N  N44  1  0.88889988  0.20538084  0.35289861  1
  N  N45  1  0.79985655  0.08383158  0.09524100  1
  N  N46  1  0.55538529  0.20567907  0.85936325  1
  N  N47  1  0.43339224  0.11469812  0.60010489  1
  N  N48  1  0.22241182  0.53887637  0.35309705  1
  N  N49  1  0.11192457  0.42784824  0.10196663  1
  N  N50  1  0.88889988  0.53905197  0.85289843  1
  N  N51  1  0.77749774  0.42875321  0.60166044  1
  N  N52  1  0.55645441  0.53662825  0.35092882  1
  N  N53  1  0.43291040  0.45001713  0.09532019  1
  N  N54  1  0.21992852  0.53992545  0.84970100  1
  N  N55  1  0.11078870  0.42772880  0.60123992  1
  N  N56  1  0.88987366  0.53670533  0.34975308  1
  N  N57  1  0.77749797  0.42708423  0.10166034  1
  N  N58  1  0.55645435  0.54024936  0.85092889  1
  N  N59  1  0.44371817  0.42851499  0.60540296  1
  N  N60  1  0.21992822  0.87347834  0.34970084  1
  N  N61  1  0.11136417  0.76080816  0.10129993  1
  N  N62  1  0.88982879  0.86987661  0.85099681  1
  N  N63  1  0.79985655  0.74964710  0.59524097  1
  N  N64  1  0.55538517  0.87226768  0.35936330  1
  N  N65  1  0.44371811  0.76110095  0.10540292  1
  N  N66  1  0.22241167  0.87204403  0.85309715  1
  N  N67  1  0.11136401  0.76116203  0.60129996  1
  N  N68  1  0.88982875  0.87362720  0.35099662  1
  N  N69  1  0.77840663  0.76140461  0.10587998  1
  N  N70  1  0.55681262  0.87001217  0.86250965  1
  N  N71  1  0.43290966  0.75040664  0.59531991  1
