# generated using pymatgen
data_ScAl17N18
_symmetry_space_group_name_H-M   'P 1'
_cell_length_a   9.58947852
_cell_length_b   9.58772749
_cell_length_c   9.74131364
_cell_angle_alpha   89.99987104
_cell_angle_beta   89.98132753
_cell_angle_gamma   60.01297377
_symmetry_Int_Tables_number   1
_chemical_formula_structural   ScAl17N18
_chemical_formula_sum   'Sc2 Al34 N36'
_cell_volume   775.73888504
_cell_formula_units_Z   2
loop_
 _symmetry_equiv_pos_site_id
 _symmetry_equiv_pos_as_xyz
  1  'x, y, z'
loop_
 _atom_site_type_symbol
 _atom_site_label
 _atom_site_symmetry_multiplicity
 _atom_site_fract_x
 _atom_site_fract_y
 _atom_site_fract_z
 _atom_site_occupancy
  Al  Al0  1  0.11025575  0.09530138  0.32717256  1
  Al  Al1  1  0.21796284  0.20536805  0.07689074  1
  Al  Al2  1  0.77804673  0.09431778  0.82426622  1
  Al  Al3  1  0.88969314  0.20633485  0.57888224  1
  Al  Al4  1  0.44048251  0.09097641  0.32753940  1
  Al  Al5  1  0.11154016  0.09366271  0.82698753  1
  Al  Al6  1  0.21795995  0.21001081  0.57688960  1
  Al  Al7  1  0.78553058  0.09088665  0.33125038  1
  Al  Al8  1  0.89298204  0.20436822  0.07574478  1
  Al  Al9  1  0.44048070  0.10187160  0.82753868  1
  Al  Al10  1  0.55437521  0.20934004  0.57363676  1
  Al  Al11  1  0.11153976  0.42812543  0.32698713  1
  Al  Al12  1  0.21937377  0.54295638  0.07549559  1
  Al  Al13  1  0.77797059  0.42802178  0.82761963  1
  Al  Al14  1  0.89298142  0.53598428  0.57574423  1
  Al  Al15  1  0.43973558  0.43585732  0.33081449  1
  Al  Al16  1  0.55505822  0.54140831  0.07718452  1
  Al  Al17  1  0.11025549  0.42777122  0.82717313  1
  Al  Al18  1  0.22050915  0.53966281  0.57931615  1
  Al  Al19  1  0.77796991  0.42733328  0.32761972  1
  Al  Al20  1  0.88969311  0.53730688  0.07888273  1
  Al  Al21  1  0.44490172  0.42777845  0.82389738  1
  Al  Al22  1  0.55506057  0.53687332  0.57718464  1
  Al  Al23  1  0.11112112  0.76000771  0.32677183  1
  Al  Al24  1  0.22050980  0.87316865  0.07931525  1
  Al  Al25  1  0.78553115  0.75690630  0.83125019  1
  Al  Al26  1  0.89371997  0.86932870  0.57711323  1
  Al  Al27  1  0.44490245  0.76064896  0.32389714  1
  Al  Al28  1  0.55437812  0.86962512  0.07363648  1
  Al  Al29  1  0.11112119  0.76219991  0.82677087  1
  Al  Al30  1  0.21937729  0.87100874  0.57549591  1
  Al  Al31  1  0.77804773  0.76096064  0.32426575  1
  Al  Al32  1  0.89371937  0.87028664  0.07711214  1
  Al  Al33  1  0.43973842  0.75773546  0.83081485  1
  Sc  Sc34  1  0.55651570  0.20658399  0.09302146  1
  Sc  Sc35  1  0.55651586  0.87025057  0.59302076  1
  N  N36  1  0.21994684  0.20676755  0.38120420  1
  N  N37  1  0.11031645  0.09522900  0.13135896  1
  N  N38  1  0.88900869  0.20541481  0.87853602  1
  N  N39  1  0.77777163  0.09367077  0.62657901  1
  N  N40  1  0.55541485  0.20575707  0.37052888  1
  N  N41  1  0.43307099  0.08398775  0.13238926  1
  N  N42  1  0.21994555  0.20663259  0.88120658  1
  N  N43  1  0.11242400  0.09313773  0.63049464  1
  N  N44  1  0.89003931  0.20692058  0.38387295  1
  N  N45  1  0.80119453  0.08344596  0.13728750  1
  N  N46  1  0.55694270  0.20670778  0.87397556  1
  N  N47  1  0.43306578  0.11626797  0.63239044  1
  N  N48  1  0.21961814  0.54008386  0.38379049  1
  N  N49  1  0.11242420  0.42775834  0.13049471  1
  N  N50  1  0.89003975  0.53638253  0.88387420  1
  N  N51  1  0.77757437  0.42924354  0.63092748  1
  N  N52  1  0.55670539  0.54024265  0.38158904  1
  N  N53  1  0.43205439  0.45123087  0.13701921  1
  N  N54  1  0.22229169  0.53898703  0.87834520  1
  N  N55  1  0.11031571  0.42777589  0.63135905  1
  N  N56  1  0.88900833  0.53891956  0.37853503  1
  N  N57  1  0.77757218  0.42649718  0.13092741  1
  N  N58  1  0.55670547  0.53639950  0.88158864  1
  N  N59  1  0.44428302  0.42804641  0.62704165  1
  N  N60  1  0.22229286  0.87206774  0.37834609  1
  N  N61  1  0.11132025  0.76032947  0.13113835  1
  N  N62  1  0.89000992  0.87372961  0.88154065  1
  N  N63  1  0.80119517  0.74867365  0.63728752  1
  N  N64  1  0.55694293  0.86969766  0.37397492  1
  N  N65  1  0.44428341  0.76099343  0.12704107  1
  N  N66  1  0.21962085  0.87364358  0.88378887  1
  N  N67  1  0.11132144  0.76167236  0.63113831  1
  N  N68  1  0.89001044  0.86960363  0.38154269  1
  N  N69  1  0.77777415  0.76187177  0.12657899  1
  N  N70  1  0.55541528  0.87217542  0.87052896  1
  N  N71  1  0.43205985  0.75003655  0.63701735  1
