# generated using pymatgen
data_ScAl17N18
_symmetry_space_group_name_H-M   'P 1'
_cell_length_a   9.49900987
_cell_length_b   9.49653452
_cell_length_c   9.99393503
_cell_angle_alpha   89.99999054
_cell_angle_beta   89.97691971
_cell_angle_gamma   60.00866271
_symmetry_Int_Tables_number   1
_chemical_formula_structural   ScAl17N18
_chemical_formula_sum   'Sc2 Al34 N36'
_cell_volume   780.81563355
_cell_formula_units_Z   2
loop_
 _symmetry_equiv_pos_site_id
 _symmetry_equiv_pos_as_xyz
  1  'x, y, z'
loop_
 _atom_site_type_symbol
 _atom_site_label
 _atom_site_symmetry_multiplicity
 _atom_site_fract_x
 _atom_site_fract_y
 _atom_site_fract_z
 _atom_site_occupancy
  Al  Al0  1  0.11068315  0.09487151  0.30259018  1
  Al  Al1  1  0.21813939  0.20548085  0.05228547  1
  Al  Al2  1  0.77883147  0.09401271  0.79909103  1
  Al  Al3  1  0.88964604  0.20613222  0.55320435  1
  Al  Al4  1  0.44087686  0.09236513  0.30183391  1
  Al  Al5  1  0.11119392  0.09406569  0.80264453  1
  Al  Al6  1  0.21813939  0.20971311  0.55228550  1
  Al  Al7  1  0.78399230  0.09144966  0.30615694  1
  Al  Al8  1  0.89290638  0.20441921  0.05228574  1
  Al  Al9  1  0.44087681  0.10009132  0.80183404  1
  Al  Al10  1  0.55441005  0.20911984  0.55036692  1
  Al  Al11  1  0.11119391  0.42807382  0.30264451  1
  Al  Al12  1  0.21942247  0.54291061  0.05208517  1
  Al  Al13  1  0.77789019  0.42772062  0.80313383  1
  Al  Al14  1  0.89290646  0.53600774  0.55228575  1
  Al  Al15  1  0.44076571  0.43426880  0.30593223  1
  Al  Al16  1  0.55490525  0.54162067  0.05265778  1
  Al  Al17  1  0.11068318  0.42777862  0.80259034  1
  Al  Al18  1  0.22069657  0.53956759  0.55374351  1
  Al  Al19  1  0.77789013  0.42772260  0.30313381  1
  Al  Al20  1  0.88964611  0.53755506  0.05320427  1
  Al  Al21  1  0.44427536  0.42856089  0.79869382  1
  Al  Al22  1  0.55490527  0.53680753  0.55265788  1
  Al  Al23  1  0.11115592  0.76047423  0.30238495  1
  Al  Al24  1  0.22069653  0.87306915  0.05374340  1
  Al  Al25  1  0.78399236  0.75789136  0.80615709  1
  Al  Al26  1  0.89364783  0.86951743  0.55257238  1
  Al  Al27  1  0.44427543  0.76049701  0.29869382  1
  Al  Al28  1  0.55441002  0.86980342  0.05036693  1
  Al  Al29  1  0.11115595  0.76170310  0.80238493  1
  Al  Al30  1  0.21942260  0.87100020  0.55208510  1
  Al  Al31  1  0.77883145  0.76048918  0.29909096  1
  Al  Al32  1  0.89364779  0.87016808  0.05257244  1
  Al  Al33  1  0.44076574  0.75829882  0.80593233  1
  Sc  Sc34  1  0.55652919  0.20676048  0.06199277  1
  Sc  Sc35  1  0.55652993  0.87004368  0.56199290  1
  N  N36  1  0.22035343  0.20653103  0.36071259  1
  N  N37  1  0.11080369  0.09480877  0.11085031  1
  N  N38  1  0.88890897  0.20537511  0.85920481  1
  N  N39  1  0.77842859  0.09351298  0.60621677  1
  N  N40  1  0.55539639  0.20567196  0.35278746  1
  N  N41  1  0.43340833  0.08526715  0.11198650  1
  N  N42  1  0.22035339  0.20644882  0.86071258  1
  N  N43  1  0.11192730  0.09356106  0.61012470  1
  N  N44  1  0.88988288  0.20674822  0.36232988  1
  N  N45  1  0.79984312  0.08383496  0.11686029  1
  N  N46  1  0.55682170  0.20649781  0.84952103  1
  N  N47  1  0.43340821  0.11465800  0.61198658  1
  N  N48  1  0.21994245  0.53991808  0.36238445  1
  N  N49  1  0.11192730  0.42784481  0.11012492  1
  N  N50  1  0.88988298  0.53670217  0.86232999  1
  N  N51  1  0.77750618  0.42874244  0.61043218  1
  N  N52  1  0.55646185  0.54024546  0.36116792  1
  N  N53  1  0.43293510  0.44998493  0.11678192  1
  N  N54  1  0.22242383  0.53886996  0.85900796  1
  N  N55  1  0.11080370  0.42772076  0.61085053  1
  N  N56  1  0.88890899  0.53904928  0.35920492  1
  N  N57  1  0.77750617  0.42708458  0.11043231  1
  N  N58  1  0.55646190  0.53662605  0.86116785  1
  N  N59  1  0.44371930  0.42851788  0.60669597  1
  N  N60  1  0.22242378  0.87203956  0.35900802  1
  N  N61  1  0.11137652  0.76080642  0.11079485  1
  N  N62  1  0.88983962  0.87362122  0.86109936  1
  N  N63  1  0.79984336  0.74965501  0.61686025  1
  N  N64  1  0.55682172  0.87001396  0.34952111  1
  N  N65  1  0.44371930  0.76109604  0.10669599  1
  N  N66  1  0.21994237  0.87347290  0.86238460  1
  N  N67  1  0.11137648  0.76115025  0.61079509  1
  N  N68  1  0.88983964  0.86987247  0.36109936  1
  N  N69  1  0.77842856  0.76139160  0.10621673  1
  N  N70  1  0.55539645  0.87226503  0.85278740  1
  N  N71  1  0.43293517  0.75041340  0.61678187  1
