# generated using pymatgen
data_ScAl17N18
_symmetry_space_group_name_H-M   'P 1'
_cell_length_a   9.49901938
_cell_length_b   9.49652637
_cell_length_c   9.99392032
_cell_angle_alpha   90.00000587
_cell_angle_beta   90.02313926
_cell_angle_gamma   60.00877940
_symmetry_Int_Tables_number   1
_chemical_formula_structural   ScAl17N18
_chemical_formula_sum   'Sc2 Al34 N36'
_cell_volume   780.81551286
_cell_formula_units_Z   2
loop_
 _symmetry_equiv_pos_site_id
 _symmetry_equiv_pos_as_xyz
  1  'x, y, z'
loop_
 _atom_site_type_symbol
 _atom_site_label
 _atom_site_symmetry_multiplicity
 _atom_site_fract_x
 _atom_site_fract_y
 _atom_site_fract_z
 _atom_site_occupancy
  Al  Al0  1  0.11118403  0.09407071  0.40582965  1
  Al  Al1  1  0.21812926  0.20548572  0.15618826  1
  Al  Al2  1  0.78398242  0.09145447  0.90231741  1
  Al  Al3  1  0.88963604  0.20613720  0.65526990  1
  Al  Al4  1  0.44086640  0.10009702  0.40664017  1
  Al  Al5  1  0.11067325  0.09487648  0.90588365  1
  Al  Al6  1  0.21812913  0.20971850  0.65618836  1
  Al  Al7  1  0.77882131  0.09401778  0.40938277  1
  Al  Al8  1  0.89289643  0.20442405  0.15618866  1
  Al  Al9  1  0.44086651  0.09236968  0.90663974  1
  Al  Al10  1  0.55439997  0.20912535  0.65810783  1
  Al  Al11  1  0.11067323  0.42778370  0.40588377  1
  Al  Al12  1  0.21941235  0.54291549  0.15638938  1
  Al  Al13  1  0.77788005  0.42772737  0.90534059  1
  Al  Al14  1  0.89289642  0.53601266  0.65618870  1
  Al  Al15  1  0.44426550  0.42856568  0.40978023  1
  Al  Al16  1  0.55489526  0.54162552  0.15581659  1
  Al  Al17  1  0.11118410  0.42807853  0.90582955  1
  Al  Al18  1  0.22068678  0.53957272  0.65473092  1
  Al  Al19  1  0.77788008  0.42772579  0.40534070  1
  Al  Al20  1  0.88963609  0.53756002  0.15527002  1
  Al  Al21  1  0.44075563  0.43427377  0.90254235  1
  Al  Al22  1  0.55489521  0.53681247  0.65581669  1
  Al  Al23  1  0.11114595  0.76170811  0.40608946  1
  Al  Al24  1  0.22068673  0.87307395  0.15473082  1
  Al  Al25  1  0.77882120  0.76049424  0.90938270  1
  Al  Al26  1  0.89363788  0.86952280  0.65590188  1
  Al  Al27  1  0.44075556  0.75830366  0.40254252  1
  Al  Al28  1  0.55439998  0.86980825  0.15810750  1
  Al  Al29  1  0.11114593  0.76047926  0.90608937  1
  Al  Al30  1  0.21941239  0.87100553  0.65638944  1
  Al  Al31  1  0.78398266  0.75789620  0.40231746  1
  Al  Al32  1  0.89363764  0.87017290  0.15590173  1
  Al  Al33  1  0.44426537  0.76050198  0.90977982  1
  Sc  Sc34  1  0.55652022  0.20676413  0.14648071  1
  Sc  Sc35  1  0.55651972  0.87004957  0.64648033  1
  N  N36  1  0.22034331  0.20645406  0.34776168  1
  N  N37  1  0.11079325  0.09481377  0.09762400  1
  N  N38  1  0.88987289  0.20675320  0.84614469  1
  N  N39  1  0.77841829  0.09351827  0.60225759  1
  N  N40  1  0.55681177  0.20650291  0.35895251  1
  N  N41  1  0.43339771  0.08527165  0.09648761  1
  N  N42  1  0.22034332  0.20653630  0.84776168  1
  N  N43  1  0.11191707  0.09356626  0.59834970  1
  N  N44  1  0.88889918  0.20538018  0.34926990  1
  N  N45  1  0.79983359  0.08383954  0.09161438  1
  N  N46  1  0.55538680  0.20567685  0.85568781  1
  N  N47  1  0.43339766  0.11466389  0.59648731  1
  N  N48  1  0.22241385  0.53887516  0.34946652  1
  N  N49  1  0.11191700  0.42784986  0.09834965  1
  N  N50  1  0.88889926  0.53905409  0.84926968  1
  N  N51  1  0.77749599  0.42874764  0.59804252  1
  N  N52  1  0.55645230  0.53663108  0.34730683  1
  N  N53  1  0.43292483  0.44998992  0.09169325  1
  N  N54  1  0.21993257  0.53992315  0.84609005  1
  N  N55  1  0.11079338  0.42772623  0.59762372  1
  N  N56  1  0.88987300  0.53670743  0.34614472  1
  N  N57  1  0.77749614  0.42708938  0.09804259  1
  N  N58  1  0.55645236  0.54024991  0.84730688  1
  N  N59  1  0.44370911  0.42852319  0.60177866  1
  N  N60  1  0.21993259  0.87347796  0.34609011  1
  N  N61  1  0.11136618  0.76081152  0.09767987  1
  N  N62  1  0.88982986  0.86987752  0.84737558  1
  N  N63  1  0.79983376  0.74965998  0.59161441  1
  N  N64  1  0.55538669  0.87226985  0.35568762  1
  N  N65  1  0.44370921  0.76110082  0.10177846  1
  N  N66  1  0.22241377  0.87204467  0.84946685  1
  N  N67  1  0.11136642  0.76115544  0.59767975  1
  N  N68  1  0.88982974  0.87362614  0.34737553  1
  N  N69  1  0.77841827  0.76139647  0.10225777  1
  N  N70  1  0.55681194  0.87001861  0.85895230  1
  N  N71  1  0.43292494  0.75041842  0.59169309  1
