# generated using pymatgen
data_ScAl17N18
_symmetry_space_group_name_H-M   'P 1'
_cell_length_a   9.47242401
_cell_length_b   9.46916363
_cell_length_c   10.06385231
_cell_angle_alpha   90.00000032
_cell_angle_beta   90.02425543
_cell_angle_gamma   60.01138617
_symmetry_Int_Tables_number   1
_chemical_formula_structural   ScAl17N18
_chemical_formula_sum   'Sc2 Al34 N36'
_cell_volume   781.83913160
_cell_formula_units_Z   2
loop_
 _symmetry_equiv_pos_site_id
 _symmetry_equiv_pos_as_xyz
  1  'x, y, z'
loop_
 _atom_site_type_symbol
 _atom_site_label
 _atom_site_symmetry_multiplicity
 _atom_site_fract_x
 _atom_site_fract_y
 _atom_site_fract_z
 _atom_site_occupancy
  Al  Al0  1  0.11109473  0.09415937  0.41295790  1
  Al  Al1  1  0.21820963  0.20542345  0.16319518  1
  Al  Al2  1  0.78339782  0.09170468  0.90958180  1
  Al  Al3  1  0.88957278  0.20612298  0.66255644  1
  Al  Al4  1  0.44094724  0.09935399  0.41405734  1
  Al  Al5  1  0.11073987  0.09478602  0.91294677  1
  Al  Al6  1  0.21820964  0.20970024  0.66319517  1
  Al  Al7  1  0.77914010  0.09384736  0.41672103  1
  Al  Al8  1  0.89294470  0.20437098  0.16297988  1
  Al  Al9  1  0.44094724  0.09303211  0.91405734  1
  Al  Al10  1  0.55435636  0.20911208  0.66487436  1
  Al  Al11  1  0.11073986  0.42780743  0.41294677  1
  Al  Al12  1  0.21945981  0.54290018  0.16312033  1
  Al  Al13  1  0.77783921  0.42778449  0.91248824  1
  Al  Al14  1  0.89294472  0.53601765  0.66297988  1
  Al  Al15  1  0.44400281  0.42892388  0.41699412  1
  Al  Al16  1  0.55482875  0.54172323  0.16281915  1
  Al  Al17  1  0.11109474  0.42807921  0.91295790  1
  Al  Al18  1  0.22078576  0.53951038  0.66199785  1
  Al  Al19  1  0.77783921  0.42770963  0.41248825  1
  Al  Al20  1  0.88957278  0.53763759  0.16255644  1
  Al  Al21  1  0.44111704  0.43363346  0.90983060  1
  Al  Al22  1  0.55482874  0.53678135  0.66281914  1
  Al  Al23  1  0.11116385  0.76159490  0.41313054  1
  Al  Al24  1  0.22078577  0.87303718  0.16199785  1
  Al  Al25  1  0.77914010  0.76034586  0.91672103  1
  Al  Al26  1  0.89365344  0.86952565  0.66289402  1
  Al  Al27  1  0.44111705  0.75858284  0.40983059  1
  Al  Al28  1  0.55435634  0.86986489  0.16487436  1
  Al  Al29  1  0.11116384  0.76057458  0.91313054  1
  Al  Al30  1  0.21945982  0.87097333  0.66312033  1
  Al  Al31  1  0.78339782  0.75823084  0.40958180  1
  Al  Al32  1  0.89365345  0.87015425  0.16289401  1
  Al  Al33  1  0.44400281  0.76040663  0.91699412  1
  Sc  Sc34  1  0.55663151  0.20666757  0.15601156  1
  Sc  Sc35  1  0.55663153  0.87003423  0.65601156  1
  N  N36  1  0.22041681  0.20638578  0.35351662  1
  N  N37  1  0.11091760  0.09468206  0.10332893  1
  N  N38  1  0.88981732  0.20671074  0.85217268  1
  N  N39  1  0.77848084  0.09360100  0.60791647  1
  N  N40  1  0.55671451  0.20643258  0.36547145  1
  N  N41  1  0.43366082  0.08559570  0.10230817  1
  N  N42  1  0.22041681  0.20653073  0.85351662  1
  N  N43  1  0.11162794  0.09377876  0.60401577  1
  N  N44  1  0.88884276  0.20535960  0.35475769  1
  N  N45  1  0.79924174  0.08406655  0.09747096  1
  N  N46  1  0.55535988  0.20563120  0.86025630  1
  N  N47  1  0.43366083  0.11407680  0.60230818  1
  N  N48  1  0.22244240  0.53886657  0.35482958  1
  N  N49  1  0.11162793  0.42792662  0.10401577  1
  N  N50  1  0.88884276  0.53913097  0.85475769  1
  N  N51  1  0.77754803  0.42851918  0.60378386  1
  N  N52  1  0.55636039  0.53673680  0.35307754  1
  N  N53  1  0.43333498  0.44929140  0.09755139  1
  N  N54  1  0.22004099  0.53985978  0.85208626  1
  N  N55  1  0.11091761  0.42773365  0.60332893  1
  N  N56  1  0.88981732  0.53680527  0.35217267  1
  N  N57  1  0.77754804  0.42726612  0.10378385  1
  N  N58  1  0.55636038  0.54023614  0.85307753  1
  N  N59  1  0.44365005  0.42850580  0.60737016  1
  N  N60  1  0.22004100  0.87343255  0.35208626  1
  N  N61  1  0.11139119  0.76092202  0.10333626  1
  N  N62  1  0.88980333  0.86991774  0.85313574  1
  N  N63  1  0.79924175  0.75002505  0.59747096  1
  N  N64  1  0.55535988  0.87234226  0.36025630  1
  N  N65  1  0.44365006  0.76117747  0.10737016  1
  N  N66  1  0.22244240  0.87202435  0.85482958  1
  N  N67  1  0.11139119  0.76102012  0.60333627  1
  N  N68  1  0.88980333  0.87361226  0.35313573  1
  N  N69  1  0.77848083  0.76125150  0.10791648  1
  N  N70  1  0.55671451  0.87018623  0.86547145  1
  N  N71  1  0.43333499  0.75070695  0.59755138  1
