# generated using pymatgen
data_Mg3MoN4
_symmetry_space_group_name_H-M   'P 1'
_cell_length_a   4.60313650
_cell_length_b   6.11171051
_cell_length_c   7.07199566
_cell_angle_alpha   89.76509723
_cell_angle_beta   89.99776208
_cell_angle_gamma   89.97167331
_symmetry_Int_Tables_number   1
_chemical_formula_structural   Mg3MoN4
_chemical_formula_sum   'Mg6 Mo2 N8'
_cell_volume   198.95502423
_cell_formula_units_Z   2
loop_
 _symmetry_equiv_pos_site_id
 _symmetry_equiv_pos_as_xyz
  1  'x, y, z'
loop_
 _atom_site_type_symbol
 _atom_site_label
 _atom_site_symmetry_multiplicity
 _atom_site_fract_x
 _atom_site_fract_y
 _atom_site_fract_z
 _atom_site_occupancy
  Mg  Mg0  1  0.90463814  0.85328339  0.75281093  1
  Mg  Mg1  1  0.90468386  0.85338728  0.26568328  1
  Mg  Mg2  1  0.90410785  0.35384810  0.01030239  1
  Mg  Mg3  1  0.40492943  0.18666712  0.25438611  1
  Mg  Mg4  1  0.40488723  0.18675372  0.76712555  1
  Mg  Mg5  1  0.40428438  0.68609899  0.50969375  1
  Mo  Mo6  1  0.36282097  0.68984023  0.00971050  1
  Mo  Mo7  1  0.86316538  0.35016865  0.51029101  1
  N  N8  1  0.95921559  0.69215504  0.00981513  1
  N  N9  1  0.93581297  0.19696898  0.27962523  1
  N  N10  1  0.93567614  0.19713735  0.74198603  1
  N  N11  1  0.43564379  0.84300831  0.24035928  1
  N  N12  1  0.43551402  0.84282570  0.77802254  1
  N  N13  1  0.43495558  0.38208940  0.01019034  1
  N  N14  1  0.93502547  0.65788814  0.50980782  1
  N  N15  1  0.45950774  0.34787961  0.51019010  1
