# generated using pymatgen
data_Mg3MoN4
_symmetry_space_group_name_H-M   'P 1'
_cell_length_a   4.82787666
_cell_length_b   6.02988820
_cell_length_c   6.97489905
_cell_angle_alpha   89.87936113
_cell_angle_beta   89.99938270
_cell_angle_gamma   89.99256667
_symmetry_Int_Tables_number   1
_chemical_formula_structural   Mg3MoN4
_chemical_formula_sum   'Mg6 Mo2 N8'
_cell_volume   203.04971585
_cell_formula_units_Z   2
loop_
 _symmetry_equiv_pos_site_id
 _symmetry_equiv_pos_as_xyz
  1  'x, y, z'
loop_
 _atom_site_type_symbol
 _atom_site_label
 _atom_site_symmetry_multiplicity
 _atom_site_fract_x
 _atom_site_fract_y
 _atom_site_fract_z
 _atom_site_occupancy
  Mg  Mg0  1  0.88931224  0.85260792  0.75438653  1
  Mg  Mg1  1  0.88933472  0.85267672  0.26488316  1
  Mg  Mg2  1  0.88929079  0.35532008  0.01014484  1
  Mg  Mg3  1  0.38935367  0.18732946  0.25512073  1
  Mg  Mg4  1  0.38933063  0.18739539  0.76561146  1
  Mg  Mg5  1  0.38927542  0.68469033  0.50985452  1
  Mo  Mo6  1  0.35990024  0.69005692  0.00986328  1
  Mo  Mo7  1  0.85991161  0.34994380  0.51013693  1
  N  N8  1  0.97533169  0.69261448  0.00991719  1
  N  N9  1  0.94674503  0.19704204  0.27917845  1
  N  N10  1  0.94666312  0.19711464  0.74162137  1
  N  N11  1  0.44672167  0.84295066  0.24081877  1
  N  N12  1  0.44664192  0.84287593  0.77837946  1
  N  N13  1  0.44591031  0.38272181  0.01008430  1
  N  N14  1  0.94588579  0.65726806  0.50991522  1
  N  N15  1  0.47534404  0.34739174  0.51008377  1
