# generated using pymatgen
data_Mg3MoN4
_symmetry_space_group_name_H-M   'P 1'
_cell_length_a   4.42718721
_cell_length_b   6.16582784
_cell_length_c   7.14545798
_cell_angle_alpha   89.53425737
_cell_angle_beta   89.98805504
_cell_angle_gamma   89.88146980
_symmetry_Int_Tables_number   1
_chemical_formula_structural   Mg3MoN4
_chemical_formula_sum   'Mg6 Mo2 N8'
_cell_volume   195.04466022
_cell_formula_units_Z   2
loop_
 _symmetry_equiv_pos_site_id
 _symmetry_equiv_pos_as_xyz
  1  'x, y, z'
loop_
 _atom_site_type_symbol
 _atom_site_label
 _atom_site_symmetry_multiplicity
 _atom_site_fract_x
 _atom_site_fract_y
 _atom_site_fract_z
 _atom_site_occupancy
  Mg  Mg0  1  0.91167077  0.85345471  0.75145925  1
  Mg  Mg1  1  0.91178330  0.85367894  0.26564011  1
  Mg  Mg2  1  0.91100121  0.35305803  0.01055517  1
  Mg  Mg3  1  0.42140339  0.18761393  0.25626254  1
  Mg  Mg4  1  0.42146666  0.18778821  0.76662692  1
  Mg  Mg5  1  0.42175326  0.68418406  0.50944552  1
  Mo  Mo6  1  0.36549369  0.69005554  0.00946822  1
  Mo  Mo7  1  0.95754690  0.35003173  0.51054529  1
  N  N8  1  0.94397247  0.69217570  0.00970502  1
  N  N9  1  0.91566395  0.19636701  0.28008627  1
  N  N10  1  0.91569796  0.19669078  0.74299732  1
  N  N11  1  0.42473431  0.84358058  0.23965379  1
  N  N12  1  0.42461032  0.84317775  0.77725669  1
  N  N13  1  0.42302608  0.38122164  0.01031638  1
  N  N14  1  0.91740802  0.65910192  0.50967884  1
  N  N15  1  0.39743985  0.34781946  0.51030266  1
