# generated using pymatgen
data_Mg3MoN4
_symmetry_space_group_name_H-M   'P 1'
_cell_length_a   5.05927115
_cell_length_b   5.94234298
_cell_length_c   6.87406868
_cell_angle_alpha   89.94327795
_cell_angle_beta   89.99977156
_cell_angle_gamma   89.99725214
_symmetry_Int_Tables_number   1
_chemical_formula_structural   Mg3MoN4
_chemical_formula_sum   'Mg6 Mo2 N8'
_cell_volume   206.66137980
_cell_formula_units_Z   2
loop_
 _symmetry_equiv_pos_site_id
 _symmetry_equiv_pos_as_xyz
  1  'x, y, z'
loop_
 _atom_site_type_symbol
 _atom_site_label
 _atom_site_symmetry_multiplicity
 _atom_site_fract_x
 _atom_site_fract_y
 _atom_site_fract_z
 _atom_site_occupancy
  Mg  Mg0  1  0.87493085  0.85175767  0.75599076  1
  Mg  Mg1  1  0.87494632  0.85179943  0.26368232  1
  Mg  Mg2  1  0.87533575  0.35698453  0.01006686  1
  Mg  Mg3  1  0.37495166  0.18820352  0.25631866  1
  Mg  Mg4  1  0.37493578  0.18824455  0.76400906  1
  Mg  Mg5  1  0.37532677  0.68302040  0.50993298  1
  Mo  Mo6  1  0.35790186  0.69035388  0.00993997  1
  Mo  Mo7  1  0.85790252  0.34964721  0.51006016  1
  N  N8  1  0.99014794  0.69302885  0.00996438  1
  N  N9  1  0.95668015  0.19691250  0.27882100  1
  N  N10  1  0.95663704  0.19694128  0.74155003  1
  N  N11  1  0.45667408  0.84308409  0.24117787  1
  N  N12  1  0.45663154  0.84305468  0.77845011  1
  N  N13  1  0.45593537  0.38313808  0.01003591  1
  N  N14  1  0.95592445  0.65685678  0.50996399  1
  N  N15  1  0.49014844  0.34697253  0.51003592  1
