# generated using pymatgen
data_Mg3MoN4
_symmetry_space_group_name_H-M   'P 1'
_cell_length_a   4.40898180
_cell_length_b   6.16854934
_cell_length_c   7.14550934
_cell_angle_alpha   91.01322101
_cell_angle_beta   90.02220356
_cell_angle_gamma   89.88582923
_symmetry_Int_Tables_number   1
_chemical_formula_structural   Mg3MoN4
_chemical_formula_sum   'Mg6 Mo2 N8'
_cell_volume   194.30578897
_cell_formula_units_Z   2
loop_
 _symmetry_equiv_pos_site_id
 _symmetry_equiv_pos_as_xyz
  1  'x, y, z'
loop_
 _atom_site_type_symbol
 _atom_site_label
 _atom_site_symmetry_multiplicity
 _atom_site_fract_x
 _atom_site_fract_y
 _atom_site_fract_z
 _atom_site_occupancy
  Mg  Mg0  1  0.91630346  0.85190284  0.75920819  1
  Mg  Mg1  1  0.91626995  0.85153833  0.26728999  1
  Mg  Mg2  1  0.91632197  0.35714131  0.00870010  1
  Mg  Mg3  1  0.42304488  0.18664621  0.24978789  1
  Mg  Mg4  1  0.42278505  0.18614687  0.76366482  1
  Mg  Mg5  1  0.42370754  0.68678413  0.51133248  1
  Mo  Mo6  1  0.43254020  0.68991213  0.01128649  1
  Mo  Mo7  1  0.96901235  0.35004750  0.50876563  1
  N  N8  1  0.90640791  0.69201077  0.01076068  1
  N  N9  1  0.90994504  0.19694910  0.27533652  1
  N  N10  1  0.90959027  0.19595941  0.73774480  1
  N  N11  1  0.41275051  0.84331149  0.24514276  1
  N  N12  1  0.41263194  0.84406959  0.78174440  1
  N  N13  1  0.41160019  0.38071637  0.00918371  1
  N  N14  1  0.91084323  0.65891292  0.51079665  1
  N  N15  1  0.39240190  0.34795104  0.50925489  1
