# generated using pymatgen
data_Mg3MoN4
_symmetry_space_group_name_H-M   'P 1'
_cell_length_a   4.60292485
_cell_length_b   6.11213603
_cell_length_c   7.07169243
_cell_angle_alpha   90.38674640
_cell_angle_beta   90.00410968
_cell_angle_gamma   89.97156202
_symmetry_Int_Tables_number   1
_chemical_formula_structural   Mg3MoN4
_chemical_formula_sum   'Mg6 Mo2 N8'
_cell_volume   198.94833559
_cell_formula_units_Z   2
loop_
 _symmetry_equiv_pos_site_id
 _symmetry_equiv_pos_as_xyz
  1  'x, y, z'
loop_
 _atom_site_type_symbol
 _atom_site_label
 _atom_site_symmetry_multiplicity
 _atom_site_fract_x
 _atom_site_fract_y
 _atom_site_fract_z
 _atom_site_occupancy
  Mg  Mg0  1  0.93067023  0.85338090  0.75482176  1
  Mg  Mg1  1  0.93072587  0.85323506  0.26758822  1
  Mg  Mg2  1  0.93132741  0.35390519  0.00953529  1
  Mg  Mg3  1  0.43097185  0.18673447  0.25235412  1
  Mg  Mg4  1  0.43090794  0.18656385  0.76524538  1
  Mg  Mg5  1  0.43149697  0.68614018  0.51045992  1
  Mo  Mo6  1  0.47249714  0.68983218  0.01044467  1
  Mo  Mo7  1  0.97283555  0.35015931  0.50955750  1
  N  N8  1  0.87617279  0.69211562  0.01027702  1
  N  N9  1  0.90019532  0.19720641  0.27754197  1
  N  N10  1  0.90000817  0.19692857  0.73988416  1
  N  N11  1  0.40003051  0.84283386  0.24246493  1
  N  N12  1  0.39983187  0.84309236  0.78009703  1
  N  N13  1  0.40064954  0.38212511  0.00971371  1
  N  N14  1  0.90071951  0.65789747  0.51028371  1
  N  N15  1  0.37646642  0.34784947  0.50973063  1
