# generated using pymatgen
data_ScAl17N18
_symmetry_space_group_name_H-M   'P 1'
_cell_length_a   9.79880330
_cell_length_b   9.79880356
_cell_length_c   9.10547484
_cell_angle_alpha   90.02190470
_cell_angle_beta   90.02190374
_cell_angle_gamma   60.01868535
_symmetry_Int_Tables_number   1
_chemical_formula_structural   ScAl17N18
_chemical_formula_sum   'Sc2 Al34 N36'
_cell_volume   757.28790457
_cell_formula_units_Z   2
loop_
 _symmetry_equiv_pos_site_id
 _symmetry_equiv_pos_as_xyz
  1  'x, y, z'
loop_
 _atom_site_type_symbol
 _atom_site_label
 _atom_site_symmetry_multiplicity
 _atom_site_fract_x
 _atom_site_fract_y
 _atom_site_fract_z
 _atom_site_occupancy
  Sc  Sc0  1  0.10927839  0.09261215  0.36118382  1
  Sc  Sc1  1  0.22567099  0.20900487  0.10322072  1
  Al  Al2  1  0.77638473  0.09429916  0.87231011  1
  Al  Al3  1  0.88525110  0.20739438  0.62610687  1
  Al  Al4  1  0.44822603  0.09448293  0.37905136  1
  Al  Al5  1  0.56016605  0.20317902  0.12524075  1
  Al  Al6  1  0.10834045  0.09167376  0.86499974  1
  Al  Al7  1  0.22302790  0.20636122  0.62386243  1
  Al  Al8  1  0.77433366  0.09432018  0.37585308  1
  Al  Al9  1  0.88022738  0.20802425  0.11967054  1
  Al  Al10  1  0.45341723  0.08993751  0.86573423  1
  Al  Al11  1  0.55594079  0.20811147  0.62267485  1
  Al  Al12  1  0.11114963  0.43155934  0.37905139  1
  Al  Al13  1  0.21984569  0.54349936  0.12524073  1
  Al  Al14  1  0.77699772  0.42981883  0.87237666  1
  Al  Al15  1  0.88596036  0.54127074  0.62184833  1
  Al  Al16  1  0.44482040  0.42815374  0.37064902  1
  Al  Al17  1  0.55616637  0.53949969  0.12208765  1
  Al  Al18  1  0.10660419  0.43675054  0.86573419  1
  Al  Al19  1  0.22477813  0.53927411  0.62267488  1
  Al  Al20  1  0.77284474  0.43090493  0.37523431  1
  Al  Al21  1  0.88647898  0.54200397  0.12547374  1
  Al  Al22  1  0.44428586  0.42761919  0.87609857  1
  Al  Al23  1  0.55474824  0.53808155  0.62577683  1
  Al  Al24  1  0.11098687  0.75766697  0.37585308  1
  Al  Al25  1  0.22469095  0.86356067  0.11967059  1
  Al  Al26  1  0.77731706  0.76065038  0.87592556  1
  Al  Al27  1  0.88828374  0.87161708  0.62505118  1
  Al  Al28  1  0.44757161  0.75617805  0.37523434  1
  Al  Al29  1  0.55867064  0.86981230  0.12547374  1
  Al  Al30  1  0.11096582  0.75971805  0.87231011  1
  Al  Al31  1  0.22406106  0.86858442  0.62610684  1
  Al  Al32  1  0.77843689  0.76177021  0.37183646  1
  Al  Al33  1  0.88925174  0.87258506  0.12195575  1
  Al  Al34  1  0.44648552  0.76033104  0.87237664  1
  Al  Al35  1  0.55793741  0.86929369  0.62184833  1
  N  N36  1  0.23170311  0.21503648  0.34387233  1
  N  N37  1  0.10151806  0.08485139  0.08999265  1
  N  N38  1  0.88553715  0.20747024  0.83734164  1
  N  N39  1  0.77814747  0.09322088  0.58745707  1
  N  N40  1  0.55573568  0.20465354  0.33757123  1
  N  N41  1  0.46820638  0.08236712  0.07764381  1
  N  N42  1  0.22298277  0.20631609  0.84284405  1
  N  N43  1  0.11046339  0.09379672  0.60151381  1
  N  N44  1  0.86633958  0.21658528  0.33294694  1
  N  N45  1  0.77698185  0.09339916  0.08262045  1
  N  N46  1  0.55613965  0.20861420  0.83233347  1
  N  N47  1  0.44637163  0.09350356  0.59217848  1
  N  N48  1  0.22132020  0.53906898  0.33757118  1
  N  N49  1  0.09903374  0.45153977  0.07764379  1
  N  N50  1  0.88525893  0.54178065  0.83172900  1
  N  N51  1  0.77598670  0.42868606  0.58705159  1
  N  N52  1  0.55580982  0.53914310  0.33333012  1
  N  N53  1  0.44375631  0.42708964  0.08867985  1
  N  N54  1  0.22528086  0.53947297  0.83233350  1
  N  N55  1  0.11017024  0.42970496  0.59217849  1
  N  N56  1  0.88928302  0.53766462  0.33855922  1
  N  N57  1  0.77782570  0.42984655  0.08328565  1
  N  N58  1  0.55481711  0.53815041  0.83704181  1
  N  N59  1  0.44509535  0.42842871  0.58199801  1
  N  N60  1  0.23325192  0.84967299  0.33294699  1
  N  N61  1  0.11006583  0.76031513  0.08262045  1
  N  N62  1  0.88808807  0.87142141  0.83628742  1
  N  N63  1  0.77842568  0.76175900  0.58226961  1
  N  N64  1  0.55433132  0.87261631  0.33855924  1
  N  N65  1  0.44651326  0.76115899  0.08328562  1
  N  N66  1  0.22413691  0.86887047  0.83734165  1
  N  N67  1  0.10988754  0.76148077  0.58745709  1
  N  N68  1  0.88966773  0.87300105  0.33454481  1
  N  N69  1  0.77756216  0.76089542  0.08827746  1
  N  N70  1  0.55844734  0.86859224  0.83172897  1
  N  N71  1  0.44535276  0.75932000  0.58705163  1
