# generated using pymatgen
data_ScAl17N18
_symmetry_space_group_name_H-M   'P 1'
_cell_length_a   9.49714975
_cell_length_b   9.49715072
_cell_length_c   9.99149692
_cell_angle_alpha   89.98603144
_cell_angle_beta   89.98601613
_cell_angle_gamma   60.02349361
_symmetry_Int_Tables_number   1
_chemical_formula_structural   ScAl17N18
_chemical_formula_sum   'Sc2 Al34 N36'
_cell_volume   780.63955732
_cell_formula_units_Z   2
loop_
 _symmetry_equiv_pos_site_id
 _symmetry_equiv_pos_as_xyz
  1  'x, y, z'
loop_
 _atom_site_type_symbol
 _atom_site_label
 _atom_site_symmetry_multiplicity
 _atom_site_fract_x
 _atom_site_fract_y
 _atom_site_fract_z
 _atom_site_occupancy
  Sc  Sc0  1  0.10988715  0.09322099  0.38795901  1
  Sc  Sc1  1  0.22470180  0.20803603  0.12538389  1
  Al  Al2  1  0.77664269  0.09415031  0.89060963  1
  Al  Al3  1  0.88617171  0.20709816  0.64462529  1
  Al  Al4  1  0.44744813  0.09496019  0.39381644  1
  Al  Al5  1  0.55992974  0.20396796  0.14119832  1
  Al  Al6  1  0.10780722  0.09114079  0.88832930  1
  Al  Al7  1  0.22316564  0.20649922  0.64735224  1
  Al  Al8  1  0.77401270  0.09520201  0.39056141  1
  Al  Al9  1  0.88111156  0.20723953  0.13745559  1
  Al  Al10  1  0.45271997  0.09034401  0.88736703  1
  Al  Al11  1  0.55622803  0.20658820  0.63993739  1
  Al  Al12  1  0.11162648  0.43078174  0.39381641  1
  Al  Al13  1  0.22063439  0.54326289  0.14119827  1
  Al  Al14  1  0.77663207  0.42941843  0.89025885  1
  Al  Al15  1  0.88746651  0.53987150  0.63973464  1
  Al  Al16  1  0.44438594  0.42771936  0.38942824  1
  Al  Al17  1  0.55564626  0.53897911  0.14041017  1
  Al  Al18  1  0.10701051  0.43605342  0.88736724  1
  Al  Al19  1  0.22325478  0.53956128  0.63993743  1
  Al  Al20  1  0.77363215  0.43049978  0.39033755  1
  Al  Al21  1  0.88584526  0.54310038  0.14087971  1
  Al  Al22  1  0.44446828  0.42780177  0.89037743  1
  Al  Al23  1  0.55533170  0.53866479  0.64046577  1
  Al  Al24  1  0.11186853  0.75734584  0.39056141  1
  Al  Al25  1  0.22390566  0.86444504  0.13745545  1
  Al  Al26  1  0.77762108  0.76095406  0.89075501  1
  Al  Al27  1  0.88889913  0.87223249  0.64037307  1
  Al  Al28  1  0.44716648  0.75696517  0.39033761  1
  Al  Al29  1  0.55976755  0.86917834  0.14087960  1
  Al  Al30  1  0.11081691  0.75997587  0.89060970  1
  Al  Al31  1  0.22376461  0.86950521  0.64462525  1
  Al  Al32  1  0.77804997  0.76138279  0.39033011  1
  Al  Al33  1  0.88892922  0.87226240  0.13941799  1
  Al  Al34  1  0.44608507  0.75996524  0.89025870  1
  Al  Al35  1  0.55653829  0.87079977  0.63973458  1
  N  N36  1  0.23143448  0.21476730  0.33744432  1
  N  N37  1  0.10037568  0.08370852  0.08220876  1
  N  N38  1  0.88513175  0.20749771  0.83518142  1
  N  N39  1  0.77839002  0.09423600  0.58300580  1
  N  N40  1  0.55516514  0.20539413  0.33365458  1
  N  N41  1  0.46901442  0.08200469  0.07599005  1
  N  N42  1  0.22302967  0.20636276  0.84466378  1
  N  N43  1  0.11119169  0.09452487  0.60145391  1
  N  N44  1  0.86792395  0.21600213  0.32747791  1
  N  N45  1  0.77711415  0.09328598  0.08133439  1
  N  N46  1  0.55633618  0.20712746  0.83071881  1
  N  N47  1  0.44507722  0.09422614  0.58689278  1
  N  N48  1  0.22206099  0.53849859  0.33365461  1
  N  N49  1  0.09867187  0.45234724  0.07599011  1
  N  N50  1  0.88648163  0.54034347  0.83065437  1
  N  N51  1  0.77740729  0.42773868  0.58291721  1
  N  N52  1  0.55535123  0.53868499  0.33229185  1
  N  N53  1  0.44395753  0.42729076  0.08373986  1
  N  N54  1  0.22379430  0.53966950  0.83071879  1
  N  N55  1  0.11089299  0.42841046  0.58689287  1
  N  N56  1  0.88915537  0.53836181  0.33426929  1
  N  N57  1  0.77740377  0.42964267  0.08191474  1
  N  N58  1  0.55530410  0.53863759  0.83265350  1
  N  N59  1  0.44467509  0.42800841  0.58172298  1
  N  N60  1  0.23266915  0.85125708  0.32747783  1
  N  N61  1  0.10995279  0.76044779  0.08133449  1
  N  N62  1  0.88870012  0.87203357  0.83270593  1
  N  N63  1  0.77810160  0.76143509  0.58197872  1
  N  N64  1  0.55502825  0.87248884  0.33426915  1
  N  N65  1  0.44630930  0.76073733  0.08191479  1
  N  N66  1  0.22416453  0.86846512  0.83518142  1
  N  N67  1  0.11090274  0.76172338  0.58300583  1
  N  N68  1  0.88926132  0.87259473  0.33280248  1
  N  N69  1  0.77786249  0.76119647  0.08311829  1
  N  N70  1  0.55701002  0.86981508  0.83065445  1
  N  N71  1  0.44440533  0.76074074  0.58291712  1
