# generated using pymatgen
data_ScAl17N18
_symmetry_space_group_name_H-M   'P 1'
_cell_length_a   9.49713091
_cell_length_b   9.49713229
_cell_length_c   9.99153092
_cell_angle_alpha   89.98600262
_cell_angle_beta   89.98599670
_cell_angle_gamma   60.02349357
_symmetry_Int_Tables_number   1
_chemical_formula_structural   ScAl17N18
_chemical_formula_sum   'Sc2 Al34 N36'
_cell_volume   780.63915060
_cell_formula_units_Z   2
loop_
 _symmetry_equiv_pos_site_id
 _symmetry_equiv_pos_as_xyz
  1  'x, y, z'
loop_
 _atom_site_type_symbol
 _atom_site_label
 _atom_site_symmetry_multiplicity
 _atom_site_fract_x
 _atom_site_fract_y
 _atom_site_fract_z
 _atom_site_occupancy
  Sc  Sc0  1  0.10861047  0.09193811  0.33311665  1
  Sc  Sc1  1  0.22342022  0.20675112  0.07053831  1
  Al  Al2  1  0.77708047  0.09338914  0.81856695  1
  Al  Al3  1  0.88059093  0.20962945  0.57114106  1
  Al  Al4  1  0.45219406  0.09273467  0.32105117  1
  Al  Al5  1  0.55929449  0.20477063  0.06794300  1
  Al  Al6  1  0.11014430  0.09347632  0.81115358  1
  Al  Al7  1  0.22550255  0.20883349  0.57017923  1
  Al  Al8  1  0.77337843  0.09600808  0.31730826  1
  Al  Al9  1  0.88586618  0.20501377  0.06468706  1
  Al  Al10  1  0.44713253  0.09287821  0.81387779  1
  Al  Al11  1  0.55666363  0.20582389  0.56789727  1
  Al  Al12  1  0.10940406  0.43552599  0.32105145  1
  Al  Al13  1  0.22143800  0.54262941  0.06794257  1
  Al  Al14  1  0.77677224  0.42917252  0.81877046  1
  Al  Al15  1  0.88722584  0.54000840  0.56824823  1
  Al  Al16  1  0.44437896  0.42771179  0.31908862  1
  Al  Al17  1  0.55525846  0.53859502  0.06817400  1
  Al  Al18  1  0.10954586  0.43046517  0.81387830  1
  Al  Al19  1  0.22249142  0.53999754  0.56789713  1
  Al  Al20  1  0.77354251  0.43079511  0.31762565  1
  Al  Al21  1  0.88614393  0.54300645  0.06816578  1
  Al  Al22  1  0.44440859  0.42774174  0.81812953  1
  Al  Al23  1  0.55568639  0.53902143  0.56775237  1
  Al  Al24  1  0.11267581  0.75671331  0.31730837  1
  Al  Al25  1  0.22168275  0.86919759  0.06468696  1
  Al  Al26  1  0.77797521  0.76130996  0.81803853  1
  Al  Al27  1  0.88883985  0.87217364  0.56812877  1
  Al  Al28  1  0.44746118  0.75687822  0.31762483  1
  Al  Al29  1  0.55967075  0.86947789  0.06816599  1
  Al  Al30  1  0.11005626  0.76041434  0.81856749  1
  Al  Al31  1  0.22629743  0.86392409  0.57113972  1
  Al  Al32  1  0.77765998  0.76099652  0.31809645  1
  Al  Al33  1  0.88892382  0.87225640  0.06907543  1
  Al  Al34  1  0.44583887  0.76010659  0.81877030  1
  Al  Al35  1  0.55667384  0.87056015  0.56824699  1
  N  N36  1  0.23293194  0.21626877  0.37629887  1
  N  N37  1  0.10187126  0.08520830  0.12106150  1
  N  N38  1  0.88822736  0.20574975  0.87161321  1
  N  N39  1  0.77697315  0.09284707  0.62778546  1
  N  N40  1  0.55619707  0.20669070  0.37716898  1
  N  N41  1  0.46538893  0.08397308  0.13102894  1
  N  N42  1  0.22211666  0.20545155  0.85705418  1
  N  N43  1  0.11027665  0.09361164  0.61384253  1
  N  N44  1  0.86428946  0.21797262  0.38251503  1
  N  N45  1  0.77814077  0.09457959  0.12485179  1
  N  N46  1  0.55492015  0.20573945  0.87550279  1
  N  N47  1  0.44817910  0.09247570  0.62332307  1
  N  N48  1  0.22335574  0.53952932  0.37716896  1
  N  N49  1  0.10063761  0.44872289  0.13102993  1
  N  N50  1  0.88890099  0.53923716  0.87559052  1
  N  N51  1  0.77629667  0.43016093  0.62784990  1
  N  N52  1  0.55544641  0.53877622  0.37538727  1
  N  N53  1  0.44404729  0.42738010  0.12570445  1
  N  N54  1  0.22240545  0.53825312  0.87550273  1
  N  N55  1  0.10914097  0.43151330  0.62332280  1
  N  N56  1  0.88699794  0.53923891  0.37658875  1
  N  N57  1  0.77827799  0.42748797  0.12423763  1
  N  N58  1  0.55520703  0.53853872  0.87652845  1
  N  N59  1  0.44460880  0.42794242  0.62579974  1
  N  N60  1  0.23463566  0.84762549  0.38251526  1
  N  N61  1  0.11124504  0.76147334  0.12485169  1
  N  N62  1  0.88863246  0.87196567  0.87678572  1
  N  N63  1  0.77800535  0.76133644  0.62585159  1
  N  N64  1  0.55590718  0.87033044  0.37658921  1
  N  N65  1  0.44415582  0.76160966  0.12423707  1
  N  N66  1  0.22241527  0.87156110  0.87161295  1
  N  N67  1  0.10951314  0.76030544  0.62778550  1
  N  N68  1  0.88935109  0.87268386  0.37476478  1
  N  N69  1  0.77795980  0.76128999  0.12621439  1
  N  N70  1  0.55590475  0.87223377  0.87559026  1
  N  N71  1  0.44682814  0.75962854  0.62785062  1
