# generated using pymatgen
data_ScAl17N18
_symmetry_space_group_name_H-M   'P 1'
_cell_length_a   9.59189071
_cell_length_b   9.59189043
_cell_length_c   9.72802777
_cell_angle_alpha   90.00919837
_cell_angle_beta   90.00920808
_cell_angle_gamma   60.02274851
_symmetry_Int_Tables_number   1
_chemical_formula_structural   ScAl17N18
_chemical_formula_sum   'Sc2 Al34 N36'
_cell_volume   775.28853917
_cell_formula_units_Z   2
loop_
 _symmetry_equiv_pos_site_id
 _symmetry_equiv_pos_as_xyz
  1  'x, y, z'
loop_
 _atom_site_type_symbol
 _atom_site_label
 _atom_site_symmetry_multiplicity
 _atom_site_fract_x
 _atom_site_fract_y
 _atom_site_fract_z
 _atom_site_occupancy
  Sc  Sc0  1  0.11022584  0.09355851  0.37107156  1
  Sc  Sc1  1  0.22570669  0.20903979  0.11062516  1
  Al  Al2  1  0.77663189  0.09423511  0.88061303  1
  Al  Al3  1  0.88681825  0.20667185  0.63386747  1
  Al  Al4  1  0.44701700  0.09529878  0.38455943  1
  Al  Al5  1  0.56029697  0.20350792  0.13240807  1
  Al  Al6  1  0.10742310  0.09075608  0.87975315  1
  Al  Al7  1  0.22260698  0.20594005  0.63712105  1
  Al  Al8  1  0.77399919  0.09488304  0.38218298  1
  Al  Al9  1  0.87968345  0.20808741  0.12848731  1
  Al  Al10  1  0.45417624  0.08953683  0.87662645  1
  Al  Al11  1  0.55597760  0.20714146  0.63019749  1
  Al  Al12  1  0.11196605  0.43035005  0.38455934  1
  Al  Al13  1  0.22017465  0.54363059  0.13240809  1
  Al  Al14  1  0.77681172  0.42947603  0.88035932  1
  Al  Al15  1  0.88697797  0.54023551  0.62977514  1
  Al  Al16  1  0.44452813  0.42786162  0.37947841  1
  Al  Al17  1  0.55583748  0.53917134  0.13068076  1
  Al  Al18  1  0.10620364  0.43750965  0.87662630  1
  Al  Al19  1  0.22380811  0.53931121  0.63019762  1
  Al  Al20  1  0.77313812  0.43076222  0.38181813  1
  Al  Al21  1  0.88596516  0.54289766  0.13218724  1
  Al  Al22  1  0.44441342  0.42774702  0.88186598  1
  Al  Al23  1  0.55507694  0.53841082  0.63182688  1
  Al  Al24  1  0.11154998  0.75733278  0.38218295  1
  Al  Al25  1  0.22475444  0.86301648  0.12848747  1
  Al  Al26  1  0.77748397  0.76081740  0.88213837  1
  Al  Al27  1  0.88863666  0.87196967  0.63153465  1
  Al  Al28  1  0.44742861  0.75647210  0.38181818  1
  Al  Al29  1  0.55956409  0.86929830  0.13218754  1
  Al  Al30  1  0.11090196  0.75996517  0.88061304  1
  Al  Al31  1  0.22333878  0.87015129  0.63386747  1
  Al  Al32  1  0.77818096  0.76151495  0.38048349  1
  Al  Al33  1  0.88905316  0.87238621  0.12991911  1
  Al  Al34  1  0.44614252  0.76014519  0.88035951  1
  Al  Al35  1  0.55690188  0.87031131  0.62977489  1
  N  N36  1  0.23231868  0.21565260  0.32969293  1
  N  N37  1  0.10045792  0.08379177  0.08132444  1
  N  N38  1  0.88585488  0.20714841  0.82966996  1
  N  N39  1  0.77826537  0.09380583  0.57875755  1
  N  N40  1  0.55543131  0.20504786  0.32926253  1
  N  N41  1  0.47039482  0.08129585  0.07033042  1
  N  N42  1  0.22276459  0.20609800  0.84084064  1
  N  N43  1  0.11114817  0.09448191  0.59201222  1
  N  N44  1  0.86607801  0.21683176  0.32340807  1
  N  N45  1  0.77710913  0.09336933  0.07578540  1
  N  N46  1  0.55636511  0.20771299  0.82522325  1
  N  N47  1  0.44478112  0.09428167  0.58254216  1
  N  N48  1  0.22171432  0.53876437  0.32926253  1
  N  N49  1  0.09796206  0.45372818  0.07033065  1
  N  N50  1  0.88585967  0.54096817  0.82495995  1
  N  N51  1  0.77683341  0.42801814  0.57855408  1
  N  N52  1  0.55552511  0.53885751  0.32689645  1
  N  N53  1  0.44381972  0.42715284  0.07951564  1
  N  N54  1  0.22437968  0.53969826  0.82522313  1
  N  N55  1  0.11094808  0.42811444  0.58254211  1
  N  N56  1  0.88923236  0.53799808  0.32992594  1
  N  N57  1  0.77751392  0.42978077  0.07638444  1
  N  N58  1  0.55510562  0.53843859  0.82823221  1
  N  N59  1  0.44480682  0.42813993  0.57602905  1
  N  N60  1  0.23349800  0.84941155  0.32340814  1
  N  N61  1  0.11003574  0.76044247  0.07578539  1
  N  N62  1  0.88844845  0.87178192  0.82806704  1
  N  N63  1  0.77818362  0.76151674  0.57629672  1
  N  N64  1  0.55466503  0.87256560  0.32992599  1
  N  N65  1  0.44644764  0.76084706  0.07638433  1
  N  N66  1  0.22381489  0.86918840  0.82966993  1
  N  N67  1  0.11047224  0.76159875  0.57875757  1
  N  N68  1  0.88941456  0.87274793  0.32758554  1
  N  N69  1  0.77772793  0.76106105  0.07896569  1
  N  N70  1  0.55763498  0.86919307  0.82496001  1
  N  N71  1  0.44468505  0.76016648  0.57855424  1
