# generated using pymatgen
data_ScAl17N18
_symmetry_space_group_name_H-M   'P 1'
_cell_length_a   9.69967756
_cell_length_b   9.69967711
_cell_length_c   9.41016475
_cell_angle_alpha   90.01747731
_cell_angle_beta   90.01748729
_cell_angle_gamma   60.02100255
_symmetry_Int_Tables_number   1
_chemical_formula_structural   ScAl17N18
_chemical_formula_sum   'Sc2 Al34 N36'
_cell_volume   766.89212850
_cell_formula_units_Z   2
loop_
 _symmetry_equiv_pos_site_id
 _symmetry_equiv_pos_as_xyz
  1  'x, y, z'
loop_
 _atom_site_type_symbol
 _atom_site_label
 _atom_site_symmetry_multiplicity
 _atom_site_fract_x
 _atom_site_fract_y
 _atom_site_fract_z
 _atom_site_occupancy
  Sc  Sc0  1  0.10981433  0.09316992  0.36495152  1
  Sc  Sc1  1  0.22586112  0.20922300  0.10613017  1
  Al  Al2  1  0.77648071  0.09428326  0.87689710  1
  Al  Al3  1  0.88623585  0.20693141  0.63029732  1
  Al  Al4  1  0.44739508  0.09504052  0.38234640  1
  Al  Al5  1  0.56028045  0.20320655  0.12943415  1
  Al  Al6  1  0.10775710  0.09109155  0.87349333  1
  Al  Al7  1  0.22266125  0.20599312  0.63147923  1
  Al  Al8  1  0.77413454  0.09459822  0.37958182  1
  Al  Al9  1  0.87956206  0.20824019  0.12477789  1
  Al  Al10  1  0.45422073  0.08952569  0.87156060  1
  Al  Al11  1  0.55595194  0.20775374  0.62680166  1
  Al  Al12  1  0.11170387  0.43073008  0.38234245  1
  Al  Al13  1  0.21986899  0.54361170  0.12943294  1
  Al  Al14  1  0.77689469  0.42970656  0.87680394  1
  Al  Al15  1  0.88635990  0.54083049  0.62615842  1
  Al  Al16  1  0.44468204  0.42801582  0.37539404  1
  Al  Al17  1  0.55604450  0.53937331  0.12687576  1
  Al  Al18  1  0.10619103  0.43755434  0.87156807  1
  Al  Al19  1  0.22442128  0.53928501  0.62680251  1
  Al  Al20  1  0.77291033  0.43085282  0.37908763  1
  Al  Al21  1  0.88630200  0.54241846  0.12943502  1
  Al  Al22  1  0.44435465  0.42768954  0.87959099  1
  Al  Al23  1  0.55487615  0.53820826  0.62928916  1
  Al  Al24  1  0.11126271  0.75746532  0.37958155  1
  Al  Al25  1  0.22490229  0.86289587  0.12477227  1
  Al  Al26  1  0.77737914  0.76070934  0.87964704  1
  Al  Al27  1  0.88843419  0.87176857  0.62877272  1
  Al  Al28  1  0.44752269  0.75623962  0.37908863  1
  Al  Al29  1  0.55909093  0.86962988  0.12943487  1
  Al  Al30  1  0.11095002  0.75981316  0.87689797  1
  Al  Al31  1  0.22359766  0.86956959  0.63030069  1
  Al  Al32  1  0.77834110  0.76167057  0.37652052  1
  Al  Al33  1  0.88916664  0.87249760  0.12643551  1
  Al  Al34  1  0.44637259  0.76022668  0.87680242  1
  Al  Al35  1  0.55749712  0.86969459  0.62615776  1
  N  N36  1  0.23216902  0.21549546  0.33538160  1
  N  N37  1  0.10093731  0.08426460  0.08616315  1
  N  N38  1  0.88572706  0.20730715  0.83303309  1
  N  N39  1  0.77822238  0.09348747  0.58273762  1
  N  N40  1  0.55558810  0.20474054  0.33308240  1
  N  N41  1  0.46967991  0.08162108  0.07329671  1
  N  N42  1  0.22283616  0.20616729  0.84229928  1
  N  N43  1  0.11082203  0.09415317  0.59551806  1
  N  N44  1  0.86576985  0.21692723  0.32766826  1
  N  N45  1  0.77700785  0.09337655  0.07873111  1
  N  N46  1  0.55628224  0.20829615  0.82828376  1
  N  N47  1  0.44544701  0.09396154  0.58707799  1
  N  N48  1  0.22140912  0.53892344  0.33308410  1
  N  N49  1  0.09829690  0.45300046  0.07329537  1
  N  N50  1  0.88540455  0.54150159  0.82782118  1
  N  N51  1  0.77635382  0.42835536  0.58242339  1
  N  N52  1  0.55570199  0.53903975  0.32968518  1
  N  N53  1  0.44376968  0.42710123  0.08378830  1
  N  N54  1  0.22496448  0.53961576  0.82828145  1
  N  N55  1  0.11062833  0.42878066  0.58707948  1
  N  N56  1  0.88933047  0.53774953  0.33391046  1
  N  N57  1  0.77767944  0.42987723  0.07936584  1
  N  N58  1  0.55493789  0.53827203  0.83224154  1
  N  N59  1  0.44498089  0.42831427  0.57849713  1
  N  N60  1  0.23360161  0.84909270  0.32766852  1
  N  N61  1  0.11004488  0.76034464  0.07873271  1
  N  N62  1  0.88823532  0.87156913  0.83177586  1
  N  N63  1  0.77832506  0.76165838  0.57878818  1
  N  N64  1  0.55441333  0.87266591  0.33390819  1
  N  N65  1  0.44654243  0.76101627  0.07936744  1
  N  N66  1  0.22397471  0.86906020  0.83303205  1
  N  N67  1  0.11015479  0.76155605  0.58273673  1
  N  N68  1  0.88957789  0.87291103  0.33063733  1
  N  N69  1  0.77761318  0.76095404  0.08330013  1
  N  N70  1  0.55816726  0.86873949  0.82782398  1
  N  N71  1  0.44502092  0.75968791  0.58242179  1
