# generated using pymatgen
data_ScAl17N18
_symmetry_space_group_name_H-M   'P 1'
_cell_length_a   9.88988563
_cell_length_b   9.88990222
_cell_length_c   8.81986764
_cell_angle_alpha   90.02390048
_cell_angle_beta   90.02390292
_cell_angle_gamma   60.01629028
_symmetry_Int_Tables_number   1
_chemical_formula_structural   ScAl17N18
_chemical_formula_sum   'Sc2 Al34 N36'
_cell_volume   747.21775562
_cell_formula_units_Z   2
loop_
 _symmetry_equiv_pos_site_id
 _symmetry_equiv_pos_as_xyz
  1  'x, y, z'
loop_
 _atom_site_type_symbol
 _atom_site_label
 _atom_site_symmetry_multiplicity
 _atom_site_fract_x
 _atom_site_fract_y
 _atom_site_fract_z
 _atom_site_occupancy
  Sc  Sc0  1  0.10792378  0.09125645  0.35706753  1
  Sc  Sc1  1  0.22450816  0.20784105  0.09958814  1
  Al  Al2  1  0.77740021  0.09193325  0.84082692  1
  Al  Al3  1  0.88103497  0.20946832  0.59868604  1
  Al  Al4  1  0.45219342  0.09227355  0.34514398  1
  Al  Al5  1  0.55886912  0.20582755  0.08776797  1
  Al  Al6  1  0.10983884  0.09317200  0.84250498  1
  Al  Al7  1  0.22449099  0.20782448  0.60064687  1
  Al  Al8  1  0.77332855  0.09643101  0.33893842  1
  Al  Al9  1  0.88419707  0.20609054  0.08460544  1
  Al  Al10  1  0.44886016  0.09220744  0.83775517  1
  Al  Al11  1  0.55685747  0.20575180  0.59181059  1
  Al  Al12  1  0.10894032  0.43552669  0.34514400  1
  Al  Al13  1  0.22249421  0.54220263  0.08776793  1
  Al  Al14  1  0.77532592  0.43065226  0.84172869  1
  Al  Al15  1  0.88686794  0.53956673  0.59162462  1
  Al  Al16  1  0.44406854  0.42740171  0.34202764  1
  Al  Al17  1  0.55488267  0.53821612  0.09182313  1
  Al  Al18  1  0.10887420  0.43219343  0.83775511  1
  Al  Al19  1  0.22241838  0.54019091  0.59181063  1
  Al  Al20  1  0.77475437  0.43026955  0.33855105  1
  Al  Al21  1  0.88567129  0.54369057  0.08847331  1
  Al  Al22  1  0.44505223  0.42838540  0.83846452  1
  Al  Al23  1  0.55594334  0.53927678  0.58806559  1
  Al  Al24  1  0.11309777  0.75666179  0.33893843  1
  Al  Al25  1  0.22275721  0.86753047  0.08460545  1
  Al  Al26  1  0.77855342  0.76188676  0.83761816  1
  Al  Al27  1  0.88904844  0.87238192  0.58767948  1
  Al  Al28  1  0.44693639  0.75808756  0.33855102  1
  Al  Al29  1  0.56035693  0.86900491  0.08847329  1
  Al  Al30  1  0.10859999  0.76073349  0.84082690  1
  Al  Al31  1  0.22613494  0.86436832  0.59868602  1
  Al  Al32  1  0.77717966  0.76051306  0.34212220  1
  Al  Al33  1  0.88843038  0.87176393  0.09294007  1
  Al  Al34  1  0.44731903  0.75865917  0.84172872  1
  Al  Al35  1  0.55623324  0.87020139  0.59162464  1
  N  N36  1  0.23124447  0.21457814  0.36546382  1
  N  N37  1  0.10207912  0.08541222  0.10585807  1
  N  N38  1  0.88618868  0.20687434  0.86108067  1
  N  N39  1  0.77731526  0.09146153  0.62071010  1
  N  N40  1  0.55621770  0.20653329  0.37062544  1
  N  N41  1  0.46598688  0.08391171  0.11873871  1
  N  N42  1  0.22309976  0.20643337  0.85130786  1
  N  N43  1  0.11023711  0.09357018  0.61518550  1
  N  N44  1  0.86676339  0.21673465  0.37436224  1
  N  N45  1  0.77747940  0.09509096  0.11547016  1
  N  N46  1  0.55532209  0.20692886  0.86527861  1
  N  N47  1  0.44770652  0.09251491  0.61594557  1
  N  N48  1  0.22319977  0.53955123  0.37062548  1
  N  N49  1  0.10057842  0.44932030  0.11873870  1
  N  N50  1  0.88763423  0.54084907  0.86570144  1
  N  N51  1  0.77491628  0.43113837  0.62134150  1
  N  N52  1  0.55572538  0.53905886  0.36467036  1
  N  N53  1  0.44366342  0.42699651  0.11868674  1
  N  N54  1  0.22359533  0.53865564  0.86527860  1
  N  N55  1  0.10918176  0.43103968  0.61594563  1
  N  N56  1  0.88697287  0.53875460  0.37000109  1
  N  N57  1  0.77881759  0.42765169  0.11445302  1
  N  N58  1  0.55487035  0.53820389  0.87100963  1
  N  N59  1  0.44525503  0.42858813  0.61670305  1
  N  N60  1  0.23340115  0.85009679  0.37436227  1
  N  N61  1  0.11175778  0.76081254  0.11547014  1
  N  N62  1  0.88819077  0.87152437  0.87117425  1
  N  N63  1  0.77851577  0.76184893  0.61577329  1
  N  N64  1  0.55542096  0.87030648  0.37000112  1
  N  N65  1  0.44431863  0.76215062  0.11445301  1
  N  N66  1  0.22354080  0.86952221  0.86108066  1
  N  N67  1  0.10812837  0.76064837  0.62071014  1
  N  N68  1  0.88950570  0.87283930  0.36446703  1
  N  N69  1  0.77750784  0.76084105  0.12007318  1
  N  N70  1  0.55751547  0.87096782  0.86570140  1
  N  N71  1  0.44780528  0.75824935  0.62134150  1
