# generated using pymatgen
data_ScAl17N18
_symmetry_space_group_name_H-M   'P 1'
_cell_length_a   9.47053606
_cell_length_b   9.47053597
_cell_length_c   10.06099534
_cell_angle_alpha   89.97388234
_cell_angle_beta   89.97388241
_cell_angle_gamma   60.02341265
_symmetry_Int_Tables_number   1
_chemical_formula_structural   ScAl17N18
_chemical_formula_sum   'Sc2 Al34 N36'
_cell_volume   781.66929056
_cell_formula_units_Z   2
loop_
 _symmetry_equiv_pos_site_id
 _symmetry_equiv_pos_as_xyz
  1  'x, y, z'
loop_
 _atom_site_type_symbol
 _atom_site_label
 _atom_site_symmetry_multiplicity
 _atom_site_fract_x
 _atom_site_fract_y
 _atom_site_fract_z
 _atom_site_occupancy
  Sc  Sc0  1  0.10963774  0.09297109  0.41232960  1
  Sc  Sc1  1  0.22435130  0.20768461  0.15049267  1
  Al  Al2  1  0.77675344  0.09408002  0.91314232  1
  Al  Al3  1  0.88601404  0.20720169  0.66722937  1
  Al  Al4  1  0.44778311  0.09480760  0.41628127  1
  Al  Al5  1  0.55982451  0.20397755  0.16332803  1
  Al  Al6  1  0.10809756  0.09143090  0.91099281  1
  Al  Al7  1  0.22331228  0.20664561  0.66972243  1
  Al  Al8  1  0.77389687  0.09530380  0.41267277  1
  Al  Al9  1  0.88147449  0.20695156  0.15982899  1
  Al  Al10  1  0.45201013  0.09070235  0.91009626  1
  Al  Al11  1  0.55624098  0.20651738  0.66253638  1
  Al  Al12  1  0.11147427  0.43111643  0.41628127  1
  Al  Al13  1  0.22064421  0.54315784  0.16332803  1
  Al  Al14  1  0.77668501  0.42934745  0.91287464  1
  Al  Al15  1  0.88755419  0.53979532  0.66234772  1
  Al  Al16  1  0.44434940  0.42768273  0.41179625  1
  Al  Al17  1  0.55559828  0.53893162  0.16281933  1
  Al  Al18  1  0.10736902  0.43534345  0.91009626  1
  Al  Al19  1  0.22318404  0.53957431  0.66253638  1
  Al  Al20  1  0.77366091  0.43043966  0.41245590  1
  Al  Al21  1  0.88586568  0.54310745  0.16308717  1
  Al  Al22  1  0.44448095  0.42781429  0.91281551  1
  Al  Al23  1  0.55537107  0.53870441  0.66280642  1
  Al  Al24  1  0.11197047  0.75723021  0.41267277  1
  Al  Al25  1  0.22361821  0.86480783  0.15982899  1
  Al  Al26  1  0.77765279  0.76098613  0.91314749  1
  Al  Al27  1  0.88891963  0.87225297  0.66266714  1
  Al  Al28  1  0.44710632  0.75699426  0.41245590  1
  Al  Al29  1  0.55977412  0.86919901  0.16308716  1
  Al  Al30  1  0.11074668  0.76008678  0.91314232  1
  Al  Al31  1  0.22386835  0.86934738  0.66722937  1
  Al  Al32  1  0.77799540  0.76132873  0.41271810  1
  Al  Al33  1  0.88889304  0.87222638  0.16189141  1
  Al  Al34  1  0.44601411  0.76001836  0.91287464  1
  Al  Al35  1  0.55646199  0.87088752  0.66234772  1
  N  N36  1  0.23126226  0.21459558  0.35956869  1
  N  N37  1  0.10050242  0.08383577  0.10266591  1
  N  N38  1  0.88536220  0.20740101  0.85638924  1
  N  N39  1  0.77837360  0.09437072  0.60389354  1
  N  N40  1  0.55511348  0.20542482  0.35443326  1
  N  N41  1  0.46811060  0.08239874  0.09736195  1
  N  N42  1  0.22305276  0.20638608  0.86449571  1
  N  N43  1  0.11122136  0.09455470  0.62254826  1
  N  N44  1  0.86847120  0.21568221  0.34837015  1
  N  N45  1  0.77709133  0.09322727  0.10247986  1
  N  N46  1  0.55637348  0.20700299  0.85203792  1
  N  N47  1  0.44508186  0.09427021  0.60786780  1
  N  N48  1  0.22209149  0.53844682  0.35443327  1
  N  N49  1  0.09906542  0.45144391  0.09736196  1
  N  N50  1  0.88660767  0.54023533  0.85201366  1
  N  N51  1  0.77751980  0.42766652  0.60385231  1
  N  N52  1  0.55531870  0.53865204  0.35333277  1
  N  N53  1  0.44405433  0.42738768  0.10458405  1
  N  N54  1  0.22366965  0.53970682  0.85203793  1
  N  N55  1  0.11093688  0.42841519  0.60786780  1
  N  N56  1  0.88909774  0.53852309  0.35506503  1
  N  N57  1  0.77724569  0.42963444  0.10309190  1
  N  N58  1  0.55536375  0.53869710  0.85364117  1
  N  N59  1  0.44464735  0.42798069  0.60287343  1
  N  N60  1  0.23234887  0.85180454  0.34837015  1
  N  N61  1  0.10989393  0.76042466  0.10247987  1
  N  N62  1  0.88873697  0.87207031  0.85362827  1
  N  N63  1  0.77805560  0.76138892  0.60311204  1
  N  N64  1  0.55518977  0.87243106  0.35506503  1
  N  N65  1  0.44630110  0.76057904  0.10309190  1
  N  N66  1  0.22406767  0.86869554  0.85638924  1
  N  N67  1  0.11103739  0.76170693  0.60389354  1
  N  N68  1  0.88915812  0.87249145  0.35383638  1
  N  N69  1  0.77788825  0.76122157  0.10403785  1
  N  N70  1  0.55690200  0.86994100  0.85201366  1
  N  N71  1  0.44433317  0.76085314  0.60385230  1
