# generated using pymatgen
data_ScAl17N18
_symmetry_space_group_name_H-M   'P 1'
_cell_length_a   9.74985879
_cell_length_b   9.74986172
_cell_length_c   9.25713694
_cell_angle_alpha   90.01993164
_cell_angle_beta   90.01993576
_cell_angle_gamma   60.01987051
_symmetry_Int_Tables_number   1
_chemical_formula_structural   ScAl17N18
_chemical_formula_sum   'Sc2 Al34 N36'
_cell_volume   762.23869229
_cell_formula_units_Z   2
loop_
 _symmetry_equiv_pos_site_id
 _symmetry_equiv_pos_as_xyz
  1  'x, y, z'
loop_
 _atom_site_type_symbol
 _atom_site_label
 _atom_site_symmetry_multiplicity
 _atom_site_fract_x
 _atom_site_fract_y
 _atom_site_fract_z
 _atom_site_occupancy
  Sc  Sc0  1  0.10751563  0.09083830  0.35390076  1
  Sc  Sc1  1  0.22376896  0.20707734  0.09557434  1
  Al  Al2  1  0.77735919  0.09199775  0.83359425  1
  Al  Al3  1  0.87941460  0.21028019  0.58971002  1
  Al  Al4  1  0.45346795  0.09181626  0.33603776  1
  Al  Al5  1  0.55906851  0.20551803  0.08056410  1
  Al  Al6  1  0.11048383  0.09381450  0.83056066  1
  Al  Al7  1  0.22526425  0.20859832  0.58910489  1
  Al  Al8  1  0.77307357  0.09682700  0.33092826  1
  Al  Al9  1  0.88552701  0.20519183  0.07755467  1
  Al  Al10  1  0.44756559  0.09280980  0.83010912  1
  Al  Al11  1  0.55689209  0.20567741  0.58370469  1
  Al  Al12  1  0.10848690  0.43679905  0.33604426  1
  Al  Al13  1  0.22219002  0.54240418  0.08056333  1
  Al  Al14  1  0.77555256  0.43052490  0.83433811  1
  Al  Al15  1  0.88685644  0.53970100  0.58371836  1
  Al  Al16  1  0.44409190  0.42742353  0.33410793  1
  Al  Al17  1  0.55490703  0.53824652  0.08417386  1
  Al  Al18  1  0.10947900  0.43089670  0.83010398  1
  Al  Al19  1  0.22234356  0.54022591  0.58370529  1
  Al  Al20  1  0.77445094  0.43022437  0.33080809  1
  Al  Al21  1  0.88575908  0.54379026  0.08112002  1
  Al  Al22  1  0.44496191  0.42829234  0.83138321  1
  Al  Al23  1  0.55597044  0.53930563  0.58046699  1
  Al  Al24  1  0.11349503  0.75641012  0.33093037  1
  Al  Al25  1  0.22186489  0.86885927  0.07755433  1
  Al  Al26  1  0.77850671  0.76184557  0.83075847  1
  Al  Al27  1  0.88898928  0.87232248  0.58040713  1
  Al  Al28  1  0.44689036  0.75778793  0.33080601  1
  Al  Al29  1  0.56044877  0.86909940  0.08111989  1
  Al  Al30  1  0.10866438  0.76069508  0.83359293  1
  Al  Al31  1  0.22694743  0.86274788  0.58970858  1
  Al  Al32  1  0.77718494  0.76052405  0.33382682  1
  Al  Al33  1  0.88854848  0.87188609  0.08534615  1
  Al  Al34  1  0.44719167  0.75888866  0.83433972  1
  Al  Al35  1  0.55636699  0.87018932  0.58371699  1
  N  N36  1  0.23208507  0.21542364  0.37029991  1
  N  N37  1  0.10135456  0.08469409  0.11905075  1
  N  N38  1  0.88740659  0.20623598  0.86888411  1
  N  N39  1  0.77709402  0.09147760  0.62829062  1
  N  N40  1  0.55632806  0.20659208  0.37791874  1
  N  N41  1  0.46732391  0.08318540  0.12831466  1
  N  N42  1  0.22266943  0.20600697  0.86006172  1
  N  N43  1  0.11039562  0.09373006  0.61582662  1
  N  N44  1  0.86431080  0.21801347  0.38320186  1
  N  N45  1  0.77764569  0.09531160  0.12323313  1
  N  N46  1  0.55511402  0.20662964  0.87347056  1
  N  N47  1  0.44770101  0.09256944  0.62338519  1
  N  N48  1  0.22325654  0.53966035  0.37791643  1
  N  N49  1  0.09984458  0.45066646  0.12831414  1
  N  N50  1  0.88812534  0.54048388  0.87383723  1
  N  N51  1  0.77496662  0.43135039  0.62883406  1
  N  N52  1  0.55572806  0.53905814  0.37274527  1
  N  N53  1  0.44367315  0.42700875  0.12600053  1
  N  N54  1  0.22329391  0.53844737  0.87347254  1
  N  N55  1  0.10923567  0.43103432  0.62338669  1
  N  N56  1  0.88676236  0.53888174  0.37726294  1
  N  N57  1  0.77896211  0.42730811  0.12231766  1
  N  N58  1  0.55492516  0.53825663  0.87808996  1
  N  N59  1  0.44515645  0.42848984  0.62453383  1
  N  N60  1  0.23467554  0.84764737  0.38320207  1
  N  N61  1  0.11197722  0.76097484  0.12323291  1
  N  N62  1  0.88826317  0.87159483  0.87838180  1
  N  N63  1  0.77844039  0.76177251  0.62391942  1
  N  N64  1  0.55555038  0.87009394  0.37726557  1
  N  N65  1  0.44397576  0.76229159  0.12231769  1
  N  N66  1  0.22290054  0.87074012  0.86888362  1
  N  N67  1  0.10814392  0.76042675  0.62829149  1
  N  N68  1  0.88955211  0.87288438  0.37229078  1
  N  N69  1  0.77754473  0.76086841  0.12708680  1
  N  N70  1  0.55715271  0.87145637  0.87383476  1
  N  N71  1  0.44801775  0.75829896  0.62883407  1
