# generated using pymatgen
data_ScAl17N18
_symmetry_space_group_name_H-M   'P 1'
_cell_length_a   9.49805871
_cell_length_b   9.49805691
_cell_length_c   9.98914677
_cell_angle_alpha   89.98695053
_cell_angle_beta   89.98689180
_cell_angle_gamma   60.02335742
_symmetry_Int_Tables_number   1
_chemical_formula_structural   ScAl17N18
_chemical_formula_sum   'Sc2 Al34 N36'
_cell_volume   780.60404604
_cell_formula_units_Z   2
loop_
 _symmetry_equiv_pos_site_id
 _symmetry_equiv_pos_as_xyz
  1  'x, y, z'
loop_
 _atom_site_type_symbol
 _atom_site_label
 _atom_site_symmetry_multiplicity
 _atom_site_fract_x
 _atom_site_fract_y
 _atom_site_fract_z
 _atom_site_occupancy
  Sc  Sc0  1  0.10860336  0.09193989  0.31422604  1
  Sc  Sc1  1  0.22341557  0.20675061  0.05164863  1
  Al  Al2  1  0.77709296  0.09339367  0.79961899  1
  Al  Al3  1  0.88057764  0.20965003  0.55218513  1
  Al  Al4  1  0.45221553  0.09273842  0.30208701  1
  Al  Al5  1  0.55930411  0.20478230  0.04898308  1
  Al  Al6  1  0.11015502  0.09348825  0.79219057  1
  Al  Al7  1  0.22551662  0.20885023  0.55120418  1
  Al  Al8  1  0.77338149  0.09601878  0.29834486  1
  Al  Al9  1  0.88587244  0.20501617  0.04573851  1
  Al  Al10  1  0.44714085  0.09288910  0.79493245  1
  Al  Al11  1  0.55667536  0.20583174  0.54894248  1
  Al  Al12  1  0.10940619  0.43554801  0.30208670  1
  Al  Al13  1  0.22144957  0.54263662  0.04898333  1
  Al  Al14  1  0.77677879  0.42918589  0.79982303  1
  Al  Al15  1  0.88723233  0.54001776  0.54929381  1
  Al  Al16  1  0.44438726  0.42772040  0.30013244  1
  Al  Al17  1  0.55526619  0.53859992  0.04922514  1
  Al  Al18  1  0.10955576  0.43047402  0.79493333  1
  Al  Al19  1  0.22249859  0.54000861  0.54894316  1
  Al  Al20  1  0.77354566  0.43080562  0.29866357  1
  Al  Al21  1  0.88614785  0.54302149  0.04920806  1
  Al  Al22  1  0.44442032  0.42775407  0.79917356  1
  Al  Al23  1  0.55569749  0.53903194  0.54879030  1
  Al  Al24  1  0.11268555  0.75671470  0.29834557  1
  Al  Al25  1  0.22168362  0.86920558  0.04573775  1
  Al  Al26  1  0.77798705  0.76132021  0.79908067  1
  Al  Al27  1  0.88884991  0.87218266  0.54916890  1
  Al  Al28  1  0.44747310  0.75687921  0.29866319  1
  Al  Al29  1  0.55968808  0.86948168  0.04920778  1
  Al  Al30  1  0.11006073  0.76042605  0.79961800  1
  Al  Al31  1  0.22631790  0.86391063  0.55218546  1
  Al  Al32  1  0.77766885  0.76100363  0.29914405  1
  Al  Al33  1  0.88892938  0.87226320  0.05012472  1
  Al  Al34  1  0.44585254  0.76011219  0.79982329  1
  Al  Al35  1  0.55668437  0.87056553  0.54929380  1
  N  N36  1  0.23294249  0.21627703  0.35726205  1
  N  N37  1  0.10187054  0.08520438  0.10210851  1
  N  N38  1  0.88824862  0.20575539  0.85261157  1
  N  N39  1  0.77698017  0.09285609  0.60879307  1
  N  N40  1  0.55620023  0.20669383  0.35817710  1
  N  N41  1  0.46540516  0.08397509  0.11201323  1
  N  N42  1  0.22212452  0.20545817  0.83808817  1
  N  N43  1  0.11028989  0.09362346  0.59481438  1
  N  N44  1  0.86428049  0.21798887  0.36351525  1
  N  N45  1  0.77814470  0.09459145  0.10584554  1
  N  N46  1  0.55492730  0.20575159  0.85649461  1
  N  N47  1  0.44818003  0.09249063  0.60432876  1
  N  N48  1  0.22336002  0.53953368  0.35817638  1
  N  N49  1  0.10064290  0.44873746  0.11201370  1
  N  N50  1  0.88891274  0.53924652  0.85658598  1
  N  N51  1  0.77630531  0.43017248  0.60886112  1
  N  N52  1  0.55545597  0.53878827  0.35638825  1
  N  N53  1  0.44405376  0.42738809  0.10670677  1
  N  N54  1  0.22241844  0.53826072  0.85649452  1
  N  N55  1  0.10915701  0.43151323  0.60432808  1
  N  N56  1  0.88700833  0.53924456  0.35759640  1
  N  N57  1  0.77829122  0.42749458  0.10523301  1
  N  N58  1  0.55521575  0.53854893  0.85752883  1
  N  N59  1  0.44461859  0.42795190  0.60680144  1
  N  N60  1  0.23465574  0.84761187  0.36351530  1
  N  N61  1  0.11125772  0.76147793  0.10584624  1
  N  N62  1  0.88864223  0.87197575  0.85778716  1
  N  N63  1  0.77801484  0.76134798  0.60685033  1
  N  N64  1  0.55591174  0.87034174  0.35759625  1
  N  N65  1  0.44416086  0.76162450  0.10523301  1
  N  N66  1  0.22242183  0.87158209  0.85261211  1
  N  N67  1  0.10952194  0.76031346  0.60879420  1
  N  N68  1  0.88936102  0.87269397  0.35576730  1
  N  N69  1  0.77796387  0.76129720  0.10721755  1
  N  N70  1  0.55591314  0.87224605  0.85658717  1
  N  N71  1  0.44683872  0.75963829  0.60885996  1
