# generated using pymatgen
data_ScAl17N18
_symmetry_space_group_name_H-M   'P 1'
_cell_length_a   9.79847922
_cell_length_b   9.79848357
_cell_length_c   9.10652231
_cell_angle_alpha   90.02184672
_cell_angle_beta   90.02185014
_cell_angle_gamma   60.01868539
_symmetry_Int_Tables_number   1
_chemical_formula_structural   ScAl17N18
_chemical_formula_sum   'Sc2 Al34 N36'
_cell_volume   757.32523915
_cell_formula_units_Z   2
loop_
 _symmetry_equiv_pos_site_id
 _symmetry_equiv_pos_as_xyz
  1  'x, y, z'
loop_
 _atom_site_type_symbol
 _atom_site_label
 _atom_site_symmetry_multiplicity
 _atom_site_fract_x
 _atom_site_fract_y
 _atom_site_fract_z
 _atom_site_occupancy
  Sc  Sc0  1  0.10763610  0.09096994  0.35521262  1
  Sc  Sc1  1  0.22402702  0.20736224  0.09724943  1
  Al  Al2  1  0.77737010  0.09186304  0.83575216  1
  Al  Al3  1  0.87988496  0.21004073  0.59268022  1
  Al  Al4  1  0.45308540  0.09194842  0.33875589  1
  Al  Al5  1  0.55897367  0.20565454  0.08257012  1
  Al  Al6  1  0.11028174  0.09361525  0.83454562  1
  Al  Al7  1  0.22497004  0.20830333  0.59340812  1
  Al  Al8  1  0.77313918  0.09679863  0.33318031  1
  Al  Al9  1  0.88508769  0.20548920  0.07938018  1
  Al  Al10  1  0.44805152  0.09258349  0.83231567  1
  Al  Al11  1  0.55692535  0.20567473  0.58611497  1
  Al  Al12  1  0.10861492  0.43641884  0.33875544  1
  Al  Al13  1  0.22232092  0.54230690  0.08257013  1
  Al  Al14  1  0.77537122  0.43067878  0.83658101  1
  Al  Al15  1  0.88682197  0.53964337  0.58604979  1
  Al  Al16  1  0.44405562  0.42738904  0.33647052  1
  Al  Al17  1  0.55487087  0.53820396  0.08659121  1
  Al  Al18  1  0.10925002  0.43138495  0.83231605  1
  Al  Al19  1  0.22234144  0.54025867  0.58611497  1
  Al  Al20  1  0.77463764  0.43016430  0.33294807  1
  Al  Al21  1  0.88573827  0.54379783  0.08318689  1
  Al  Al22  1  0.44502500  0.42835847  0.83337031  1
  Al  Al23  1  0.55599225  0.53932549  0.58249681  1
  Al  Al24  1  0.11346523  0.75647238  0.33318022  1
  Al  Al25  1  0.22215562  0.86842103  0.07938016  1
  Al  Al26  1  0.77856149  0.76189456  0.83264764  1
  Al  Al27  1  0.88902329  0.87235659  0.58232398  1
  Al  Al28  1  0.44683102  0.75797082  0.33294815  1
  Al  Al29  1  0.56046487  0.86907116  0.08318687  1
  Al  Al30  1  0.10852967  0.76070334  0.83575221  1
  Al  Al31  1  0.22670736  0.86321828  0.59268032  1
  Al  Al32  1  0.77714077  0.76047389  0.33633769  1
  Al  Al33  1  0.88848755  0.87182067  0.08778212  1
  Al  Al34  1  0.44734542  0.75870445  0.83658093  1
  Al  Al35  1  0.55631006  0.87015533  0.58604983  1
  N  N36  1  0.23179247  0.21512576  0.36846878  1
  N  N37  1  0.10160411  0.08493722  0.11461608  1
  N  N38  1  0.88694159  0.20646859  0.86629334  1
  N  N39  1  0.77717062  0.09136040  0.62613235  1
  N  N40  1  0.55632705  0.20657527  0.37584700  1
  N  N41  1  0.46697423  0.08338679  0.12552672  1
  N  N42  1  0.22284316  0.20617647  0.85695875  1
  N  N43  1  0.11032555  0.09365885  0.61560122  1
  N  N44  1  0.86509370  0.21761275  0.38082022  1
  N  N45  1  0.77757095  0.09532354  0.12089465  1
  N  N46  1  0.55515996  0.20675385  0.87100671  1
  N  N47  1  0.44777030  0.09250550  0.62112324  1
  N  N48  1  0.22324188  0.53966041  0.37584706  1
  N  N49  1  0.10005379  0.45030699  0.12552670  1
  N  N50  1  0.88795701  0.54065479  0.87141162  1
  N  N51  1  0.77486048  0.43138195  0.62673860  1
  N  N52  1  0.55574683  0.53908009  0.37018657  1
  N  N53  1  0.44363951  0.42697285  0.12392259  1
  N  N54  1  0.22342048  0.53849335  0.87100667  1
  N  N55  1  0.10917210  0.43110368  0.62112321  1
  N  N56  1  0.88679430  0.53881566  0.37518234  1
  N  N57  1  0.77897848  0.42735939  0.11990584  1
  N  N58  1  0.55488207  0.53821536  0.87619777  1
  N  N59  1  0.44522117  0.42855447  0.62217562  1
  N  N60  1  0.23427950  0.84842682  0.38082023  1
  N  N61  1  0.11199022  0.76090428  0.12089464  1
  N  N62  1  0.88821305  0.87154638  0.87647087  1
  N  N63  1  0.77849224  0.76182547  0.62142370  1
  N  N64  1  0.55548229  0.87012769  0.37518231  1
  N  N65  1  0.44402603  0.76231184  0.11990580  1
  N  N66  1  0.22313520  0.87027496  0.86629338  1
  N  N67  1  0.10802705  0.76050394  0.62613235  1
  N  N68  1  0.88955259  0.87288596  0.36978284  1
  N  N69  1  0.77749759  0.76083085  0.12513626  1
  N  N70  1  0.55732140  0.87129042  0.87141160  1
  N  N71  1  0.44804863  0.75819375  0.62673858  1
