# generated using pymatgen
data_ScAl17N18
_symmetry_space_group_name_H-M   'P 1'
_cell_length_a   9.97265976
_cell_length_b   9.97268485
_cell_length_c   8.56382020
_cell_angle_alpha   90.02538051
_cell_angle_beta   90.02538091
_cell_angle_gamma   60.01482387
_symmetry_Int_Tables_number   1
_chemical_formula_structural   ScAl17N18
_chemical_formula_sum   'Sc2 Al34 N36'
_cell_volume   737.71067236
_cell_formula_units_Z   2
loop_
 _symmetry_equiv_pos_site_id
 _symmetry_equiv_pos_as_xyz
  1  'x, y, z'
loop_
 _atom_site_type_symbol
 _atom_site_label
 _atom_site_symmetry_multiplicity
 _atom_site_fract_x
 _atom_site_fract_y
 _atom_site_fract_z
 _atom_site_occupancy
  Sc  Sc0  1  0.10821751  0.09154978  0.35781899  1
  Sc  Sc1  1  0.22476345  0.20809547  0.10072778  1
  Al  Al2  1  0.77735290  0.09257909  0.84706158  1
  Al  Al3  1  0.88213630  0.20892391  0.60403116  1
  Al  Al4  1  0.45135810  0.09260290  0.35220175  1
  Al  Al5  1  0.55897246  0.20572733  0.09512424  1
  Al  Al6  1  0.10937737  0.09271040  0.84849612  1
  Al  Al7  1  0.22429940  0.20763297  0.60485738  1
  Al  Al8  1  0.77365381  0.09560943  0.34682085  1
  Al  Al9  1  0.88339433  0.20662350  0.09241085  1
  Al  Al10  1  0.44952253  0.09188833  0.84454954  1
  Al  Al11  1  0.55654095  0.20601637  0.59861052  1
  Al  Al12  1  0.10926968  0.43469146  0.35220206  1
  Al  Al13  1  0.22239394  0.54230613  0.09512421  1
  Al  Al14  1  0.77584971  0.43014514  0.84780072  1
  Al  Al15  1  0.88702156  0.53967988  0.59837422  1
  Al  Al16  1  0.44426028  0.42759335  0.34861382  1
  Al  Al17  1  0.55508048  0.53841392  0.09750661  1
  Al  Al18  1  0.10855514  0.43285585  0.84454923  1
  Al  Al19  1  0.22268291  0.53987445  0.59861053  1
  Al  Al20  1  0.77439326  0.43067236  0.34641813  1
  Al  Al21  1  0.88560385  0.54333881  0.09578387  1
  Al  Al22  1  0.44486942  0.42820250  0.84559394  1
  Al  Al23  1  0.55572192  0.53905537  0.59636105  1
  Al  Al24  1  0.11227629  0.75698693  0.34682083  1
  Al  Al25  1  0.22329005  0.86672786  0.09241094  1
  Al  Al26  1  0.77831802  0.76165120  0.84484974  1
  Al  Al27  1  0.88894042  0.87227394  0.59582351  1
  Al  Al28  1  0.44733922  0.75772633  0.34641808  1
  Al  Al29  1  0.56000501  0.86893771  0.09578386  1
  Al  Al30  1  0.10924595  0.76068605  0.84706159  1
  Al  Al31  1  0.22559044  0.86546974  0.60403105  1
  Al  Al32  1  0.77746132  0.76079453  0.34878659  1
  Al  Al33  1  0.88853896  0.87187251  0.09833054  1
  Al  Al34  1  0.44681203  0.75918279  0.84780075  1
  Al  Al35  1  0.55634634  0.87035508  0.59837427  1
  N  N36  1  0.23083269  0.21416649  0.36358647  1
  N  N37  1  0.10245558  0.08578849  0.09937185  1
  N  N38  1  0.88572845  0.20716697  0.85634876  1
  N  N39  1  0.77735543  0.09210065  0.61341956  1
  N  N40  1  0.55595865  0.20649804  0.36344418  1
  N  N41  1  0.46487762  0.08442948  0.11027501  1
  N  N42  1  0.22324730  0.20658097  0.84721713  1
  N  N43  1  0.11014135  0.09347428  0.61461995  1
  N  N44  1  0.86828763  0.21588392  0.36529586  1
  N  N45  1  0.77749993  0.09443106  0.10894262  1
  N  N46  1  0.55562679  0.20697501  0.85856871  1
  N  N47  1  0.44764142  0.09257520  0.61026651  1
  N  N48  1  0.22316453  0.53929236  0.36344429  1
  N  N49  1  0.10109604  0.44821159  0.11027501  1
  N  N50  1  0.88730681  0.54079225  0.85884652  1
  N  N51  1  0.77540478  0.43048013  0.61385382  1
  N  N52  1  0.55558772  0.53892151  0.35880317  1
  N  N53  1  0.44385767  0.42719052  0.11158283  1
  N  N54  1  0.22364152  0.53896042  0.85856864  1
  N  N55  1  0.10924223  0.43097446  0.61026655  1
  N  N56  1  0.88729410  0.53885654  0.36305694  1
  N  N57  1  0.77828730  0.42825359  0.10820178  1
  N  N58  1  0.55498748  0.53832114  0.86322295  1
  N  N59  1  0.44509699  0.42842996  0.61020416  1
  N  N60  1  0.23255027  0.85162138  0.36529583  1
  N  N61  1  0.11109807  0.76083316  0.10894266  1
  N  N62  1  0.88830490  0.87163866  0.86315404  1
  N  N63  1  0.77837569  0.76170878  0.60937784  1
  N  N64  1  0.55552273  0.87062785  0.36305691  1
  N  N65  1  0.44492067  0.76162027  0.10820176  1
  N  N66  1  0.22383344  0.86906206  0.85634875  1
  N  N67  1  0.10876768  0.76068841  0.61341958  1
  N  N68  1  0.88936405  0.87269777  0.35898622  1
  N  N69  1  0.77768439  0.76101794  0.11283752  1
  N  N70  1  0.55745848  0.87064057  0.85884661  1
  N  N71  1  0.44714717  0.75873771  0.61385382  1
