# generated using pymatgen
data_ScAl17N18
_symmetry_space_group_name_H-M   'P 1'
_cell_length_a   9.93291640
_cell_length_b   9.93291567
_cell_length_c   8.68557857
_cell_angle_alpha   90.02469844
_cell_angle_beta   90.02469907
_cell_angle_gamma   60.01526480
_symmetry_Int_Tables_number   1
_chemical_formula_structural   ScAl17N18
_chemical_formula_sum   'Sc2 Al34 N36'
_cell_volume   742.24903484
_cell_formula_units_Z   2
loop_
 _symmetry_equiv_pos_site_id
 _symmetry_equiv_pos_as_xyz
  1  'x, y, z'
loop_
 _atom_site_type_symbol
 _atom_site_label
 _atom_site_symmetry_multiplicity
 _atom_site_fract_x
 _atom_site_fract_y
 _atom_site_fract_z
 _atom_site_occupancy
  Sc  Sc0  1  0.10863825  0.09197025  0.35813758  1
  Sc  Sc1  1  0.22524020  0.20857467  0.10085667  1
  Al  Al2  1  0.77657731  0.09411829  0.86333085  1
  Al  Al3  1  0.88412017  0.20792224  0.61738666  1
  Al  Al4  1  0.44951540  0.09360935  0.37023981  1
  Al  Al5  1  0.55983437  0.20390518  0.11582366  1
  Al  Al6  1  0.10895511  0.09228851  0.85529970  1
  Al  Al7  1  0.22369785  0.20703111  0.61258293  1
  Al  Al8  1  0.77441684  0.09415299  0.36727393  1
  Al  Al9  1  0.88155851  0.20753157  0.10974721  1
  Al  Al10  1  0.45169344  0.09079305  0.85693103  1
  Al  Al11  1  0.55591550  0.20779213  0.61463280  1
  Al  Al12  1  0.11027606  0.43284878  0.37023969  1
  Al  Al13  1  0.22057173  0.54316772  0.11582369  1
  Al  Al14  1  0.77705094  0.42970434  0.86354916  1
  Al  Al15  1  0.88618833  0.54112741  0.61377743  1
  Al  Al16  1  0.44484780  0.42818127  0.36283070  1
  Al  Al17  1  0.55601986  0.53935318  0.11306850  1
  Al  Al18  1  0.10745965  0.43502681  0.85693118  1
  Al  Al19  1  0.22445879  0.53924888  0.61463278  1
  Al  Al20  1  0.77309649  0.43100746  0.36656517  1
  Al  Al21  1  0.88620147  0.54200457  0.11623625  1
  Al  Al22  1  0.44429394  0.42762735  0.86705358  1
  Al  Al23  1  0.55484121  0.53817459  0.61751136  1
  Al  Al24  1  0.11081977  0.75775020  0.36727392  1
  Al  Al25  1  0.22419824  0.86489176  0.10974734  1
  Al  Al26  1  0.77745317  0.76078647  0.86657979  1
  Al  Al27  1  0.88831901  0.87165232  0.61667693  1
  Al  Al28  1  0.44767396  0.75642992  0.36656518  1
  Al  Al29  1  0.55867127  0.86953468  0.11623631  1
  Al  Al30  1  0.11078491  0.75991060  0.86333087  1
  Al  Al31  1  0.22458897  0.86745343  0.61738655  1
  Al  Al32  1  0.77835260  0.76168599  0.36383037  1
  Al  Al33  1  0.88916823  0.87250145  0.11321933  1
  Al  Al34  1  0.44637106  0.76038421  0.86354916  1
  Al  Al35  1  0.55779399  0.86952171  0.61377739  1
  N  N36  1  0.23102512  0.21435845  0.35623623  1
  N  N37  1  0.10229444  0.08562777  0.09405851  1
  N  N38  1  0.88566217  0.20742248  0.84534495  1
  N  N39  1  0.77785282  0.09300724  0.59644509  1
  N  N40  1  0.55583302  0.20515997  0.34612334  1
  N  N41  1  0.46573431  0.08368498  0.08832293  1
  N  N42  1  0.22310942  0.20644273  0.84351050  1
  N  N43  1  0.11012361  0.09345695  0.60938311  1
  N  N44  1  0.86788607  0.21578771  0.34379547  1
  N  N45  1  0.77720546  0.09346101  0.09116629  1
  N  N46  1  0.55595305  0.20825946  0.84115704  1
  N  N47  1  0.44738119  0.09294293  0.59984057  1
  N  N48  1  0.22182663  0.53916631  0.34612336  1
  N  N49  1  0.10035174  0.44906740  0.08832292  1
  N  N50  1  0.88578820  0.54153380  0.84059249  1
  N  N51  1  0.77578743  0.42916948  0.59606973  1
  N  N52  1  0.55573239  0.53906559  0.34171086  1
  N  N53  1  0.44386072  0.42719406  0.09672387  1
  N  N54  1  0.22492614  0.53928636  0.84115701  1
  N  N55  1  0.10960953  0.43071454  0.59984059  1
  N  N56  1  0.88872856  0.53804090  0.34705002  1
  N  N57  1  0.77786010  0.42952136  0.09170642  1
  N  N58  1  0.55484001  0.53817331  0.84581448  1
  N  N59  1  0.44507868  0.42841202  0.59093434  1
  N  N60  1  0.23245424  0.85121964  0.34379540  1
  N  N61  1  0.11012762  0.76053881  0.09116625  1
  N  N62  1  0.88810559  0.87143898  0.84489110  1
  N  N63  1  0.77839557  0.76172894  0.59099962  1
  N  N64  1  0.55470757  0.87206192  0.34705004  1
  N  N65  1  0.44618809  0.76119341  0.09170641  1
  N  N66  1  0.22408918  0.86899546  0.84534501  1
  N  N67  1  0.10967385  0.76118617  0.59644511  1
  N  N68  1  0.88956947  0.87290281  0.34308925  1
  N  N69  1  0.77763652  0.76096994  0.09669070  1
  N  N70  1  0.55820041  0.86912160  0.84059249  1
  N  N71  1  0.44583620  0.75912071  0.59606974  1
