# generated using pymatgen
data_ScAl17N18
_symmetry_space_group_name_H-M   'P 1'
_cell_length_a   9.49699409
_cell_length_b   9.49699436
_cell_length_c   9.99191168
_cell_angle_alpha   89.98570759
_cell_angle_beta   89.98570989
_cell_angle_gamma   60.02348262
_symmetry_Int_Tables_number   1
_chemical_formula_structural   ScAl17N18
_chemical_formula_sum   'Sc2 Al34 N36'
_cell_volume   780.64622676
_cell_formula_units_Z   2
loop_
 _symmetry_equiv_pos_site_id
 _symmetry_equiv_pos_as_xyz
  1  'x, y, z'
loop_
 _atom_site_type_symbol
 _atom_site_label
 _atom_site_symmetry_multiplicity
 _atom_site_fract_x
 _atom_site_fract_y
 _atom_site_fract_z
 _atom_site_occupancy
  Sc  Sc0  1  0.10987724  0.09321056  0.40331838  1
  Sc  Sc1  1  0.22469300  0.20802625  0.14074469  1
  Al  Al2  1  0.77663516  0.09414369  0.90595562  1
  Al  Al3  1  0.88616314  0.20709329  0.65997231  1
  Al  Al4  1  0.44744269  0.09495141  0.40916314  1
  Al  Al5  1  0.55992043  0.20396181  0.15654308  1
  Al  Al6  1  0.10780257  0.09113591  0.90366494  1
  Al  Al7  1  0.22316016  0.20649350  0.66269384  1
  Al  Al8  1  0.77400537  0.09519603  0.40590400  1
  Al  Al9  1  0.88110677  0.20723086  0.15279465  1
  Al  Al10  1  0.45270884  0.09034021  0.90271112  1
  Al  Al11  1  0.55622234  0.20658139  0.65528240  1
  Al  Al12  1  0.11161806  0.43077603  0.40916316  1
  Al  Al13  1  0.22062846  0.54325375  0.15654310  1
  Al  Al14  1  0.77662510  0.42941304  0.90560452  1
  Al  Al15  1  0.88746030  0.53986548  0.65507993  1
  Al  Al16  1  0.44437905  0.42771238  0.40477237  1
  Al  Al17  1  0.55563907  0.53897238  0.15575646  1
  Al  Al18  1  0.10700687  0.43604219  0.90271112  1
  Al  Al19  1  0.22324805  0.53955568  0.65528241  1
  Al  Al20  1  0.77362643  0.43049244  0.40568078  1
  Al  Al21  1  0.88583904  0.54309398  0.15622442  1
  Al  Al22  1  0.44446209  0.42779544  0.90572305  1
  Al  Al23  1  0.55532593  0.53865926  0.65581017  1
  Al  Al24  1  0.11186268  0.75733869  0.40590401  1
  Al  Al25  1  0.22389751  0.86444009  0.15279465  1
  Al  Al26  1  0.77761477  0.76094811  0.90610096  1
  Al  Al27  1  0.88889331  0.87222664  0.65571786  1
  Al  Al28  1  0.44715910  0.75695974  0.40568078  1
  Al  Al29  1  0.55976067  0.86917235  0.15622441  1
  Al  Al30  1  0.11081034  0.75996850  0.90595564  1
  Al  Al31  1  0.22375997  0.86949646  0.65997233  1
  Al  Al32  1  0.77804304  0.76137639  0.40567533  1
  Al  Al33  1  0.88892189  0.87225525  0.15476263  1
  Al  Al34  1  0.44607969  0.75995844  0.90560454  1
  Al  Al35  1  0.55653214  0.87079363  0.65507993  1
  N  N36  1  0.23142333  0.21475664  0.35279629  1
  N  N37  1  0.10036886  0.08370216  0.09753492  1
  N  N38  1  0.88512287  0.20749301  0.85052101  1
  N  N39  1  0.77838389  0.09423081  0.59834328  1
  N  N40  1  0.55515701  0.20538754  0.34899289  1
  N  N41  1  0.46899974  0.08200204  0.09132809  1
  N  N42  1  0.22302367  0.20635698  0.85999303  1
  N  N43  1  0.11118445  0.09451774  0.61680234  1
  N  N44  1  0.86792048  0.21599393  0.34281123  1
  N  N45  1  0.77710719  0.09327943  0.09667378  1
  N  N46  1  0.55632917  0.20712113  0.84605787  1
  N  N47  1  0.44507300  0.09421964  0.60223127  1
  N  N48  1  0.22205420  0.53849035  0.34899295  1
  N  N49  1  0.09866874  0.45233303  0.09132811  1
  N  N50  1  0.88647646  0.54033648  0.84599362  1
  N  N51  1  0.77740192  0.42773201  0.59825488  1
  N  N52  1  0.55534472  0.53867804  0.34763182  1
  N  N53  1  0.44395129  0.42728463  0.09907905  1
  N  N54  1  0.22378775  0.53966255  0.84605792  1
  N  N55  1  0.11088630  0.42840634  0.60223129  1
  N  N56  1  0.88914913  0.53835531  0.34960759  1
  N  N57  1  0.77739753  0.42963602  0.09725407  1
  N  N58  1  0.55529819  0.53863155  0.84799238  1
  N  N59  1  0.44466884  0.42800214  0.59706235  1
  N  N60  1  0.23266061  0.85125379  0.34281119  1
  N  N61  1  0.10994607  0.76044054  0.09667382  1
  N  N62  1  0.88869443  0.87202779  0.84804501  1
  N  N63  1  0.77809578  0.76142915  0.59731875  1
  N  N64  1  0.55502195  0.87248249  0.34960766  1
  N  N65  1  0.44630270  0.76073086  0.09725419  1
  N  N66  1  0.22415965  0.86845620  0.85052099  1
  N  N67  1  0.11089748  0.76171720  0.59834322  1
  N  N68  1  0.88925495  0.87258832  0.34814198  1
  N  N69  1  0.77785625  0.76118966  0.09845758  1
  N  N70  1  0.55700311  0.86980982  0.84599366  1
  N  N71  1  0.44439868  0.76073525  0.59825491  1
