# generated using pymatgen
data_ScAl17N18
_symmetry_space_group_name_H-M   'P 1'
_cell_length_a   9.84515468
_cell_length_b   9.84516231
_cell_length_c   8.96029116
_cell_angle_alpha   90.02310951
_cell_angle_beta   90.02311132
_cell_angle_gamma   60.01748159
_symmetry_Int_Tables_number   1
_chemical_formula_structural   ScAl17N18
_chemical_formula_sum   'Sc2 Al34 N36'
_cell_volume   752.27149810
_cell_formula_units_Z   2
loop_
 _symmetry_equiv_pos_site_id
 _symmetry_equiv_pos_as_xyz
  1  'x, y, z'
loop_
 _atom_site_type_symbol
 _atom_site_label
 _atom_site_symmetry_multiplicity
 _atom_site_fract_x
 _atom_site_fract_y
 _atom_site_fract_z
 _atom_site_occupancy
  Sc  Sc0  1  0.10777841  0.09111128  0.35627582  1
  Sc  Sc1  1  0.22428860  0.20762194  0.09857916  1
  Al  Al2  1  0.77738552  0.09183320  0.83815770  1
  Al  Al3  1  0.88044540  0.20976000  0.59571540  1
  Al  Al4  1  0.45264559  0.09210615  0.34181072  1
  Al  Al5  1  0.55890058  0.20576396  0.08494561  1
  Al  Al6  1  0.11006201  0.09339528  0.83864495  1
  Al  Al7  1  0.22470158  0.20803499  0.59737554  1
  Al  Al8  1  0.77322256  0.09667012  0.33582796  1
  Al  Al9  1  0.88462995  0.20579654  0.08169620  1
  Al  Al10  1  0.44849233  0.09237791  0.83485143  1
  Al  Al11  1  0.55691849  0.20569565  0.58881539  1
  Al  Al12  1  0.10877286  0.43597891  0.34181071  1
  Al  Al13  1  0.22243060  0.54223399  0.08494558  1
  Al  Al14  1  0.77528480  0.43072702  0.83904411  1
  Al  Al15  1  0.88682684  0.53959257  0.58868201  1
  Al  Al16  1  0.44404407  0.42737735  0.33911331  1
  Al  Al17  1  0.55485803  0.53819139  0.08915367  1
  Al  Al18  1  0.10904460  0.43182565  0.83485143  1
  Al  Al19  1  0.22236228  0.54025187  0.58881541  1
  Al  Al20  1  0.77474788  0.43017489  0.33550439  1
  Al  Al21  1  0.88570806  0.54376923  0.08561493  1
  Al  Al22  1  0.44505942  0.42839269  0.83570583  1
  Al  Al23  1  0.55598603  0.53931941  0.58499276  1
  Al  Al24  1  0.11333683  0.75655584  0.33582796  1
  Al  Al25  1  0.22246319  0.86796331  0.08169622  1
  Al  Al26  1  0.77857985  0.76191316  0.83490423  1
  Al  Al27  1  0.88904721  0.87238059  0.58470960  1
  Al  Al28  1  0.44684163  0.75808115  0.33550439  1
  Al  Al29  1  0.56043579  0.86904149  0.08561491  1
  Al  Al30  1  0.10849990  0.76071882  0.83815770  1
  Al  Al31  1  0.22642664  0.86377874  0.59571537  1
  Al  Al32  1  0.77713414  0.76046749  0.33910999  1
  Al  Al33  1  0.88844349  0.87177691  0.09033070  1
  Al  Al34  1  0.44739372  0.75861809  0.83904411  1
  Al  Al35  1  0.55625917  0.87016023  0.58868203  1
  N  N36  1  0.23150725  0.21484072  0.36683076  1
  N  N37  1  0.10185044  0.08518365  0.11008415  1
  N  N38  1  0.88652647  0.20668684  0.86365993  1
  N  N39  1  0.77724810  0.09134845  0.62362558  1
  N  N40  1  0.55629215  0.20655477  0.37344004  1
  N  N41  1  0.46651311  0.08363846  0.12234759  1
  N  N42  1  0.22298751  0.20632096  0.85395644  1
  N  N43  1  0.11027451  0.09360773  0.61540002  1
  N  N44  1  0.86592625  0.21718036  0.37789896  1
  N  N45  1  0.77751436  0.09525603  0.11831151  1
  N  N46  1  0.55522631  0.20685637  0.86827653  1
  N  N47  1  0.44776487  0.09249112  0.61862937  1
  N  N48  1  0.22322136  0.53962558  0.37344007  1
  N  N49  1  0.10030518  0.44984644  0.12234758  1
  N  N50  1  0.88779477  0.54077903  0.86870464  1
  N  N51  1  0.77483848  0.43131497  0.62426549  1
  N  N52  1  0.55574887  0.53908227  0.36748115  1
  N  N53  1  0.44363339  0.42696661  0.12150728  1
  N  N54  1  0.22352296  0.53855974  0.86827650  1
  N  N55  1  0.10915786  0.43109813  0.61862939  1
  N  N56  1  0.88686409  0.53876954  0.37278073  1
  N  N57  1  0.77893801  0.42746981  0.11728216  1
  N  N58  1  0.55486204  0.53819547  0.87387538  1
  N  N59  1  0.44525751  0.42859072  0.61956623  1
  N  N60  1  0.23384695  0.84925965  0.37789896  1
  N  N61  1  0.11192277  0.76084762  0.11831150  1
  N  N62  1  0.88818742  0.87152088  0.87410775  1
  N  N63  1  0.77852057  0.76185383  0.61870190  1
  N  N64  1  0.55543606  0.87019756  0.37278075  1
  N  N65  1  0.44413660  0.76227122  0.11728217  1
  N  N66  1  0.22335342  0.86985989  0.86365993  1
  N  N67  1  0.10801519  0.76058134  0.62362560  1
  N  N68  1  0.88953884  0.87287229  0.36715749  1
  N  N69  1  0.77748386  0.76081718  0.12282786  1
  N  N70  1  0.55744557  0.87112823  0.86870463  1
  N  N71  1  0.44798174  0.75817171  0.62426549  1
