# generated using pymatgen
data_ScAl17N18
_symmetry_space_group_name_H-M   'P 1'
_cell_length_a   9.84564219
_cell_length_b   9.84564295
_cell_length_c   8.95879097
_cell_angle_alpha   90.02315473
_cell_angle_beta   90.02315503
_cell_angle_gamma   60.01741967
_symmetry_Int_Tables_number   1
_chemical_formula_structural   ScAl17N18
_chemical_formula_sum   'Sc2 Al34 N36'
_cell_volume   752.21904518
_cell_formula_units_Z   2
loop_
 _symmetry_equiv_pos_site_id
 _symmetry_equiv_pos_as_xyz
  1  'x, y, z'
loop_
 _atom_site_type_symbol
 _atom_site_label
 _atom_site_symmetry_multiplicity
 _atom_site_fract_x
 _atom_site_fract_y
 _atom_site_fract_z
 _atom_site_occupancy
  Sc  Sc0  1  0.10901788  0.09235109  0.35985364  1
  Sc  Sc1  1  0.22552857  0.20886194  0.10215707  1
  Al  Al2  1  0.77639293  0.09427793  0.86960512  1
  Al  Al3  1  0.88480946  0.20759995  0.62356218  1
  Al  Al4  1  0.44868441  0.09417527  0.37672846  1
  Al  Al5  1  0.56008144  0.20330893  0.12258284  1
  Al  Al6  1  0.10860885  0.09194218  0.86102557  1
  Al  Al7  1  0.22324790  0.20658125  0.61975590  1
  Al  Al8  1  0.77440604  0.09421161  0.37346862  1
  Al  Al9  1  0.88066811  0.20786608  0.11660845  1
  Al  Al10  1  0.45285618  0.09021897  0.86269264  1
  Al  Al11  1  0.55592596  0.20813949  0.62026412  1
  Al  Al12  1  0.11084193  0.43201774  0.37672846  1
  Al  Al13  1  0.21997558  0.54341479  0.12258283  1
  Al  Al14  1  0.77704818  0.42981378  0.86973924  1
  Al  Al15  1  0.88591273  0.54135561  0.61938099  1
  Al  Al16  1  0.44486406  0.42819741  0.36809802  1
  Al  Al17  1  0.55617198  0.53950532  0.11931122  1
  Al  Al18  1  0.10688563  0.43618951  0.86269265  1
  Al  Al19  1  0.22480614  0.53925930  0.62026413  1
  Al  Al20  1  0.77287492  0.43093531  0.37279747  1
  Al  Al21  1  0.88646752  0.54189475  0.12290693  1
  Al  Al22  1  0.44426280  0.42759614  0.87370281  1
  Al  Al23  1  0.55473028  0.53806362  0.62351097  1
  Al  Al24  1  0.11087827  0.75773935  0.37346863  1
  Al  Al25  1  0.22453274  0.86400142  0.11660843  1
  Al  Al26  1  0.77732401  0.76065734  0.87341915  1
  Al  Al27  1  0.88825003  0.87158339  0.62270654  1
  Al  Al28  1  0.44760199  0.75620823  0.37279747  1
  Al  Al29  1  0.55856141  0.86980086  0.12290692  1
  Al  Al30  1  0.11094458  0.75972626  0.86960511  1
  Al  Al31  1  0.22426661  0.86814279  0.62356220  1
  Al  Al32  1  0.77844923  0.76178256  0.36927168  1
  Al  Al33  1  0.88926247  0.87259581  0.11930828  1
  Al  Al34  1  0.44648044  0.76038152  0.86973923  1
  Al  Al35  1  0.55802227  0.86924608  0.61938098  1
  N  N36  1  0.23145638  0.21478972  0.34841135  1
  N  N37  1  0.10180373  0.08513703  0.09163000  1
  N  N38  1  0.88554242  0.20748449  0.83984112  1
  N  N39  1  0.77808038  0.09311858  0.59019310  1
  N  N40  1  0.55579163  0.20472225  0.34016012  1
  N  N41  1  0.46737191  0.08280066  0.08057418  1
  N  N42  1  0.22303380  0.20636715  0.84304394  1
  N  N43  1  0.11031874  0.09365204  0.60451842  1
  N  N44  1  0.86680164  0.21633331  0.33613454  1
  N  N45  1  0.77701726  0.09341936  0.08503700  1
  N  N46  1  0.55606284  0.20862478  0.83484878  1
  N  N47  1  0.44678754  0.09328478  0.59481756  1
  N  N48  1  0.22138890  0.53912498  0.34016010  1
  N  N49  1  0.09946733  0.45070523  0.08057418  1
  N  N50  1  0.88532660  0.54180143  0.83421121  1
  N  N51  1  0.77586289  0.42884865  0.58976499  1
  N  N52  1  0.55582296  0.53915630  0.33564761  1
  N  N53  1  0.44377039  0.42710373  0.09130914  1
  N  N54  1  0.22529142  0.53939619  0.83484879  1
  N  N55  1  0.10995144  0.43012087  0.59481755  1
  N  N56  1  0.88917181  0.53770639  0.34118815  1
  N  N57  1  0.77787109  0.42977644  0.08569616  1
  N  N58  1  0.55478928  0.53812263  0.83976875  1
  N  N59  1  0.44512051  0.42845386  0.58437190  1
  N  N60  1  0.23300000  0.85013492  0.33613452  1
  N  N61  1  0.11008602  0.76035057  0.08503699  1
  N  N62  1  0.88805234  0.87138571  0.83890269  1
  N  N63  1  0.77844521  0.76177855  0.58460293  1
  N  N64  1  0.55437304  0.87250516  0.34118816  1
  N  N65  1  0.44644312  0.76120441  0.08569616  1
  N  N66  1  0.22415114  0.86887576  0.83984113  1
  N  N67  1  0.10978524  0.76141371  0.59019311  1
  N  N68  1  0.88967321  0.87300654  0.33696874  1
  N  N69  1  0.77756040  0.76089373  0.09098667  1
  N  N70  1  0.55846808  0.86865995  0.83421121  1
  N  N71  1  0.44551531  0.75919622  0.58976498  1
