# generated using pymatgen
data_ScAl17N18
_symmetry_space_group_name_H-M   'P 1'
_cell_length_a   9.59146769
_cell_length_b   9.59147937
_cell_length_c   9.72917599
_cell_angle_alpha   90.00912290
_cell_angle_beta   90.00919021
_cell_angle_gamma   60.02290466
_symmetry_Int_Tables_number   1
_chemical_formula_structural   ScAl17N18
_chemical_formula_sum   'Sc2 Al34 N36'
_cell_volume   775.31384398
_cell_formula_units_Z   2
loop_
 _symmetry_equiv_pos_site_id
 _symmetry_equiv_pos_as_xyz
  1  'x, y, z'
loop_
 _atom_site_type_symbol
 _atom_site_label
 _atom_site_symmetry_multiplicity
 _atom_site_fract_x
 _atom_site_fract_y
 _atom_site_fract_z
 _atom_site_occupancy
  Sc  Sc0  1  0.10760745  0.09092912  0.34780510  1
  Sc  Sc1  1  0.22309354  0.20641205  0.08736194  1
  Al  Al2  1  0.77732836  0.09283257  0.82822972  1
  Al  Al3  1  0.87913700  0.21043167  0.58180539  1
  Al  Al4  1  0.45362544  0.09188922  0.32993866  1
  Al  Al5  1  0.55930574  0.20509233  0.07624318  1
  Al  Al6  1  0.11070549  0.09403465  0.82131334  1
  Al  Al7  1  0.22588523  0.20921477  0.57867428  1
  Al  Al8  1  0.77300607  0.09646874  0.32601974  1
  Al  Al9  1  0.88629505  0.20466794  0.07386681  1
  Al  Al10  1  0.44648687  0.09330770  0.82456123  1
  Al  Al11  1  0.55667585  0.20573811  0.57781477  1
  Al  Al12  1  0.10856196  0.43695596  0.32994187  1
  Al  Al13  1  0.22176275  0.54264223  0.07624222  1
  Al  Al14  1  0.77640359  0.42966167  0.82865316  1
  Al  Al15  1  0.88717147  0.53982676  0.57807117  1
  Al  Al16  1  0.44425165  0.42758404  0.32850980  1
  Al  Al17  1  0.55511964  0.53846087  0.07794542  1
  Al  Al18  1  0.10997781  0.42981762  0.82456034  1
  Al  Al19  1  0.22240586  0.54001062  0.57781493  1
  Al  Al20  1  0.77374628  0.43066920  0.32624366  1
  Al  Al21  1  0.88588462  0.54350669  0.07660927  1
  Al  Al22  1  0.44467110  0.42800262  0.82689097  1
  Al  Al23  1  0.55582071  0.53915806  0.57628805  1
  Al  Al24  1  0.11313763  0.75634315  0.32602106  1
  Al  Al25  1  0.22134197  0.86962489  0.07386571  1
  Al  Al26  1  0.77823059  0.76157012  0.82659960  1
  Al  Al27  1  0.88889833  0.87223121  0.57655873  1
  Al  Al28  1  0.44733440  0.75708546  0.32624117  1
  Al  Al29  1  0.56016570  0.86922181  0.07660895  1
  Al  Al30  1  0.10950012  0.76066421  0.82822958  1
  Al  Al31  1  0.22710089  0.86246936  0.58180355  1
  Al  Al32  1  0.77746785  0.76080899  0.32774797  1
  Al  Al33  1  0.88878057  0.87211545  0.07895130  1
  Al  Al34  1  0.44632746  0.75974056  0.82865404  1
  Al  Al35  1  0.55649086  0.87050575  0.57806919  1
  N  N36  1  0.23284679  0.21618651  0.37713106  1
  N  N37  1  0.10098254  0.08432368  0.12877007  1
  N  N38  1  0.88852516  0.20569734  0.87591871  1
  N  N39  1  0.77694419  0.09226051  0.63323737  1
  N  N40  1  0.55620365  0.20660416  0.38267663  1
  N  N41  1  0.46723488  0.08313764  0.13505294  1
  N  N42  1  0.22215774  0.20549569  0.86645559  1
  N  N43  1  0.11054272  0.09387852  0.61761639  1
  N  N44  1  0.86290389  0.21869146  0.38813388  1
  N  N45  1  0.77787945  0.09493092  0.12919597  1
  N  N46  1  0.55504467  0.20617014  0.87969968  1
  N  N47  1  0.44745410  0.09282399  0.62879233  1
  N  N48  1  0.22326812  0.53953485  0.38267550  1
  N  N49  1  0.09979749  0.45057408  0.13505401  1
  N  N50  1  0.88862099  0.53981033  0.87990473  1
  N  N51  1  0.77567030  0.43078610  0.63350047  1
  N  N52  1  0.55558730  0.53891375  0.37949203  1
  N  N53  1  0.44389495  0.42722865  0.13087461  1
  N  N54  1  0.22283461  0.53837754  0.87970067  1
  N  N55  1  0.10948859  0.43078835  0.62879236  1
  N  N56  1  0.88685713  0.53912827  0.38207685  1
  N  N57  1  0.77864513  0.42741018  0.12853216  1
  N  N58  1  0.55512828  0.53845817  0.88216551  1
  N  N59  1  0.44486253  0.42819545  0.63039224  1
  N  N60  1  0.23535157  0.84624199  0.38813399  1
  N  N61  1  0.11159572  0.76120942  0.12919602  1
  N  N62  1  0.88850067  0.87183269  0.88243346  1
  N  N63  1  0.77820328  0.76153353  0.63022590  1
  N  N64  1  0.55579785  0.87018860  0.38207838  1
  N  N65  1  0.44407873  0.76197447  0.12853208  1
  N  N66  1  0.22236123  0.87185928  0.87591773  1
  N  N67  1  0.10892585  0.76027663  0.63323802  1
  N  N68  1  0.88948827  0.87282061  0.37894194  1
  N  N69  1  0.77778499  0.76110927  0.13156467  1
  N  N70  1  0.55647967  0.87195226  0.87990336  1
  N  N71  1  0.44745391  0.75900171  0.63350096  1
