# generated using pymatgen
data_GdAl17N18
_symmetry_space_group_name_H-M   'P 1'
_cell_length_a   9.51113965
_cell_length_b   9.49323429
_cell_length_c   10.14333765
_cell_angle_alpha   89.99997652
_cell_angle_beta   89.91025940
_cell_angle_gamma   60.06232376
_symmetry_Int_Tables_number   1
_chemical_formula_structural   GdAl17N18
_chemical_formula_sum   'Gd2 Al34 N36'
_cell_volume   793.65172320
_cell_formula_units_Z   2
loop_
 _symmetry_equiv_pos_site_id
 _symmetry_equiv_pos_as_xyz
  1  'x, y, z'
loop_
 _atom_site_type_symbol
 _atom_site_label
 _atom_site_symmetry_multiplicity
 _atom_site_fract_x
 _atom_site_fract_y
 _atom_site_fract_z
 _atom_site_occupancy
  Al  Al0  1  0.11062797  0.09538072  0.30647078  1
  Al  Al1  1  0.21476077  0.20928644  0.05745493  1
  Al  Al2  1  0.78027669  0.09306639  0.79765718  1
  Al  Al3  1  0.89035946  0.20687252  0.55645817  1
  Al  Al4  1  0.43856299  0.09738541  0.31876415  1
  Al  Al5  1  0.11059508  0.09445787  0.80763197  1
  Al  Al6  1  0.21691660  0.20820833  0.55590113  1
  Al  Al7  1  0.78625540  0.09049594  0.31295231  1
  Al  Al8  1  0.89480380  0.20342965  0.05800019  1
  Al  Al9  1  0.44083891  0.09624714  0.78881139  1
  Al  Al10  1  0.55670988  0.20699170  0.55573703  1
  Al  Al11  1  0.11062786  0.42732469  0.30647077  1
  Al  Al12  1  0.21786312  0.54362908  0.05844702  1
  Al  Al13  1  0.77638831  0.42847230  0.80825202  1
  Al  Al14  1  0.89035943  0.53610111  0.55645818  1
  Al  Al15  1  0.44086372  0.43350990  0.31261224  1
  Al  Al16  1  0.54928443  0.54202474  0.05895720  1
  Al  Al17  1  0.11059505  0.42828014  0.80763199  1
  Al  Al18  1  0.21915574  0.54062225  0.55637543  1
  Al  Al19  1  0.77770234  0.42781538  0.30728046  1
  Al  Al20  1  0.89480359  0.53509975  0.05800013  1
  Al  Al21  1  0.44130461  0.43149880  0.79750924  1
  Al  Al22  1  0.55685563  0.53823888  0.55515430  1
  Al  Al23  1  0.11144416  0.76094462  0.30598930  1
  Al  Al24  1  0.21786335  0.87184123  0.05844695  1
  Al  Al25  1  0.78027672  0.75998985  0.79765714  1
  Al  Al26  1  0.89250968  0.87041172  0.55584826  1
  Al  Al27  1  0.44086391  0.75895997  0.31261209  1
  Al  Al28  1  0.11098009  0.76117652  0.80776658  1
  Al  Al29  1  0.21915586  0.87355519  0.55637541  1
  Al  Al30  1  0.78625543  0.75658180  0.31295230  1
  Al  Al31  1  0.90128840  0.86602239  0.05912835  1
  Al  Al32  1  0.44130472  0.76052975  0.79750933  1
  Al  Al33  1  0.55670988  0.86963180  0.55573698  1
  Gd  Gd34  1  0.55831173  0.20833961  0.05681759  1
  Gd  Gd35  1  0.55831177  0.86668336  0.05681759  1
  N  N36  1  0.21553243  0.20890054  0.36983279  1
  N  N37  1  0.11167058  0.09464656  0.11543628  1
  N  N38  1  0.88722189  0.20546627  0.86660475  1
  N  N39  1  0.78144131  0.09301690  0.60985120  1
  N  N40  1  0.55845178  0.20640134  0.36301547  1
  N  N41  1  0.41534576  0.10899436  0.13615770  1
  N  N42  1  0.22383522  0.20474901  0.86492160  1
  N  N43  1  0.11033535  0.09463287  0.61831240  1
  N  N44  1  0.89065340  0.20779812  0.36806971  1
  N  N45  1  0.81116089  0.07722046  0.12754616  1
  N  N46  1  0.55429072  0.20568824  0.83443736  1
  N  N47  1  0.44094279  0.09619518  0.60147052  1
  N  N48  1  0.21861245  0.54019341  0.36793234  1
  N  N49  1  0.11167035  0.42701626  0.11543627  1
  N  N50  1  0.88722186  0.54064492  0.86660470  1
  N  N51  1  0.77704581  0.42814351  0.61825199  1
  N  N52  1  0.55829675  0.53751850  0.36854877  1
  N  N53  1  0.42760754  0.45483168  0.12720959  1
  N  N54  1  0.22268363  0.53841467  0.86644883  1
  N  N55  1  0.11033532  0.42836480  0.61831242  1
  N  N56  1  0.89065332  0.53488178  0.36806974  1
  N  N57  1  0.77518572  0.42907352  0.11496798  1
  N  N58  1  0.55292605  0.54020359  0.86599585  1
  N  N59  1  0.44167128  0.43173921  0.60959967  1
  N  N60  1  0.21861266  0.87452752  0.36793226  1
  N  N61  1  0.11391933  0.75970706  0.11646385  1
  N  N62  1  0.88689995  0.87321657  0.86577745  1
  N  N63  1  0.78144132  0.75887467  0.60985117  1
  N  N64  1  0.55845177  0.86848074  0.36301536  1
  N  N65  1  0.42760801  0.75089464  0.12720931  1
  N  N66  1  0.22268368  0.87223494  0.86644880  1
  N  N67  1  0.11130297  0.76101505  0.61858268  1
  N  N68  1  0.89327611  0.87002860  0.37004075  1
  N  N69  1  0.81116095  0.74495149  0.12754615  1
  N  N70  1  0.55429078  0.87335433  0.83443737  1
  N  N71  1  0.44167136  0.75992264  0.60959971  1
