# generated using pymatgen
data_GdAl17N18
_symmetry_space_group_name_H-M   'P 1'
_cell_length_a   9.51113351
_cell_length_b   9.49323044
_cell_length_c   10.14333897
_cell_angle_alpha   89.99993805
_cell_angle_beta   89.91022482
_cell_angle_gamma   60.06242251
_symmetry_Int_Tables_number   1
_chemical_formula_structural   GdAl17N18
_chemical_formula_sum   'Gd2 Al34 N36'
_cell_volume   793.65178028
_cell_formula_units_Z   2
loop_
 _symmetry_equiv_pos_site_id
 _symmetry_equiv_pos_as_xyz
  1  'x, y, z'
loop_
 _atom_site_type_symbol
 _atom_site_label
 _atom_site_symmetry_multiplicity
 _atom_site_fract_x
 _atom_site_fract_y
 _atom_site_fract_z
 _atom_site_occupancy
  Al  Al0  1  0.11060894  0.09539032  0.31363283  1
  Al  Al1  1  0.21474190  0.20929615  0.06461707  1
  Al  Al2  1  0.78025770  0.09307549  0.80481873  1
  Al  Al3  1  0.89034060  0.20688186  0.56362045  1
  Al  Al4  1  0.43854386  0.09739539  0.32592572  1
  Al  Al5  1  0.11057613  0.09446710  0.81479497  1
  Al  Al6  1  0.21689746  0.20821783  0.56306320  1
  Al  Al7  1  0.78623628  0.09050538  0.32011411  1
  Al  Al8  1  0.89478488  0.20343886  0.06516300  1
  Al  Al9  1  0.44082003  0.09625647  0.79597249  1
  Al  Al10  1  0.55669093  0.20700124  0.56289813  1
  Al  Al11  1  0.11060864  0.42733425  0.31363280  1
  Al  Al12  1  0.21784396  0.54363873  0.06560989  1
  Al  Al13  1  0.77636916  0.42848152  0.81541531  1
  Al  Al14  1  0.89034052  0.53611020  0.56362049  1
  Al  Al15  1  0.44084446  0.43351971  0.31977403  1
  Al  Al16  1  0.54926527  0.54203481  0.06612016  1
  Al  Al17  1  0.11057604  0.42828951  0.81479500  1
  Al  Al18  1  0.21913647  0.54063185  0.56353754  1
  Al  Al19  1  0.77768339  0.42782468  0.31444277  1
  Al  Al20  1  0.89478430  0.53510920  0.06516286  1
  Al  Al21  1  0.44128561  0.43150825  0.80467062  1
  Al  Al22  1  0.55683681  0.53824832  0.56231570  1
  Al  Al23  1  0.11142512  0.76095419  0.31315117  1
  Al  Al24  1  0.21784458  0.87185088  0.06560972  1
  Al  Al25  1  0.78025774  0.75999907  0.80481864  1
  Al  Al26  1  0.89249098  0.87042089  0.56301007  1
  Al  Al27  1  0.44084497  0.75896984  0.31977363  1
  Al  Al28  1  0.11096110  0.76118585  0.81492985  1
  Al  Al29  1  0.21913678  0.87356462  0.56353747  1
  Al  Al30  1  0.78623637  0.75659116  0.32011406  1
  Al  Al31  1  0.90126922  0.86603185  0.06629119  1
  Al  Al32  1  0.44128586  0.76053901  0.80467086  1
  Al  Al33  1  0.55669093  0.86964127  0.56289799  1
  Gd  Gd34  1  0.55829277  0.20835036  0.06397905  1
  Gd  Gd35  1  0.55829290  0.86669386  0.06397905  1
  N  N36  1  0.21551338  0.20891023  0.37699486  1
  N  N37  1  0.11165166  0.09465611  0.12259870  1
  N  N38  1  0.88720284  0.20547536  0.87376755  1
  N  N39  1  0.78142227  0.09302602  0.61701284  1
  N  N40  1  0.55843277  0.20641123  0.37017712  1
  N  N41  1  0.41532697  0.10900472  0.14331940  1
  N  N42  1  0.22381653  0.20475829  0.87208402  1
  N  N43  1  0.11031639  0.09464209  0.62547507  1
  N  N44  1  0.89063445  0.20780753  0.37523191  1
  N  N45  1  0.81114159  0.07722972  0.13470844  1
  N  N46  1  0.55427172  0.20569769  0.84159900  1
  N  N47  1  0.44092384  0.09620450  0.60863178  1
  N  N48  1  0.21859321  0.54020313  0.37509441  1
  N  N49  1  0.11165103  0.42702578  0.12259868  1
  N  N50  1  0.88720276  0.54065442  0.87376740  1
  N  N51  1  0.77702664  0.42815268  0.62541475  1
  N  N52  1  0.55827775  0.53752835  0.37571043  1
  N  N53  1  0.42758806  0.45484189  0.13437207  1
  N  N54  1  0.22266493  0.53842388  0.87361162  1
  N  N55  1  0.11031629  0.42837405  0.62547514  1
  N  N56  1  0.89063425  0.53489124  0.37523200  1
  N  N57  1  0.77516660  0.42908260  0.12213057  1
  N  N58  1  0.55290687  0.54021307  0.87315855  1
  N  N59  1  0.44165221  0.43174862  0.61676113  1
  N  N60  1  0.21859374  0.87453713  0.37509421  1
  N  N61  1  0.11390022  0.75971671  0.12362613  1
  N  N62  1  0.88688072  0.87322595  0.87294010  1
  N  N63  1  0.78142228  0.75888388  0.61701275  1
  N  N64  1  0.55843275  0.86849069  0.37017685  1
  N  N65  1  0.42758931  0.75090483  0.13437132  1
  N  N66  1  0.22266505  0.87224426  0.87361155  1
  N  N67  1  0.11128392  0.76102437  0.62574549  1
  N  N68  1  0.89325717  0.87003805  0.37720263  1
  N  N69  1  0.81114175  0.74496071  0.13470840  1
  N  N70  1  0.55427185  0.87336380  0.84159901  1
  N  N71  1  0.44165242  0.75993193  0.61676124  1
