# generated using pymatgen
data_GdAl17N18
_symmetry_space_group_name_H-M   'P 1'
_cell_length_a   9.93192529
_cell_length_b   9.88380126
_cell_length_c   9.00597284
_cell_angle_alpha   89.99994915
_cell_angle_beta   90.02202938
_cell_angle_gamma   60.16753276
_symmetry_Int_Tables_number   1
_chemical_formula_structural   GdAl17N18
_chemical_formula_sum   'Gd2 Al34 N36'
_cell_volume   766.91875967
_cell_formula_units_Z   2
loop_
 _symmetry_equiv_pos_site_id
 _symmetry_equiv_pos_as_xyz
  1  'x, y, z'
loop_
 _atom_site_type_symbol
 _atom_site_label
 _atom_site_symmetry_multiplicity
 _atom_site_fract_x
 _atom_site_fract_y
 _atom_site_fract_z
 _atom_site_occupancy
  Al  Al0  1  0.10981458  0.09402603  0.37131568  1
  Al  Al1  1  0.21193805  0.21070218  0.12561531  1
  Al  Al2  1  0.78871083  0.08867105  0.85986175  1
  Al  Al3  1  0.89047456  0.20847097  0.62197623  1
  Al  Al4  1  0.43937355  0.09697439  0.38981911  1
  Al  Al5  1  0.10965371  0.09667051  0.87272082  1
  Al  Al6  1  0.21355205  0.20989395  0.61908588  1
  Al  Al7  1  0.78390886  0.09215904  0.38141358  1
  Al  Al8  1  0.89407168  0.20339972  0.12140161  1
  Al  Al9  1  0.43545919  0.09893237  0.85013517  1
  Al  Al10  1  0.55778451  0.20691817  0.61487513  1
  Al  Al11  1  0.10981527  0.42948821  0.37131814  1
  Al  Al12  1  0.21784314  0.54299845  0.12092257  1
  Al  Al13  1  0.77679285  0.42826884  0.87346997  1
  Al  Al14  1  0.89047520  0.53439746  0.62197594  1
  Al  Al15  1  0.43952878  0.43340135  0.38201892  1
  Al  Al16  1  0.54876983  0.54228420  0.12193708  1
  Al  Al17  1  0.10965482  0.42700501  0.87271790  1
  Al  Al18  1  0.21739488  0.54106578  0.62234450  1
  Al  Al19  1  0.77648429  0.42842395  0.36866559  1
  Al  Al20  1  0.89407274  0.53586856  0.12140196  1
  Al  Al21  1  0.43978333  0.43501409  0.85968301  1
  Al  Al22  1  0.55821909  0.53755798  0.62133815  1
  Al  Al23  1  0.11414290  0.75959260  0.37184627  1
  Al  Al24  1  0.21784448  0.87249942  0.12092109  1
  Al  Al25  1  0.78871024  0.75594653  0.85986339  1
  Al  Al26  1  0.89521374  0.86906348  0.61848236  1
  Al  Al27  1  0.43952750  0.76039434  0.38202311  1
  Al  Al28  1  0.11086984  0.76122922  0.87313067  1
  Al  Al29  1  0.21739197  0.87488183  0.62234563  1
  Al  Al30  1  0.78390860  0.75726176  0.38141191  1
  Al  Al31  1  0.90240247  0.86546904  0.12469386  1
  Al  Al32  1  0.43978275  0.75852620  0.85967839  1
  Al  Al33  1  0.55778494  0.86863236  0.61487574  1
  Gd  Gd34  1  0.55886153  0.20734296  0.10971107  1
  Gd  Gd35  1  0.55886031  0.86713846  0.10971078  1
  N  N36  1  0.22197893  0.20568348  0.34347715  1
  N  N37  1  0.11036937  0.09569933  0.09014780  1
  N  N38  1  0.89068674  0.20915854  0.83599816  1
  N  N39  1  0.78330308  0.09316562  0.59470198  1
  N  N40  1  0.55608562  0.20535820  0.36929079  1
  N  N41  1  0.41172405  0.11079614  0.06865504  1
  N  N42  1  0.21275071  0.21029770  0.83001802  1
  N  N43  1  0.10862996  0.09464845  0.58453041  1
  N  N44  1  0.88838159  0.20605344  0.33814611  1
  N  N45  1  0.81297278  0.07493745  0.07855240  1
  N  N46  1  0.55961926  0.20610348  0.83456808  1
  N  N47  1  0.43902424  0.09714652  0.60331375  1
  N  N48  1  0.22240719  0.53814918  0.33875117  1
  N  N49  1  0.11037026  0.42725560  0.09014589  1
  N  N50  1  0.89068779  0.53350113  0.83599681  1
  N  N51  1  0.77705519  0.42813502  0.58353025  1
  N  N52  1  0.55295752  0.54019318  0.34137403  1
  N  N53  1  0.42699531  0.45543597  0.07827640  1
  N  N54  1  0.21698666  0.54049276  0.83585607  1
  N  N55  1  0.10863167  0.43004444  0.58453196  1
  N  N56  1  0.88838369  0.53891117  0.33814693  1
  N  N57  1  0.77396585  0.42967846  0.09152904  1
  N  N58  1  0.55938239  0.53697912  0.83345935  1
  N  N59  1  0.43993663  0.43304180  0.59595710  1
  N  N60  1  0.22240820  0.87278859  0.33875009  1
  N  N61  1  0.11382053  0.75975202  0.08952676  1
  N  N62  1  0.89553155  0.86890657  0.82927159  1
  N  N63  1  0.78330270  0.75685568  0.59470000  1
  N  N64  1  0.55608425  0.87189508  0.36929101  1
  N  N65  1  0.42699490  0.75088590  0.07827212  1
  N  N66  1  0.21698521  0.87586808  0.83585730  1
  N  N67  1  0.11380839  0.75975746  0.58466755  1
  N  N68  1  0.89074659  0.87129993  0.34433458  1
  N  N69  1  0.81297235  0.74541097  0.07855430  1
  N  N70  1  0.55961978  0.86761637  0.83456814  1
  N  N71  1  0.43993479  0.76034024  0.59596140  1
