# generated using pymatgen
data_GdAl17N18
_symmetry_space_group_name_H-M   'P 1'
_cell_length_a   9.51105501
_cell_length_b   9.49323088
_cell_length_c   10.14346596
_cell_angle_alpha   89.99999714
_cell_angle_beta   89.91128613
_cell_angle_gamma   60.06198073
_symmetry_Int_Tables_number   1
_chemical_formula_structural   GdAl17N18
_chemical_formula_sum   'Gd2 Al34 N36'
_cell_volume   793.65170841
_cell_formula_units_Z   2
loop_
 _symmetry_equiv_pos_site_id
 _symmetry_equiv_pos_as_xyz
  1  'x, y, z'
loop_
 _atom_site_type_symbol
 _atom_site_label
 _atom_site_symmetry_multiplicity
 _atom_site_fract_x
 _atom_site_fract_y
 _atom_site_fract_z
 _atom_site_occupancy
  Al  Al0  1  0.11064701  0.09537029  0.29546108  1
  Al  Al1  1  0.21477553  0.20927894  0.04645764  1
  Al  Al2  1  0.78032894  0.09304074  0.78664312  1
  Al  Al3  1  0.89040664  0.20684886  0.54544448  1
  Al  Al4  1  0.43858923  0.09737202  0.30777148  1
  Al  Al5  1  0.11064363  0.09443498  0.79662693  1
  Al  Al6  1  0.21695832  0.20818750  0.54489077  1
  Al  Al7  1  0.78625949  0.09049619  0.30193856  1
  Al  Al8  1  0.89480975  0.20342579  0.04698663  1
  Al  Al9  1  0.44088408  0.09622456  0.77779235  1
  Al  Al10  1  0.55675603  0.20697045  0.54474258  1
  Al  Al11  1  0.11064708  0.42731590  0.29546104  1
  Al  Al12  1  0.21787389  0.54362677  0.04744413  1
  Al  Al13  1  0.77643439  0.42844940  0.79724309  1
  Al  Al14  1  0.89040672  0.53607761  0.54544450  1
  Al  Al15  1  0.44088512  0.43349664  0.30161339  1
  Al  Al16  1  0.54929679  0.54201837  0.04796123  1
  Al  Al17  1  0.11064373  0.42825468  0.79662696  1
  Al  Al18  1  0.21919866  0.54060189  0.54536783  1
  Al  Al19  1  0.77772604  0.42780353  0.29626526  1
  Al  Al20  1  0.89480985  0.53509763  0.04698660  1
  Al  Al21  1  0.44135221  0.43148225  0.78649364  1
  Al  Al22  1  0.55690629  0.53821353  0.54413958  1
  Al  Al23  1  0.11145693  0.76093824  0.29498106  1
  Al  Al24  1  0.21787394  0.87183290  0.04744409  1
  Al  Al25  1  0.78032916  0.75996344  0.78664310  1
  Al  Al26  1  0.89255422  0.87038956  0.54483138  1
  Al  Al27  1  0.44088522  0.75895155  0.30161333  1
  Al  Al28  1  0.11102622  0.76115365  0.79676106  1
  Al  Al29  1  0.21919880  0.87353282  0.54536784  1
  Al  Al30  1  0.78625972  0.75657731  0.30193859  1
  Al  Al31  1  0.90128176  0.86602577  0.04811867  1
  Al  Al32  1  0.44135237  0.76049889  0.78649370  1
  Al  Al33  1  0.55675620  0.86960676  0.54474252  1
  Gd  Gd34  1  0.55829965  0.20834610  0.04578760  1
  Gd  Gd35  1  0.55829989  0.86668779  0.04578769  1
  N  N36  1  0.21555161  0.20889081  0.35882521  1
  N  N37  1  0.11168025  0.09463935  0.10443145  1
  N  N38  1  0.88726775  0.20544411  0.85559513  1
  N  N39  1  0.78149613  0.09298973  0.59883928  1
  N  N40  1  0.55846953  0.20639383  0.35202607  1
  N  N41  1  0.41536355  0.10898500  0.12516852  1
  N  N42  1  0.22388855  0.20472237  0.85392494  1
  N  N43  1  0.11038542  0.09460884  0.60730619  1
  N  N44  1  0.89067397  0.20778547  0.35705653  1
  N  N45  1  0.81114295  0.07723172  0.11653045  1
  N  N46  1  0.55433858  0.20566621  0.82340786  1
  N  N47  1  0.44098516  0.09617402  0.59045902  1
  N  N48  1  0.21863029  0.54018605  0.35692652  1
  N  N49  1  0.11168036  0.42701378  0.10443141  1
  N  N50  1  0.88726784  0.54062128  0.85559510  1
  N  N51  1  0.77709598  0.42811859  0.60724157  1
  N  N52  1  0.55832372  0.53750480  0.35753859  1
  N  N53  1  0.42761689  0.45482740  0.11621634  1
  N  N54  1  0.22273339  0.53838958  0.85544762  1
  N  N55  1  0.11038549  0.42833903  0.60730622  1
  N  N56  1  0.89067407  0.53487356  0.35705654  1
  N  N57  1  0.77520015  0.42906653  0.10396030  1
  N  N58  1  0.55296957  0.54018189  0.85499747  1
  N  N59  1  0.44171816  0.43172231  0.59858876  1
  N  N60  1  0.21863042  0.87451694  0.35692652  1
  N  N61  1  0.11391891  0.75970734  0.10545939  1
  N  N62  1  0.88694500  0.87319417  0.85476900  1
  N  N63  1  0.78149629  0.75884727  0.59883925  1
  N  N64  1  0.55846969  0.86846988  0.35202600  1
  N  N65  1  0.42761699  0.75088930  0.11621624  1
  N  N66  1  0.22273348  0.87221048  0.85544760  1
  N  N67  1  0.11134901  0.76099224  0.60757551  1
  N  N68  1  0.89328701  0.87002312  0.35902268  1
  N  N69  1  0.81114321  0.74495837  0.11653049  1
  N  N70  1  0.55433883  0.87332845  0.82340795  1
  N  N71  1  0.44171829  0.75989286  0.59858879  1
