# generated using pymatgen
data_GdAl17N18
_symmetry_space_group_name_H-M   'P 1'
_cell_length_a   9.97475701
_cell_length_b   9.92556692
_cell_length_c   8.88072824
_cell_angle_alpha   90.00004135
_cell_angle_beta   89.99525364
_cell_angle_gamma   60.16738586
_symmetry_Int_Tables_number   1
_chemical_formula_structural   GdAl17N18
_chemical_formula_sum   'Gd2 Al34 N36'
_cell_volume   762.72311663
_cell_formula_units_Z   2
loop_
 _symmetry_equiv_pos_site_id
 _symmetry_equiv_pos_as_xyz
  1  'x, y, z'
loop_
 _atom_site_type_symbol
 _atom_site_label
 _atom_site_symmetry_multiplicity
 _atom_site_fract_x
 _atom_site_fract_y
 _atom_site_fract_z
 _atom_site_occupancy
  Al  Al0  1  0.10956300  0.09658294  0.33936530  1
  Al  Al1  1  0.21156926  0.21088474  0.08596777  1
  Al  Al2  1  0.78444266  0.09184723  0.83060950  1
  Al  Al3  1  0.89046103  0.20825707  0.59003666  1
  Al  Al4  1  0.43525762  0.09903365  0.36094535  1
  Al  Al5  1  0.10991802  0.09407044  0.84008327  1
  Al  Al6  1  0.21359525  0.20987115  0.59236850  1
  Al  Al7  1  0.78835313  0.08887331  0.35193750  1
  Al  Al8  1  0.89400824  0.20378069  0.09013835  1
  Al  Al9  1  0.43918422  0.09707019  0.82111597  1
  Al  Al10  1  0.55783968  0.20693228  0.59635402  1
  Al  Al11  1  0.10956426  0.42718502  0.33936748  1
  Al  Al12  1  0.21760110  0.54315878  0.09071997  1
  Al  Al13  1  0.77650878  0.42841319  0.84226626  1
  Al  Al14  1  0.89046170  0.53462355  0.59003684  1
  Al  Al15  1  0.43978988  0.43488851  0.35204009  1
  Al  Al16  1  0.54943112  0.54195173  0.08985367  1
  Al  Al17  1  0.10991898  0.42934247  0.84008149  1
  Al  Al18  1  0.21768196  0.54077530  0.58955018  1
  Al  Al19  1  0.77676395  0.42828507  0.33909573  1
  Al  Al20  1  0.89400969  0.53555093  0.09013831  1
  Al  Al21  1  0.43943133  0.43365023  0.82993220  1
  Al  Al22  1  0.55790327  0.53771486  0.59054757  1
  Al  Al23  1  0.11102523  0.76115242  0.33964975  1
  Al  Al24  1  0.21760063  0.87257871  0.09072063  1
  Al  Al25  1  0.78444208  0.75704323  0.83061100  1
  Al  Al26  1  0.89498049  0.86917949  0.59325406  1
  Al  Al27  1  0.43978792  0.75864734  0.35204311  1
  Al  Al28  1  0.11417907  0.75957540  0.83892641  1
  Al  Al29  1  0.21767885  0.87488253  0.58954945  1
  Al  Al30  1  0.78835209  0.75610618  0.35193641  1
  Al  Al31  1  0.90268527  0.86532737  0.08687086  1
  Al  Al32  1  0.43942950  0.76024503  0.82992826  1
  Al  Al33  1  0.55783956  0.86856071  0.59635358  1
  Gd  Gd34  1  0.55877951  0.20726438  0.10085270  1
  Gd  Gd35  1  0.55877790  0.86729090  0.10085287  1
  N  N36  1  0.21274161  0.21029964  0.37686335  1
  N  N37  1  0.11027258  0.09567057  0.11641081  1
  N  N38  1  0.88861678  0.20639084  0.86792312  1
  N  N39  1  0.78337266  0.09311084  0.61253884  1
  N  N40  1  0.55953909  0.20616679  0.37433538  1
  N  N41  1  0.41199899  0.11065982  0.13744710  1
  N  N42  1  0.22185131  0.20574488  0.86306046  1
  N  N43  1  0.10866289  0.09465891  0.62195025  1
  N  N44  1  0.89056987  0.20886832  0.37058013  1
  N  N45  1  0.81235763  0.07531461  0.12626335  1
  N  N46  1  0.55620531  0.20528092  0.83805715  1
  N  N47  1  0.43881963  0.09725124  0.60434287  1
  N  N48  1  0.21734934  0.54019117  0.37081354  1
  N  N49  1  0.11027395  0.42738494  0.11641223  1
  N  N50  1  0.88861867  0.53833533  0.86792263  1
  N  N51  1  0.77700253  0.42816443  0.62221362  1
  N  N52  1  0.55889847  0.53721852  0.37305529  1
  N  N53  1  0.42726502  0.45501875  0.12679037  1
  N  N54  1  0.22203020  0.53843542  0.86736421  1
  N  N55  1  0.10866438  0.43000575  0.62194887  1
  N  N56  1  0.89057087  0.53390516  0.37058077  1
  N  N57  1  0.77409668  0.42961695  0.11543808  1
  N  N58  1  0.55346670  0.53993596  0.86466443  1
  N  N59  1  0.43993441  0.43306312  0.61128135  1
  N  N60  1  0.21734686  0.87580220  0.37081329  1
  N  N61  1  0.11389791  0.75971493  0.11760526  1
  N  N62  1  0.89145214  0.87094543  0.86160423  1
  N  N63  1  0.78337193  0.75684699  0.61254032  1
  N  N64  1  0.55953909  0.86762823  0.37433549  1
  N  N65  1  0.42726241  0.75103738  0.12679499  1
  N  N66  1  0.22203002  0.87287510  0.86736485  1
  N  N67  1  0.11388818  0.75971945  0.62108559  1
  N  N68  1  0.89509607  0.86912271  0.37731676  1
  N  N69  1  0.81235650  0.74565708  0.12626160  1
  N  N70  1  0.55620369  0.87184826  0.83805697  1
  N  N71  1  0.43993214  0.76032590  0.61127824  1
