# generated using pymatgen
data_GdAl17N18
_symmetry_space_group_name_H-M   'P 1'
_cell_length_a   9.70276147
_cell_length_b   9.66499529
_cell_length_c   9.65281087
_cell_angle_alpha   90.00007528
_cell_angle_beta   90.04649750
_cell_angle_gamma   60.15467312
_symmetry_Int_Tables_number   1
_chemical_formula_structural   GdAl17N18
_chemical_formula_sum   'Gd2 Al34 N36'
_cell_volume   785.15611852
_cell_formula_units_Z   2
loop_
 _symmetry_equiv_pos_site_id
 _symmetry_equiv_pos_as_xyz
  1  'x, y, z'
loop_
 _atom_site_type_symbol
 _atom_site_label
 _atom_site_symmetry_multiplicity
 _atom_site_fract_x
 _atom_site_fract_y
 _atom_site_fract_z
 _atom_site_occupancy
  Al  Al0  1  0.11020096  0.09414815  0.37920520  1
  Al  Al1  1  0.21344245  0.20996116  0.13185471  1
  Al  Al2  1  0.78882287  0.08897983  0.87194846  1
  Al  Al3  1  0.89043974  0.20781054  0.63057807  1
  Al  Al4  1  0.44098764  0.09616239  0.39774000  1
  Al  Al5  1  0.10987702  0.09636761  0.88173509  1
  Al  Al6  1  0.21431229  0.20952103  0.62903314  1
  Al  Al7  1  0.78133629  0.09290550  0.38879351  1
  Al  Al8  1  0.89425601  0.20319309  0.12970413  1
  Al  Al9  1  0.43590187  0.09871337  0.86163382  1
  Al  Al10  1  0.55775143  0.20708576  0.62839343  1
  Al  Al11  1  0.11019884  0.42896775  0.37920827  1
  Al  Al12  1  0.21787925  0.54336416  0.12930712  1
  Al  Al13  1  0.77717632  0.42806252  0.88149564  1
  Al  Al14  1  0.89044013  0.53508990  0.63057525  1
  Al  Al15  1  0.44090458  0.43151130  0.38936289  1
  Al  Al16  1  0.54818679  0.54258912  0.12979619  1
  Al  Al17  1  0.10987384  0.42707864  0.88173049  1
  Al  Al18  1  0.21808075  0.54090100  0.63087666  1
  Al  Al19  1  0.77635886  0.42847400  0.37771245  1
  Al  Al20  1  0.89424947  0.53587643  0.12970696  1
  Al  Al21  1  0.43982487  0.43514533  0.87198025  1
  Al  Al22  1  0.55772899  0.53781076  0.63078078  1
  Al  Al23  1  0.11277344  0.76027301  0.37950610  1
  Al  Al24  1  0.21789641  0.87211164  0.12930461  1
  Al  Al25  1  0.78882847  0.75549069  0.87194991  1
  Al  Al26  1  0.89413462  0.86960399  0.62905888  1
  Al  Al27  1  0.44090886  0.76089977  0.38936341  1
  Al  Al28  1  0.11112733  0.76109764  0.88225646  1
  Al  Al29  1  0.21808497  0.87437233  0.63088116  1
  Al  Al30  1  0.78133883  0.75906369  0.38879367  1
  Al  Al31  1  0.90219275  0.86556853  0.13058996  1
  Al  Al32  1  0.43983926  0.75834724  0.87197881  1
  Al  Al33  1  0.55775495  0.86851461  0.62839653  1
  Gd  Gd34  1  0.55812813  0.20744467  0.12035305  1
  Gd  Gd35  1  0.55813919  0.86784478  0.12035200  1
  N  N36  1  0.22352016  0.20492795  0.33222187  1
  N  N37  1  0.11074964  0.09536687  0.08088389  1
  N  N38  1  0.89084350  0.20877218  0.82704444  1
  N  N39  1  0.78223973  0.09312564  0.58529913  1
  N  N40  1  0.55523921  0.20520393  0.35803509  1
  N  N41  1  0.41076277  0.11128077  0.05581872  1
  N  N42  1  0.21264503  0.21036907  0.82288139  1
  N  N43  1  0.10924077  0.09461098  0.57590030  1
  N  N44  1  0.88772749  0.20561073  0.32867622  1
  N  N45  1  0.81368715  0.07503754  0.06752323  1
  N  N46  1  0.55963324  0.20638386  0.83210238  1
  N  N47  1  0.44034854  0.09646974  0.59549776  1
  N  N48  1  0.22296193  0.53807185  0.32907678  1
  N  N49  1  0.11074365  0.42718209  0.08088189  1
  N  N50  1  0.89084392  0.53374257  0.82703794  1
  N  N51  1  0.77704045  0.42811824  0.57548048  1
  N  N52  1  0.55270545  0.54033437  0.33049026  1
  N  N53  1  0.42638958  0.45642001  0.06777642  1
  N  N54  1  0.21737517  0.54048529  0.82723915  1
  N  N55  1  0.10924197  0.42944051  0.57590051  1
  N  N56  1  0.88772856  0.54002260  0.32868072  1
  N  N57  1  0.77409241  0.42957891  0.08151561  1
  N  N58  1  0.55916819  0.53710673  0.82551730  1
  N  N59  1  0.44090258  0.43207755  0.58618574  1
  N  N60  1  0.22297007  0.87233909  0.32907307  1
  N  N61  1  0.11393647  0.75968554  0.08004394  1
  N  N62  1  0.89510089  0.86913010  0.82284191  1
  N  N63  1  0.78224247  0.75791252  0.58529790  1
  N  N64  1  0.55524212  0.87292938  0.35803456  1
  N  N65  1  0.42641940  0.75049448  0.06778663  1
  N  N66  1  0.21738760  0.87551602  0.82724719  1
  N  N67  1  0.11264058  0.76032971  0.57598358  1
  N  N68  1  0.88898112  0.87219032  0.33168568  1
  N  N69  1  0.81369843  0.74452162  0.06752341  1
  N  N70  1  0.55963758  0.86736444  0.83210593  1
  N  N71  1  0.44090648  0.76030837  0.58618989  1
