# generated using pymatgen
data_GdAl17N18
_symmetry_space_group_name_H-M   'P 1'
_cell_length_a   9.51114211
_cell_length_b   9.49323598
_cell_length_c   10.14333556
_cell_angle_alpha   90.00000679
_cell_angle_beta   90.08972425
_cell_angle_gamma   60.06227161
_symmetry_Int_Tables_number   1
_chemical_formula_structural   GdAl17N18
_chemical_formula_sum   'Gd2 Al34 N36'
_cell_volume   793.65149081
_cell_formula_units_Z   2
loop_
 _symmetry_equiv_pos_site_id
 _symmetry_equiv_pos_as_xyz
  1  'x, y, z'
loop_
 _atom_site_type_symbol
 _atom_site_label
 _atom_site_symmetry_multiplicity
 _atom_site_fract_x
 _atom_site_fract_y
 _atom_site_fract_z
 _atom_site_occupancy
  Al  Al0  1  0.11047088  0.09452003  0.41129952  1
  Al  Al1  1  0.21463690  0.20934824  0.16147684  1
  Al  Al2  1  0.78613157  0.09055797  0.90597948  1
  Al  Al3  1  0.89023549  0.20693464  0.66247350  1
  Al  Al4  1  0.44071472  0.09630928  0.43012059  1
  Al  Al5  1  0.11050413  0.09544266  0.91246101  1
  Al  Al6  1  0.21679258  0.20827036  0.66303062  1
  Al  Al7  1  0.78015237  0.09312871  0.42127471  1
  Al  Al8  1  0.89467973  0.20349179  0.16093139  1
  Al  Al9  1  0.43843914  0.09744715  0.90016773  1
  Al  Al10  1  0.55658583  0.20705375  0.66319504  1
  Al  Al11  1  0.11047087  0.42834234  0.41129951  1
  Al  Al12  1  0.21773919  0.54369096  0.16048458  1
  Al  Al13  1  0.77757859  0.42787734  0.91165121  1
  Al  Al14  1  0.89023548  0.53616314  0.66247350  1
  Al  Al15  1  0.44118041  0.43156098  0.42142262  1
  Al  Al16  1  0.54916043  0.54208651  0.15997430  1
  Al  Al17  1  0.11050409  0.42738655  0.91246101  1
  Al  Al18  1  0.21903164  0.54068437  0.66255631  1
  Al  Al19  1  0.77626409  0.42853456  0.41067939  1
  Al  Al20  1  0.89467968  0.53516180  0.16093141  1
  Al  Al21  1  0.44073988  0.43357171  0.90631966  1
  Al  Al22  1  0.55673169  0.53830083  0.66377762  1
  Al  Al23  1  0.11085574  0.76123876  0.41116482  1
  Al  Al24  1  0.21773923  0.87190320  0.16048460  1
  Al  Al25  1  0.78613158  0.75664376  0.90597948  1
  Al  Al26  1  0.89238561  0.87047384  0.66308352  1
  Al  Al27  1  0.44118045  0.76059189  0.42142259  1
  Al  Al28  1  0.11132022  0.76100656  0.91294253  1
  Al  Al29  1  0.21903167  0.87361726  0.66255631  1
  Al  Al30  1  0.78015238  0.76005216  0.42127472  1
  Al  Al31  1  0.90116428  0.86608451  0.15980317  1
  Al  Al32  1  0.44073993  0.75902180  0.90631969  1
  Al  Al33  1  0.55658583  0.86969377  0.66319505  1
  Gd  Gd34  1  0.55818781  0.20840110  0.16211410  1
  Gd  Gd35  1  0.55818780  0.86674473  0.16211410  1
  N  N36  1  0.22371105  0.20481111  0.35401010  1
  N  N37  1  0.11154662  0.09470860  0.10349544  1
  N  N38  1  0.89052956  0.20786007  0.85086199  1
  N  N39  1  0.78131724  0.09307914  0.60908068  1
  N  N40  1  0.55416639  0.20575042  0.38449438  1
  N  N41  1  0.41522195  0.10905583  0.08277411  1
  N  N42  1  0.21540858  0.20896239  0.84909899  1
  N  N43  1  0.11021137  0.09469498  0.60061920  1
  N  N44  1  0.88709761  0.20552845  0.35232685  1
  N  N45  1  0.81103701  0.07728262  0.09138548  1
  N  N46  1  0.55832787  0.20646313  0.85591652  1
  N  N47  1  0.44081887  0.09625721  0.61746147  1
  N  N48  1  0.22255941  0.53847681  0.35248279  1
  N  N49  1  0.11154656  0.42707813  0.10349544  1
  N  N50  1  0.89052953  0.53494369  0.85086198  1
  N  N51  1  0.77692181  0.42820570  0.60067959  1
  N  N52  1  0.55280177  0.54026576  0.35293575  1
  N  N53  1  0.42748372  0.45489330  0.09172220  1
  N  N54  1  0.21848857  0.54025531  0.85099947  1
  N  N55  1  0.11021136  0.42842688  0.60061919  1
  N  N56  1  0.88709760  0.54070721  0.35232687  1
  N  N57  1  0.77506182  0.42913570  0.10396365  1
  N  N58  1  0.55817292  0.53758026  0.85038310  1
  N  N59  1  0.44154728  0.43180131  0.60933225  1
  N  N60  1  0.22255943  0.87229706  0.35248279  1
  N  N61  1  0.11379532  0.75976902  0.10246788  1
  N  N62  1  0.89315216  0.87009058  0.84889103  1
  N  N63  1  0.78131724  0.75893685  0.60908069  1
  N  N64  1  0.55416641  0.87341649  0.38449438  1
  N  N65  1  0.42748382  0.75095644  0.09172225  1
  N  N66  1  0.21848863  0.87458944  0.85099948  1
  N  N67  1  0.11117883  0.76107721  0.60034887  1
  N  N68  1  0.88677548  0.87327890  0.35315414  1
  N  N69  1  0.81103701  0.74501361  0.09138549  1
  N  N70  1  0.55832786  0.86854246  0.85591654  1
  N  N71  1  0.44154730  0.75998470  0.60933224  1
