# generated using pymatgen
data_GdAl17N18
_symmetry_space_group_name_H-M   'P 1'
_cell_length_a   9.53612953
_cell_length_b   9.51299901
_cell_length_c   10.08386125
_cell_angle_alpha   89.99922636
_cell_angle_beta   89.92511804
_cell_angle_gamma   60.10853791
_symmetry_Int_Tables_number   1
_chemical_formula_structural   GdAl17N18
_chemical_formula_sum   'Gd2 Al34 N36'
_cell_volume   793.08648128
_cell_formula_units_Z   2
loop_
 _symmetry_equiv_pos_site_id
 _symmetry_equiv_pos_as_xyz
  1  'x, y, z'
loop_
 _atom_site_type_symbol
 _atom_site_label
 _atom_site_symmetry_multiplicity
 _atom_site_fract_x
 _atom_site_fract_y
 _atom_site_fract_z
 _atom_site_occupancy
  Al  Al0  1  0.11040930  0.09560350  0.32509933  1
  Al  Al1  1  0.21416714  0.20960387  0.07579689  1
  Al  Al2  1  0.78018576  0.09311915  0.81696758  1
  Al  Al3  1  0.89026175  0.20697749  0.57533786  1
  Al  Al4  1  0.43770680  0.09782699  0.33845913  1
  Al  Al5  1  0.11049491  0.09442326  0.82637115  1
  Al  Al6  1  0.21661929  0.20836509  0.57524975  1
  Al  Al7  1  0.78691622  0.09006892  0.33192357  1
  Al  Al8  1  0.89462984  0.20345886  0.07660415  1
  Al  Al9  1  0.44114403  0.09608607  0.80832662  1
  Al  Al10  1  0.55688901  0.20694534  0.57447357  1
  Al  Al11  1  0.11039862  0.42731576  0.32510158  1
  Al  Al12  1  0.21768743  0.54366459  0.07699964  1
  Al  Al13  1  0.77637070  0.42845721  0.82706499  1
  Al  Al14  1  0.89026046  0.53608099  0.57534129  1
  Al  Al15  1  0.44048252  0.43403832  0.33156278  1
  Al  Al16  1  0.54898846  0.54220462  0.07726875  1
  Al  Al17  1  0.11049027  0.42839394  0.82636944  1
  Al  Al18  1  0.21912408  0.54054968  0.57519828  1
  Al  Al19  1  0.77745063  0.42791549  0.32590990  1
  Al  Al20  1  0.89460733  0.53520540  0.07659828  1
  Al  Al21  1  0.44142497  0.43112822  0.81672232  1
  Al  Al22  1  0.55684790  0.53825284  0.57432041  1
  Al  Al23  1  0.11141708  0.76095640  0.32459757  1
  Al  Al24  1  0.21772338  0.87199932  0.07699675  1
  Al  Al25  1  0.78019089  0.75998202  0.81696315  1
  Al  Al26  1  0.89265058  0.87033844  0.57514265  1
  Al  Al27  1  0.44051268  0.75881496  0.33154995  1
  Al  Al28  1  0.11134386  0.76098645  0.82635375  1
  Al  Al29  1  0.21913760  0.87367074  0.57519250  1
  Al  Al30  1  0.78692715  0.75628972  0.33192288  1
  Al  Al31  1  0.90168458  0.86580806  0.07739246  1
  Al  Al32  1  0.44143487  0.76076296  0.81672876  1
  Al  Al33  1  0.55689309  0.86951944  0.57446824  1
  Gd  Gd34  1  0.55820398  0.20816007  0.07805303  1
  Gd  Gd35  1  0.55822803  0.86713964  0.07805184  1
  N  N36  1  0.21494644  0.20922393  0.38840139  1
  N  N37  1  0.11131189  0.09484622  0.13322432  1
  N  N38  1  0.88734468  0.20552936  0.88450874  1
  N  N39  1  0.78125282  0.09311980  0.62810411  1
  N  N40  1  0.55864194  0.20641983  0.38051839  1
  N  N41  1  0.41371166  0.10984450  0.15490385  1
  N  N42  1  0.22372333  0.20482729  0.88257152  1
  N  N43  1  0.11008312  0.09462352  0.63637859  1
  N  N44  1  0.89062734  0.20795968  0.38610022  1
  N  N45  1  0.81194255  0.07656988  0.14554298  1
  N  N46  1  0.55451137  0.20551736  0.85412527  1
  N  N47  1  0.44105296  0.09611366  0.61961265  1
  N  N48  1  0.21844733  0.54021800  0.38591445  1
  N  N49  1  0.11129058  0.42713721  0.13322425  1
  N  N50  1  0.88734320  0.54047184  0.88450055  1
  N  N51  1  0.77697146  0.42813789  0.63633149  1
  N  N52  1  0.55825780  0.53757563  0.38679634  1
  N  N53  1  0.42708976  0.45546376  0.14512588  1
  N  N54  1  0.22272817  0.53836175  0.88428618  1
  N  N55  1  0.11008161  0.42857166  0.63637996  1
  N  N56  1  0.89062319  0.53476178  0.38610838  1
  N  N57  1  0.77476861  0.42921040  0.13280961  1
  N  N58  1  0.55297216  0.54020076  0.88370470  1
  N  N59  1  0.44166866  0.43146948  0.62774884  1
  N  N60  1  0.21847474  0.87471378  0.38590169  1
  N  N61  1  0.11397616  0.75966844  0.13423645  1
  N  N62  1  0.88747346  0.87293667  0.88340624  1
  N  N63  1  0.78125697  0.75887824  0.62810141  1
  N  N64  1  0.55864774  0.86835341  0.38050884  1
  N  N65  1  0.42716054  0.75078683  0.14509254  1
  N  N66  1  0.22273919  0.87228360  0.88428845  1
  N  N67  1  0.11154018  0.76087484  0.63650287  1
  N  N68  1  0.89364219  0.86985698  0.38846238  1
  N  N69  1  0.81196646  0.74467752  0.14554496  1
  N  N70  1  0.55451893  0.87335287  0.85412439  1
  N  N71  1  0.44167852  0.76014121  0.62774973  1
