# generated using pymatgen
data_GdAl17N18
_symmetry_space_group_name_H-M   'P 1'
_cell_length_a   9.51113505
_cell_length_b   9.49323146
_cell_length_c   10.14333865
_cell_angle_alpha   90.00005602
_cell_angle_beta   90.08976363
_cell_angle_gamma   60.06240387
_symmetry_Int_Tables_number   1
_chemical_formula_structural   GdAl17N18
_chemical_formula_sum   'Gd2 Al34 N36'
_cell_volume   793.65182125
_cell_formula_units_Z   2
loop_
 _symmetry_equiv_pos_site_id
 _symmetry_equiv_pos_as_xyz
  1  'x, y, z'
loop_
 _atom_site_type_symbol
 _atom_site_label
 _atom_site_symmetry_multiplicity
 _atom_site_fract_x
 _atom_site_fract_y
 _atom_site_fract_z
 _atom_site_occupancy
  Al  Al0  1  0.11051190  0.09449927  0.39583818  1
  Al  Al1  1  0.21467757  0.20932827  0.14601572  1
  Al  Al2  1  0.78617208  0.09053749  0.89051857  1
  Al  Al3  1  0.89027633  0.20691396  0.64701237  1
  Al  Al4  1  0.44075575  0.09628862  0.41465993  1
  Al  Al5  1  0.11054473  0.09542239  0.89699988  1
  Al  Al6  1  0.21683332  0.20824991  0.64756957  1
  Al  Al7  1  0.78019347  0.09310769  0.40581381  1
  Al  Al8  1  0.89472063  0.20347104  0.14547007  1
  Al  Al9  1  0.43847965  0.09742743  0.88470697  1
  Al  Al10  1  0.55662670  0.20703332  0.64773428  1
  Al  Al11  1  0.11051183  0.42832161  0.39583815  1
  Al  Al12  1  0.21777972  0.54367086  0.14502321  1
  Al  Al13  1  0.77761914  0.42785684  0.89619005  1
  Al  Al14  1  0.89027625  0.53614244  0.64701233  1
  Al  Al15  1  0.44122137  0.43154036  0.40596189  1
  Al  Al16  1  0.54920109  0.54206683  0.14451302  1
  Al  Al17  1  0.11054445  0.42736637  0.89699991  1
  Al  Al18  1  0.21907233  0.54066391  0.64709520  1
  Al  Al19  1  0.77630501  0.42851365  0.39521800  1
  Al  Al20  1  0.89472010  0.53514132  0.14547019  1
  Al  Al21  1  0.44078028  0.43355180  0.89085861  1
  Al  Al22  1  0.55677250  0.53828047  0.64831678  1
  Al  Al23  1  0.11089689  0.76121798  0.39570343  1
  Al  Al24  1  0.21778027  0.87188297  0.14502337  1
  Al  Al25  1  0.78617216  0.75662331  0.89051861  1
  Al  Al26  1  0.89242662  0.87045310  0.64762256  1
  Al  Al27  1  0.44122160  0.76057118  0.40596167  1
  Al  Al28  1  0.11136089  0.76098630  0.89748148  1
  Al  Al29  1  0.21907261  0.87359673  0.64709526  1
  Al  Al30  1  0.78019351  0.76003121  0.40581389  1
  Al  Al31  1  0.90120506  0.86606396  0.14434195  1
  Al  Al32  1  0.44078074  0.75900186  0.89085896  1
  Al  Al33  1  0.55662670  0.86967341  0.64773440  1
  Gd  Gd34  1  0.55822849  0.20838229  0.14665354  1
  Gd  Gd35  1  0.55822859  0.86672585  0.14665355  1
  N  N36  1  0.22375222  0.20479045  0.33854891  1
  N  N37  1  0.11158740  0.09468820  0.08803421  1
  N  N38  1  0.89057022  0.20783964  0.83540089  1
  N  N39  1  0.78135804  0.09305821  0.59361974  1
  N  N40  1  0.55420750  0.20572980  0.36903366  1
  N  N41  1  0.41526263  0.10903675  0.06731333  1
  N  N42  1  0.21544919  0.20894229  0.83363793  1
  N  N43  1  0.11025215  0.09467426  0.58515795  1
  N  N44  1  0.88713866  0.20550757  0.33686554  1
  N  N45  1  0.81107741  0.07726187  0.07592447  1
  N  N46  1  0.55836855  0.20644328  0.84045553  1
  N  N47  1  0.44085960  0.09623665  0.60200070  1
  N  N48  1  0.22260058  0.53845608  0.33702147  1
  N  N49  1  0.11158683  0.42705794  0.08803424  1
  N  N50  1  0.89057003  0.53492338  0.83540081  1
  N  N51  1  0.77696246  0.42818483  0.58521832  1
  N  N52  1  0.55284274  0.54024515  0.33747452  1
  N  N53  1  0.42752389  0.45487395  0.07626085  1
  N  N54  1  0.21852905  0.54023520  0.83553831  1
  N  N55  1  0.11025206  0.42840619  0.58515789  1
  N  N56  1  0.88713859  0.54068645  0.33686567  1
  N  N57  1  0.77510238  0.42911480  0.08850242  1
  N  N58  1  0.55821352  0.53756041  0.83492218  1
  N  N59  1  0.44158799  0.43178073  0.59387142  1
  N  N60  1  0.22260069  0.87227642  0.33702154  1
  N  N61  1  0.11383600  0.75974881  0.08700674  1
  N  N62  1  0.89319290  0.87007018  0.83343006  1
  N  N63  1  0.78135805  0.75891604  0.59361982  1
  N  N64  1  0.55420762  0.87339590  0.36903365  1
  N  N65  1  0.42752501  0.75093680  0.07626153  1
  N  N66  1  0.21852952  0.87456919  0.83553849  1
  N  N67  1  0.11121970  0.76105651  0.58488759  1
  N  N68  1  0.88681663  0.87325803  0.33769296  1
  N  N69  1  0.81107755  0.74499289  0.07592450  1
  N  N70  1  0.55836852  0.86852273  0.84045577  1
  N  N71  1  0.44158818  0.75996410  0.59387131  1
