# generated using pymatgen
data_GdAl17N18
_symmetry_space_group_name_H-M   'P 1'
_cell_length_a   9.51113374
_cell_length_b   9.49323042
_cell_length_c   10.14333597
_cell_angle_alpha   90.00005170
_cell_angle_beta   90.08975498
_cell_angle_gamma   60.06238202
_symmetry_Int_Tables_number   1
_chemical_formula_structural   GdAl17N18
_chemical_formula_sum   'Gd2 Al34 N36'
_cell_volume   793.65124071
_cell_formula_units_Z   2
loop_
 _symmetry_equiv_pos_site_id
 _symmetry_equiv_pos_as_xyz
  1  'x, y, z'
loop_
 _atom_site_type_symbol
 _atom_site_label
 _atom_site_symmetry_multiplicity
 _atom_site_fract_x
 _atom_site_fract_y
 _atom_site_fract_z
 _atom_site_occupancy
  Al  Al0  1  0.11050805  0.09450103  0.39730615  1
  Al  Al1  1  0.21467404  0.20933000  0.14748447  1
  Al  Al2  1  0.78616819  0.09053956  0.89198728  1
  Al  Al3  1  0.89027257  0.20691609  0.64848151  1
  Al  Al4  1  0.44075212  0.09629045  0.41612837  1
  Al  Al5  1  0.11054091  0.09542446  0.89846927  1
  Al  Al6  1  0.21682911  0.20825201  0.64903825  1
  Al  Al7  1  0.78018959  0.09310960  0.40728285  1
  Al  Al8  1  0.89471665  0.20347295  0.14693831  1
  Al  Al9  1  0.43847564  0.09742937  0.88617372  1
  Al  Al10  1  0.55662291  0.20703533  0.64920295  1
  Al  Al11  1  0.11050798  0.42832375  0.39730613  1
  Al  Al12  1  0.21777599  0.54367264  0.14649102  1
  Al  Al13  1  0.77761549  0.42785870  0.89765925  1
  Al  Al14  1  0.89027250  0.53614413  0.64848147  1
  Al  Al15  1  0.44121761  0.43154236  0.40743081  1
  Al  Al16  1  0.54919710  0.54206875  0.14598020  1
  Al  Al17  1  0.11054066  0.42736812  0.89846930  1
  Al  Al18  1  0.21906826  0.54066601  0.64856444  1
  Al  Al19  1  0.77630096  0.42851573  0.39668517  1
  Al  Al20  1  0.89471619  0.53514345  0.14693843  1
  Al  Al21  1  0.44077643  0.43355355  0.89232725  1
  Al  Al22  1  0.55676899  0.53828221  0.64978632  1
  Al  Al23  1  0.11089294  0.76121998  0.39717093  1
  Al  Al24  1  0.21777648  0.87188489  0.14649117  1
  Al  Al25  1  0.78616825  0.75662520  0.89198732  1
  Al  Al26  1  0.89242305  0.87045491  0.64909190  1
  Al  Al27  1  0.44121782  0.76057297  0.40743061  1
  Al  Al28  1  0.11135707  0.76098820  0.89895085  1
  Al  Al29  1  0.21906851  0.87359872  0.64856449  1
  Al  Al30  1  0.78018962  0.76003328  0.40728292  1
  Al  Al31  1  0.90120090  0.86606606  0.14580935  1
  Al  Al32  1  0.44077684  0.75900390  0.89232757  1
  Al  Al33  1  0.55662291  0.86967517  0.64920306  1
  Gd  Gd34  1  0.55822434  0.20838392  0.14812109  1
  Gd  Gd35  1  0.55822442  0.86672801  0.14812110  1
  N  N36  1  0.22374854  0.20479229  0.34001703  1
  N  N37  1  0.11158351  0.09469028  0.08950263  1
  N  N38  1  0.89056645  0.20784166  0.83686982  1
  N  N39  1  0.78135433  0.09306012  0.59508858  1
  N  N40  1  0.55420366  0.20573180  0.37050128  1
  N  N41  1  0.41525838  0.10903873  0.06878005  1
  N  N42  1  0.21544484  0.20894444  0.83510612  1
  N  N43  1  0.11024829  0.09467610  0.58662617  1
  N  N44  1  0.88713477  0.20550936  0.33833333  1
  N  N45  1  0.81107350  0.07726401  0.07739237  1
  N  N46  1  0.55836477  0.20644521  0.84192335  1
  N  N47  1  0.44085578  0.09623858  0.60346899  1
  N  N48  1  0.22259696  0.53845787  0.33848907  1
  N  N49  1  0.11158300  0.42705974  0.08950266  1
  N  N50  1  0.89056629  0.53492514  0.83686975  1
  N  N51  1  0.77695859  0.42818684  0.58668627  1
  N  N52  1  0.55283862  0.54024721  0.33894186  1
  N  N53  1  0.42752002  0.45487571  0.07772866  1
  N  N54  1  0.21852503  0.54023714  0.83700732  1
  N  N55  1  0.11024821  0.42840828  0.58662612  1
  N  N56  1  0.88713470  0.54068862  0.33833345  1
  N  N57  1  0.77509865  0.42911675  0.08997072  1
  N  N58  1  0.55820986  0.53756218  0.83639131  1
  N  N59  1  0.44158415  0.43178285  0.59534021  1
  N  N60  1  0.22259705  0.87227826  0.33848913  1
  N  N61  1  0.11383212  0.75975073  0.08847499  1
  N  N62  1  0.89318917  0.87007205  0.83489895  1
  N  N63  1  0.78135434  0.75891795  0.59508865  1
  N  N64  1  0.55420377  0.87339774  0.37050127  1
  N  N65  1  0.42752101  0.75093878  0.07772925  1
  N  N66  1  0.21852545  0.87457125  0.83700748  1
  N  N67  1  0.11121584  0.76105847  0.58635568  1
  N  N68  1  0.88681246  0.87326014  0.33916046  1
  N  N69  1  0.81107362  0.74499481  0.07739240  1
  N  N70  1  0.55836474  0.86852444  0.84192355  1
  N  N71  1  0.44158432  0.75996588  0.59534011  1
