# generated using pymatgen
data_GdAl17N18
_symmetry_space_group_name_H-M   'P 1'
_cell_length_a   10.06693049
_cell_length_b   10.01469879
_cell_length_c   8.61277117
_cell_angle_alpha   89.99995845
_cell_angle_beta   90.00799251
_cell_angle_gamma   60.17080811
_symmetry_Int_Tables_number   1
_chemical_formula_structural   GdAl17N18
_chemical_formula_sum   'Gd2 Al34 N36'
_cell_volume   753.27477316
_cell_formula_units_Z   2
loop_
 _symmetry_equiv_pos_site_id
 _symmetry_equiv_pos_as_xyz
  1  'x, y, z'
loop_
 _atom_site_type_symbol
 _atom_site_label
 _atom_site_symmetry_multiplicity
 _atom_site_fract_x
 _atom_site_fract_y
 _atom_site_fract_z
 _atom_site_occupancy
  Al  Al0  1  0.10969314  0.09471506  0.36291439  1
  Al  Al1  1  0.21001481  0.21165901  0.11379385  1
  Al  Al2  1  0.78768740  0.08929641  0.84984660  1
  Al  Al3  1  0.88995312  0.20807397  0.61058287  1
  Al  Al4  1  0.43799306  0.09766656  0.37698906  1
  Al  Al5  1  0.10967745  0.09594972  0.85900454  1
  Al  Al6  1  0.21537232  0.20898059  0.60974011  1
  Al  Al7  1  0.78570899  0.09096487  0.37038982  1
  Al  Al8  1  0.89437229  0.20437909  0.11061832  1
  Al  Al9  1  0.43595858  0.09868310  0.84478589  1
  Al  Al10  1  0.55717887  0.20660002  0.60764653  1
  Al  Al11  1  0.10969528  0.42892628  0.36291447  1
  Al  Al12  1  0.21688860  0.54321425  0.11050070  1
  Al  Al13  1  0.77653519  0.42840408  0.85976196  1
  Al  Al14  1  0.88995335  0.53531484  0.61058229  1
  Al  Al15  1  0.43926338  0.43424096  0.37037605  1
  Al  Al16  1  0.55057834  0.54137367  0.11051941  1
  Al  Al17  1  0.10967939  0.42770694  0.85900337  1
  Al  Al18  1  0.21847408  0.54041263  0.61085647  1
  Al  Al19  1  0.77634172  0.42850121  0.36051772  1
  Al  Al20  1  0.89437490  0.53459029  0.11061754  1
  Al  Al21  1  0.43942498  0.43477202  0.84995884  1
  Al  Al22  1  0.55692156  0.53820300  0.61028422  1
  Al  Al23  1  0.11364362  0.75984485  0.36354206  1
  Al  Al24  1  0.21688404  0.87323121  0.11050167  1
  Al  Al25  1  0.78768493  0.75635740  0.84984646  1
  Al  Al26  1  0.89448831  0.86942553  0.60909263  1
  Al  Al27  1  0.43925889  0.75982534  0.37038144  1
  Al  Al28  1  0.11186453  0.76073405  0.85913452  1
  Al  Al29  1  0.21846919  0.87444738  0.61085760  1
  Al  Al30  1  0.78570782  0.75666727  0.37038761  1
  Al  Al31  1  0.90333341  0.86500369  0.11350223  1
  Al  Al32  1  0.43941941  0.75913140  0.84995875  1
  Al  Al33  1  0.55717742  0.86954872  0.60764680  1
  Gd  Gd34  1  0.55982845  0.20756210  0.10559513  1
  Gd  Gd35  1  0.55982549  0.86592678  0.10559531  1
  N  N36  1  0.21916224  0.20708515  0.35408626  1
  N  N37  1  0.11009646  0.09545307  0.09933826  1
  N  N38  1  0.89005058  0.20834948  0.84636471  1
  N  N39  1  0.78335431  0.09292516  0.60160862  1
  N  N40  1  0.55694371  0.20558050  0.37357448  1
  N  N41  1  0.41403972  0.10963980  0.08936083  1
  N  N42  1  0.21532475  0.20900355  0.84102176  1
  N  N43  1  0.10868690  0.09489546  0.59715032  1
  N  N44  1  0.88917384  0.20715501  0.35027373  1
  N  N45  1  0.81163718  0.07595746  0.09479776  1
  N  N46  1  0.55850505  0.20585865  0.83495337  1
  N  N47  1  0.43838106  0.09747421  0.60479478  1
  N  N48  1  0.22070092  0.53887865  0.35104197  1
  N  N49  1  0.11009875  0.42778543  0.09933780  1
  N  N50  1  0.89005199  0.53494018  0.84636569  1
  N  N51  1  0.77656098  0.42839205  0.59698913  1
  N  N52  1  0.55472180  0.53930344  0.35301747  1
  N  N53  1  0.42752324  0.45436324  0.09465400  1
  N  N54  1  0.21850478  0.53979562  0.84569662  1
  N  N55  1  0.10868789  0.42975365  0.59715169  1
  N  N56  1  0.88917632  0.53701050  0.35027379  1
  N  N57  1  0.77427013  0.42953860  0.10027487  1
  N  N58  1  0.55733638  0.53799434  0.84422369  1
  N  N59  1  0.43994422  0.43306853  0.60228759  1
  N  N60  1  0.22069762  0.87375411  0.35104182  1
  N  N61  1  0.11432559  0.75950344  0.09892730  1
  N  N62  1  0.89436019  0.86948818  0.84001882  1
  N  N63  1  0.78335231  0.75706455  0.60160769  1
  N  N64  1  0.55694101  0.87080086  0.37357474  1
  N  N65  1  0.42751529  0.75143920  0.09464710  1
  N  N66  1  0.21849895  0.87503433  0.84569446  1
  N  N67  1  0.11371106  0.75981055  0.59725577  1
  N  N68  1  0.89263353  0.87035266  0.35572074  1
  N  N69  1  0.81163400  0.74575119  0.09480063  1
  N  N70  1  0.55850349  0.86896051  0.83495305  1
  N  N71  1  0.43994020  0.76031792  0.60228909  1
