# generated using pymatgen
data_GdAl17N18
_symmetry_space_group_name_H-M   'P 1'
_cell_length_a   9.73072338
_cell_length_b   9.69155997
_cell_length_c   9.57614965
_cell_angle_alpha   89.99995365
_cell_angle_beta   89.96210282
_cell_angle_gamma   60.15628749
_symmetry_Int_Tables_number   1
_chemical_formula_structural   GdAl17N18
_chemical_formula_sum   'Gd2 Al34 N36'
_cell_volume   783.32510140
_cell_formula_units_Z   2
loop_
 _symmetry_equiv_pos_site_id
 _symmetry_equiv_pos_as_xyz
  1  'x, y, z'
loop_
 _atom_site_type_symbol
 _atom_site_label
 _atom_site_symmetry_multiplicity
 _atom_site_fract_x
 _atom_site_fract_y
 _atom_site_fract_z
 _atom_site_occupancy
  Al  Al0  1  0.10980264  0.09646506  0.32794987  1
  Al  Al1  1  0.21335755  0.21000176  0.07774128  1
  Al  Al2  1  0.78167802  0.09280124  0.82093723  1
  Al  Al3  1  0.89051652  0.20788130  0.57923386  1
  Al  Al4  1  0.43575276  0.09878706  0.34936314  1
  Al  Al5  1  0.11019066  0.09407195  0.83075467  1
  Al  Al6  1  0.21388481  0.20973380  0.58102742  1
  Al  Al7  1  0.78888832  0.08892036  0.33824446  1
  Al  Al8  1  0.89414592  0.20319973  0.08007430  1
  Al  Al9  1  0.44082343  0.09624519  0.81171539  1
  Al  Al10  1  0.55789674  0.20713047  0.58227482  1
  Al  Al11  1  0.10980035  0.42705621  0.32795425  1
  Al  Al12  1  0.21792219  0.54335462  0.08052998  1
  Al  Al13  1  0.77640091  0.42845507  0.83223786  1
  Al  Al14  1  0.89051695  0.53494329  0.57923631  1
  Al  Al15  1  0.43982848  0.43516956  0.33832525  1
  Al  Al16  1  0.54820525  0.54257739  0.07992222  1
  Al  Al17  1  0.11018906  0.42905618  0.83075165  1
  Al  Al18  1  0.21793028  0.54093213  0.57890071  1
  Al  Al19  1  0.77716887  0.42806870  0.32816928  1
  Al  Al20  1  0.89414126  0.53598322  0.08007186  1
  Al  Al21  1  0.44074773  0.43175060  0.82029814  1
  Al  Al22  1  0.55788164  0.53773330  0.57911265  1
  Al  Al23  1  0.11105009  0.76113655  0.32757290  1
  Al  Al24  1  0.21793627  0.87207641  0.08053264  1
  Al  Al25  1  0.78168007  0.75883006  0.82093741  1
  Al  Al26  1  0.89433710  0.86950279  0.58100184  1
  Al  Al27  1  0.43984001  0.75831973  0.33832783  1
  Al  Al28  1  0.11300201  0.76015946  0.83025644  1
  Al  Al29  1  0.21793320  0.87449019  0.57889677  1
  Al  Al30  1  0.78889286  0.75549059  0.33824295  1
  Al  Al31  1  0.90218029  0.86557612  0.07892351  1
  Al  Al32  1  0.44075112  0.76081869  0.82029701  1
  Al  Al33  1  0.55789978  0.86832228  0.58227211  1
  Gd  Gd34  1  0.55800380  0.20737850  0.09019367  1
  Gd  Gd35  1  0.55801246  0.86802056  0.09019473  1
  N  N36  1  0.21228393  0.21054656  0.38567858  1
  N  N37  1  0.11066716  0.09541796  0.12719520  1
  N  N38  1  0.88778907  0.20564331  0.87957795  1
  N  N39  1  0.78249776  0.09307781  0.62288708  1
  N  N40  1  0.55975876  0.20639896  0.37661928  1
  N  N41  1  0.41056303  0.11137877  0.15280393  1
  N  N42  1  0.22354454  0.20491333  0.87578606  1
  N  N43  1  0.10915239  0.09458032  0.63258611  1
  N  N44  1  0.89086909  0.20883630  0.38120781  1
  N  N45  1  0.81361725  0.07498817  0.14062155  1
  N  N46  1  0.55533257  0.20517086  0.84973509  1
  N  N47  1  0.44015296  0.09657008  0.61224311  1
  N  N48  1  0.21724533  0.54048753  0.38102579  1
  N  N49  1  0.11066278  0.42721780  0.12719720  1
  N  N50  1  0.88779033  0.53992644  0.87957415  1
  N  N51  1  0.77709738  0.42809383  0.63295440  1
  N  N52  1  0.55931171  0.53703137  0.38285938  1
  N  N53  1  0.42643771  0.45638355  0.14048495  1
  N  N54  1  0.22299494  0.53807281  0.87918623  1
  N  N55  1  0.10915369  0.42956479  0.63258576  1
  N  N56  1  0.89086984  0.53365110  0.38121350  1
  N  N57  1  0.77407180  0.42959611  0.12659617  1
  N  N58  1  0.55272513  0.54032224  0.87759589  1
  N  N59  1  0.44075798  0.43227140  0.62188782  1
  N  N60  1  0.21725517  0.87563894  0.38101894  1
  N  N61  1  0.11387428  0.75971788  0.12816862  1
  N  N62  1  0.88923639  0.87206163  0.87621212  1
  N  N63  1  0.78250003  0.75771012  0.62288859  1
  N  N64  1  0.55976255  0.86721613  0.37661653  1
  N  N65  1  0.42646128  0.75048388  0.14047772  1
  N  N66  1  0.22300202  0.87230072  0.87918959  1
  N  N67  1  0.11282436  0.76023984  0.63232655  1
  N  N68  1  0.89519837  0.86908014  0.38569841  1
  N  N69  1  0.81362622  0.74465481  0.14062109  1
  N  N70  1  0.55533469  0.87286365  0.84973559  1
  N  N71  1  0.44076087  0.76026426  0.62188342  1
