# generated using pymatgen
data_GdAl17N18
_symmetry_space_group_name_H-M   'P 1'
_cell_length_a   10.03289948
_cell_length_b   9.98208396
_cell_length_c   8.71075620
_cell_angle_alpha   90.00003632
_cell_angle_beta   90.00651731
_cell_angle_gamma   60.16864248
_symmetry_Int_Tables_number   1
_chemical_formula_structural   GdAl17N18
_chemical_formula_sum   'Gd2 Al34 N36'
_cell_volume   756.78006012
_cell_formula_units_Z   2
loop_
 _symmetry_equiv_pos_site_id
 _symmetry_equiv_pos_as_xyz
  1  'x, y, z'
loop_
 _atom_site_type_symbol
 _atom_site_label
 _atom_site_symmetry_multiplicity
 _atom_site_fract_x
 _atom_site_fract_y
 _atom_site_fract_z
 _atom_site_occupancy
  Al  Al0  1  0.10952526  0.09631062  0.34516704  1
  Al  Al1  1  0.21085132  0.21124175  0.09069235  1
  Al  Al2  1  0.78524793  0.09128677  0.83557980  1
  Al  Al3  1  0.89024595  0.20805524  0.59506672  1
  Al  Al4  1  0.43523982  0.09904269  0.36263354  1
  Al  Al5  1  0.10993752  0.09433326  0.84358737  1
  Al  Al6  1  0.21430451  0.20951520  0.59598174  1
  Al  Al7  1  0.78781070  0.08923099  0.35638882  1
  Al  Al8  1  0.89414691  0.20423725  0.09474805  1
  Al  Al9  1  0.43877229  0.09727699  0.82544301  1
  Al  Al10  1  0.55763936  0.20684468  0.59922704  1
  Al  Al11  1  0.10952689  0.42749704  0.34516851  1
  Al  Al12  1  0.21716875  0.54325166  0.09521353  1
  Al  Al13  1  0.77643914  0.42845014  0.84575745  1
  Al  Al14  1  0.89024666  0.53503979  0.59506693  1
  Al  Al15  1  0.43968110  0.43472599  0.35622523  1
  Al  Al16  1  0.55027311  0.54152835  0.09487896  1
  Al  Al17  1  0.10993894  0.42906248  0.84358654  1
  Al  Al18  1  0.21818246  0.54046411  0.59455012  1
  Al  Al19  1  0.77666542  0.42833667  0.34517412  1
  Al  Al20  1  0.89414880  0.53495625  0.09474850  1
  Al  Al21  1  0.43931019  0.43400873  0.83504830  1
  Al  Al22  1  0.55730477  0.53801273  0.59537910  1
  Al  Al23  1  0.11147078  0.76093046  0.34583091  1
  Al  Al24  1  0.21716592  0.87291564  0.09521318  1
  Al  Al25  1  0.78524693  0.75680295  0.83558139  1
  Al  Al26  1  0.89463475  0.86935191  0.59740077  1
  Al  Al27  1  0.43967731  0.75892046  0.35622636  1
  Al  Al28  1  0.11394257  0.75969452  0.84247653  1
  Al  Al29  1  0.21817870  0.87469024  0.59454946  1
  Al  Al30  1  0.78780901  0.75629604  0.35638847  1
  Al  Al31  1  0.90309893  0.86512043  0.09185869  1
  Al  Al32  1  0.43930720  0.76000956  0.83504403  1
  Al  Al33  1  0.55763846  0.86884579  0.59922676  1
  Gd  Gd34  1  0.55910448  0.20728765  0.10252153  1
  Gd  Gd35  1  0.55910223  0.86693314  0.10252154  1
  N  N36  1  0.21348446  0.20992552  0.37257914  1
  N  N37  1  0.11018588  0.09557459  0.11251074  1
  N  N38  1  0.88899372  0.20689053  0.86266236  1
  N  N39  1  0.78338935  0.09300668  0.60959687  1
  N  N40  1  0.55918376  0.20616004  0.37416245  1
  N  N41  1  0.41290944  0.11020529  0.13062628  1
  N  N42  1  0.22102866  0.20615373  0.85888875  1
  N  N43  1  0.10870203  0.09476735  0.61673020  1
  N  N44  1  0.89028230  0.20847137  0.36611762  1
  N  N45  1  0.81168820  0.07582320  0.11895576  1
  N  N46  1  0.55647470  0.20528016  0.83618293  1
  N  N47  1  0.43853732  0.09739465  0.60338475  1
  N  N48  1  0.21803736  0.53983743  0.36660991  1
  N  N49  1  0.11018781  0.42757158  0.11251159  1
  N  N50  1  0.88899560  0.53745609  0.86266216  1
  N  N51  1  0.77678944  0.42827470  0.61631008  1
  N  N52  1  0.55796346  0.53768311  0.36836400  1
  N  N53  1  0.42752427  0.45449096  0.11956858  1
  N  N54  1  0.22127680  0.53878390  0.86205155  1
  N  N55  1  0.10870337  0.42986312  0.61672889  1
  N  N56  1  0.89028337  0.53458732  0.36611737  1
  N  N57  1  0.77424428  0.42954763  0.11167638  1
  N  N58  1  0.55425586  0.53953844  0.85955790  1
  N  N59  1  0.43995391  0.43305860  0.60858471  1
  N  N60  1  0.21803326  0.87546315  0.36661093  1
  N  N61  1  0.11413770  0.75959652  0.11364298  1
  N  N62  1  0.89232020  0.87050991  0.85660951  1
  N  N63  1  0.78338798  0.75694167  0.60959784  1
  N  N64  1  0.55918293  0.86798481  0.37416273  1
  N  N65  1  0.42751885  0.75130930  0.11957413  1
  N  N66  1  0.22127494  0.87327575  0.86205186  1
  N  N67  1  0.11383825  0.75974618  0.61556020  1
  N  N68  1  0.89450876  0.86941492  0.37259397  1
  N  N69  1  0.81168604  0.74582716  0.11895382  1
  N  N70  1  0.55647261  0.87157450  0.83618275  1
  N  N71  1  0.43995081  0.76031544  0.60858282  1
