# generated using pymatgen
data_GdAl17N18
_symmetry_space_group_name_H-M   'P 1'
_cell_length_a   10.08029133
_cell_length_b   10.02821558
_cell_length_c   8.57462622
_cell_angle_alpha   90.00000233
_cell_angle_beta   90.01802871
_cell_angle_gamma   60.16992673
_symmetry_Int_Tables_number   1
_chemical_formula_structural   GdAl17N18
_chemical_formula_sum   'Gd2 Al34 N36'
_cell_volume   751.94078629
_cell_formula_units_Z   2
loop_
 _symmetry_equiv_pos_site_id
 _symmetry_equiv_pos_as_xyz
  1  'x, y, z'
loop_
 _atom_site_type_symbol
 _atom_site_label
 _atom_site_symmetry_multiplicity
 _atom_site_fract_x
 _atom_site_fract_y
 _atom_site_fract_z
 _atom_site_occupancy
  Al  Al0  1  0.10945666  0.09590257  0.35210663  1
  Al  Al1  1  0.21014363  0.21159462  0.09728032  1
  Al  Al2  1  0.78635167  0.09041250  0.84150693  1
  Al  Al3  1  0.88996777  0.20787396  0.60095762  1
  Al  Al4  1  0.43541205  0.09895658  0.36400107  1
  Al  Al5  1  0.10996450  0.09474132  0.84797861  1
  Al  Al6  1  0.21515902  0.20908724  0.59972402  1
  Al  Al7  1  0.78712005  0.08982645  0.36111858  1
  Al  Al8  1  0.89434076  0.20460753  0.10046948  1
  Al  Al9  1  0.43821929  0.09755377  0.83062937  1
  Al  Al10  1  0.55736782  0.20674790  0.60182821  1
  Al  Al11  1  0.10945856  0.42797494  0.35210721  1
  Al  Al12  1  0.21676639  0.54333105  0.10076507  1
  Al  Al13  1  0.77636382  0.42848979  0.85016291  1
  Al  Al14  1  0.88996806  0.53549929  0.60095788  1
  Al  Al15  1  0.43953072  0.43456600  0.36074860  1
  Al  Al16  1  0.55096181  0.54118193  0.10100166  1
  Al  Al17  1  0.10996645  0.42862897  0.84797866  1
  Al  Al18  1  0.21870975  0.54020952  0.60052301  1
  Al  Al19  1  0.77656037  0.42839134  0.35208388  1
  Al  Al20  1  0.89434316  0.53439262  0.10046998  1
  Al  Al21  1  0.43917964  0.43450087  0.84120301  1
  Al  Al22  1  0.55668616  0.53832088  0.60094673  1
  Al  Al23  1  0.11220691  0.76056308  0.35316260  1
  Al  Al24  1  0.21676200  0.87323663  0.10076429  1
  Al  Al25  1  0.78635028  0.75657647  0.84150804  1
  Al  Al26  1  0.89425879  0.86954012  0.60182044  1
  Al  Al27  1  0.43952567  0.75923239  0.36074881  1
  Al  Al28  1  0.11334027  0.75999657  0.84754321  1
  Al  Al29  1  0.21870535  0.87441425  0.60052241  1
  Al  Al30  1  0.78711812  0.75639420  0.36111870  1
  Al  Al31  1  0.90344789  0.86494607  0.09933087  1
  Al  Al32  1  0.43917523  0.75964942  0.84119952  1
  Al  Al33  1  0.55736621  0.86921208  0.60182810  1
  Gd  Gd34  1  0.55949977  0.20740267  0.10362895  1
  Gd  Gd35  1  0.55949745  0.86641568  0.10362890  1
  N  N36  1  0.21439502  0.20946841  0.36704960  1
  N  N37  1  0.11009545  0.09541100  0.10791651  1
  N  N38  1  0.88940983  0.20750364  0.85649111  1
  N  N39  1  0.78346769  0.09279371  0.60668894  1
  N  N40  1  0.55870504  0.20619765  0.37408533  1
  N  N41  1  0.41391782  0.10970136  0.12236942  1
  N  N42  1  0.21994787  0.20669231  0.85428057  1
  N  N43  1  0.10874535  0.09489148  0.61031635  1
  N  N44  1  0.88989752  0.20798206  0.36064164  1
  N  N45  1  0.81117121  0.07632364  0.11000102  1
  N  N46  1  0.55682383  0.20527020  0.83502519  1
  N  N47  1  0.43822954  0.09755016  0.60287671  1
  N  N48  1  0.21895462  0.53942542  0.36139991  1
  N  N49  1  0.11009756  0.42782880  0.10791673  1
  N  N50  1  0.88941193  0.53642541  0.85649120  1
  N  N51  1  0.77652809  0.42840822  0.60910912  1
  N  N52  1  0.55676902  0.53827845  0.36250691  1
  N  N53  1  0.42767743  0.45414073  0.11049564  1
  N  N54  1  0.22030682  0.53921427  0.85580619  1
  N  N55  1  0.10874622  0.42969929  0.61031557  1
  N  N56  1  0.88989918  0.53545966  0.36064100  1
  N  N57  1  0.77439012  0.42947827  0.10738763  1
  N  N58  1  0.55533273  0.53899764  0.85385804  1
  N  N59  1  0.43999063  0.43310786  0.60612680  1
  N  N60  1  0.21894964  0.87495420  0.36140166  1
  N  N61  1  0.11442624  0.75945333  0.10854774  1
  N  N62  1  0.89325030  0.87004366  0.85109435  1
  N  N63  1  0.78346576  0.75708220  0.60668930  1
  N  N64  1  0.55870340  0.86842191  0.37408571  1
  N  N65  1  0.42767023  0.75150836  0.11049978  1
  N  N66  1  0.22030318  0.87381271  0.85580595  1
  N  N67  1  0.11365428  0.75983901  0.60885382  1
  N  N68  1  0.89381011  0.86976324  0.36613646  1
  N  N69  1  0.81116866  0.74585019  0.10999970  1
  N  N70  1  0.55682148  0.87123130  0.83502506  1
  N  N71  1  0.43998686  0.76023248  0.60612611  1
