# generated using pymatgen
data_GdAl17N18
_symmetry_space_group_name_H-M   'P 1'
_cell_length_a   9.51113406
_cell_length_b   9.49323031
_cell_length_c   10.14333263
_cell_angle_alpha   90.00004091
_cell_angle_beta   90.08973528
_cell_angle_gamma   60.06235501
_symmetry_Int_Tables_number   1
_chemical_formula_structural   GdAl17N18
_chemical_formula_sum   'Gd2 Al34 N36'
_cell_volume   793.65078136
_cell_formula_units_Z   2
loop_
 _symmetry_equiv_pos_site_id
 _symmetry_equiv_pos_as_xyz
  1  'x, y, z'
loop_
 _atom_site_type_symbol
 _atom_site_label
 _atom_site_symmetry_multiplicity
 _atom_site_fract_x
 _atom_site_fract_y
 _atom_site_fract_z
 _atom_site_occupancy
  Al  Al0  1  0.11050438  0.09450291  0.39873135  1
  Al  Al1  1  0.21467033  0.20933177  0.14890823  1
  Al  Al2  1  0.78616439  0.09054154  0.89341027  1
  Al  Al3  1  0.89026861  0.20691804  0.64990618  1
  Al  Al4  1  0.44074831  0.09629238  0.41754908  1
  Al  Al5  1  0.11053721  0.09542627  0.89989372  1
  Al  Al6  1  0.21682525  0.20825396  0.65046212  1
  Al  Al7  1  0.78018598  0.09311148  0.40870556  1
  Al  Al8  1  0.89471287  0.20347479  0.14836336  1
  Al  Al9  1  0.43847186  0.09743115  0.88759336  1
  Al  Al10  1  0.55661920  0.20703721  0.65062369  1
  Al  Al11  1  0.11050432  0.42832565  0.39873133  1
  Al  Al12  1  0.21777238  0.54367453  0.14791558  1
  Al  Al13  1  0.77761162  0.42786068  0.89908395  1
  Al  Al14  1  0.89026856  0.53614626  0.64990616  1
  Al  Al15  1  0.44121390  0.43154421  0.40885305  1
  Al  Al16  1  0.54919347  0.54207042  0.14740408  1
  Al  Al17  1  0.11053702  0.42736997  0.89989374  1
  Al  Al18  1  0.21906471  0.54066773  0.64998875  1
  Al  Al19  1  0.77629739  0.42851761  0.39811001  1
  Al  Al20  1  0.89471251  0.53514545  0.14836345  1
  Al  Al21  1  0.44077286  0.43355533  0.89374945  1
  Al  Al22  1  0.55676517  0.53828412  0.65120890  1
  Al  Al23  1  0.11088922  0.76122188  0.39859634  1
  Al  Al24  1  0.21777276  0.87188658  0.14791569  1
  Al  Al25  1  0.78616444  0.75662710  0.89341029  1
  Al  Al26  1  0.89241900  0.87045699  0.65051605  1
  Al  Al27  1  0.44121407  0.76057491  0.40885289  1
  Al  Al28  1  0.11135352  0.76098996  0.90037494  1
  Al  Al29  1  0.21906491  0.87360062  0.64998879  1
  Al  Al30  1  0.78018601  0.76003519  0.40870561  1
  Al  Al31  1  0.90119729  0.86606790  0.14723352  1
  Al  Al32  1  0.44077318  0.75900558  0.89374969  1
  Al  Al33  1  0.55661921  0.86967698  0.65062378  1
  Gd  Gd34  1  0.55821997  0.20838521  0.14954202  1
  Gd  Gd35  1  0.55822003  0.86673046  0.14954202  1
  N  N36  1  0.22374451  0.20479432  0.34144041  1
  N  N37  1  0.11157966  0.09469206  0.09092670  1
  N  N38  1  0.89056271  0.20784363  0.83829383  1
  N  N39  1  0.78135083  0.09306197  0.59651111  1
  N  N40  1  0.55420015  0.20573365  0.37192260  1
  N  N41  1  0.41525348  0.10904090  0.07020024  1
  N  N42  1  0.21544040  0.20894662  0.83652931  1
  N  N43  1  0.11024437  0.09467808  0.58805061  1
  N  N44  1  0.88713138  0.20551136  0.33975769  1
  N  N45  1  0.81107000  0.07726595  0.07881565  1
  N  N46  1  0.55836117  0.20644706  0.84334436  1
  N  N47  1  0.44085165  0.09624069  0.60489000  1
  N  N48  1  0.22259287  0.53846004  0.33991319  1
  N  N49  1  0.11157926  0.42706176  0.09092672  1
  N  N50  1  0.89056258  0.53492693  0.83829377  1
  N  N51  1  0.77695508  0.42818871  0.58811041  1
  N  N52  1  0.55283518  0.54024897  0.34036528  1
  N  N53  1  0.42751634  0.45487764  0.07915140  1
  N  N54  1  0.21852127  0.54023894  0.83843092  1
  N  N55  1  0.11024431  0.42841036  0.58805057  1
  N  N56  1  0.88713133  0.54069013  0.33975779  1
  N  N57  1  0.77509506  0.42911867  0.09139484  1
  N  N58  1  0.55820631  0.53756386  0.83781376  1
  N  N59  1  0.44158024  0.43178490  0.59676223  1
  N  N60  1  0.22259294  0.87228023  0.33991323  1
  N  N61  1  0.11382853  0.75975250  0.08989873  1
  N  N62  1  0.89318553  0.87007388  0.83632271  1
  N  N63  1  0.78135084  0.75891980  0.59651116  1
  N  N64  1  0.55420024  0.87339942  0.37192260  1
  N  N65  1  0.42751712  0.75094027  0.07915186  1
  N  N66  1  0.21852160  0.87457319  0.83843104  1
  N  N67  1  0.11121210  0.76106040  0.58778041  1
  N  N68  1  0.88680929  0.87326179  0.34058419  1
  N  N69  1  0.81107008  0.74499660  0.07881568  1
  N  N70  1  0.55836115  0.86852596  0.84334452  1
  N  N71  1  0.44158037  0.75996785  0.59676215  1
