# generated using pymatgen
data_GdAl17N18
_symmetry_space_group_name_H-M   'P 1'
_cell_length_a   9.51113953
_cell_length_b   9.49323378
_cell_length_c   10.14333363
_cell_angle_alpha   90.00002469
_cell_angle_beta   90.08972130
_cell_angle_gamma   60.06232750
_symmetry_Int_Tables_number   1
_chemical_formula_structural   GdAl17N18
_chemical_formula_sum   'Gd2 Al34 N36'
_cell_volume   793.65138732
_cell_formula_units_Z   2
loop_
 _symmetry_equiv_pos_site_id
 _symmetry_equiv_pos_as_xyz
  1  'x, y, z'
loop_
 _atom_site_type_symbol
 _atom_site_label
 _atom_site_symmetry_multiplicity
 _atom_site_fract_x
 _atom_site_fract_y
 _atom_site_fract_z
 _atom_site_occupancy
  Al  Al0  1  0.11049716  0.09450681  0.40146028  1
  Al  Al1  1  0.21466248  0.20933559  0.15163479  1
  Al  Al2  1  0.78615730  0.09054496  0.89613627  1
  Al  Al3  1  0.89026120  0.20692144  0.65263306  1
  Al  Al4  1  0.44074080  0.09629619  0.42027413  1
  Al  Al5  1  0.11053007  0.09542965  0.90261964  1
  Al  Al6  1  0.21681869  0.20825727  0.65318859  1
  Al  Al7  1  0.78017884  0.09311537  0.41143101  1
  Al  Al8  1  0.89470574  0.20347852  0.15109154  1
  Al  Al9  1  0.43846480  0.09743451  0.89032060  1
  Al  Al10  1  0.55661193  0.20704069  0.65334873  1
  Al  Al11  1  0.11049713  0.42832911  0.40146027  1
  Al  Al12  1  0.21776500  0.54367831  0.15064420  1
  Al  Al13  1  0.77760401  0.42786454  0.90181079  1
  Al  Al14  1  0.89026117  0.53615043  0.65263304  1
  Al  Al15  1  0.44120661  0.43154771  0.41157846  1
  Al  Al16  1  0.54918641  0.54207376  0.15013344  1
  Al  Al17  1  0.11052995  0.42737367  0.90261965  1
  Al  Al18  1  0.21905807  0.54067101  0.65271514  1
  Al  Al19  1  0.77629069  0.42852110  0.40084005  1
  Al  Al20  1  0.89470552  0.53514893  0.15109160  1
  Al  Al21  1  0.44076579  0.43355905  0.89647541  1
  Al  Al22  1  0.55675753  0.53828793  0.65393384  1
  Al  Al23  1  0.11088217  0.76122547  0.40132599  1
  Al  Al24  1  0.21776524  0.87189011  0.15064427  1
  Al  Al25  1  0.78615733  0.75663088  0.89613628  1
  Al  Al26  1  0.89241114  0.87046099  0.65324166  1
  Al  Al27  1  0.44120672  0.76057882  0.41157836  1
  Al  Al28  1  0.11134622  0.76099359  0.90310076  1
  Al  Al29  1  0.21905819  0.87360409  0.65271516  1
  Al  Al30  1  0.78017886  0.76003871  0.41143104  1
  Al  Al31  1  0.90119055  0.86607132  0.14996251  1
  Al  Al32  1  0.44076599  0.75900875  0.89647556  1
  Al  Al33  1  0.55661193  0.86968076  0.65334878  1
  Gd  Gd34  1  0.55821283  0.20838840  0.15226847  1
  Gd  Gd35  1  0.55821287  0.86673352  0.15226847  1
  N  N36  1  0.22373660  0.20479832  0.34416807  1
  N  N37  1  0.11157231  0.09469545  0.09365390  1
  N  N38  1  0.89055536  0.20784727  0.84102080  1
  N  N39  1  0.78134356  0.09306587  0.59923710  1
  N  N40  1  0.55419306  0.20573725  0.37464916  1
  N  N41  1  0.41524602  0.10904424  0.07292775  1
  N  N42  1  0.21543360  0.20894996  0.83925596  1
  N  N43  1  0.11023714  0.09468186  0.59077882  1
  N  N44  1  0.88712450  0.20551532  0.34248625  1
  N  N45  1  0.81106312  0.07726937  0.08154305  1
  N  N46  1  0.55835388  0.20645049  0.84607099  1
  N  N47  1  0.44084443  0.09624435  0.60761561  1
  N  N48  1  0.22258508  0.53846403  0.34264190  1
  N  N49  1  0.11157207  0.42706563  0.09365391  1
  N  N50  1  0.89055528  0.53493066  0.84102076  1
  N  N51  1  0.77694825  0.42819228  0.59083899  1
  N  N52  1  0.55282859  0.54025231  0.34309401  1
  N  N53  1  0.42750921  0.45488129  0.08187897  1
  N  N54  1  0.21851436  0.54024243  0.84115746  1
  N  N55  1  0.11023711  0.42841399  0.59077880  1
  N  N56  1  0.88712447  0.54069324  0.34248631  1
  N  N57  1  0.77508771  0.42912251  0.09412280  1
  N  N58  1  0.55819896  0.53756740  0.84053947  1
  N  N59  1  0.44157305  0.43178839  0.59948806  1
  N  N60  1  0.22258514  0.87228411  0.34264193  1
  N  N61  1  0.11382133  0.75975606  0.09262612  1
  N  N62  1  0.89317818  0.87007757  0.83904863  1
  N  N63  1  0.78134357  0.75892345  0.59923713  1
  N  N64  1  0.55419312  0.87340298  0.37464915  1
  N  N65  1  0.42750969  0.75094337  0.08187925  1
  N  N66  1  0.21851457  0.87457659  0.84115753  1
  N  N67  1  0.11120497  0.76106404  0.59050880  1
  N  N68  1  0.88680283  0.87326512  0.34331265  1
  N  N69  1  0.81106319  0.74500032  0.08154307  1
  N  N70  1  0.55835387  0.86852950  0.84607108  1
  N  N71  1  0.44157314  0.75997167  0.59948801  1
