# generated using pymatgen
data_GdAl17N18
_symmetry_space_group_name_H-M   'P 1'
_cell_length_a   9.51114001
_cell_length_b   9.49323400
_cell_length_c   10.14332968
_cell_angle_alpha   89.99998659
_cell_angle_beta   89.91029761
_cell_angle_gamma   60.06229549
_symmetry_Int_Tables_number   1
_chemical_formula_structural   GdAl17N18
_chemical_formula_sum   'Gd2 Al34 N36'
_cell_volume   793.65088205
_cell_formula_units_Z   2
loop_
 _symmetry_equiv_pos_site_id
 _symmetry_equiv_pos_as_xyz
  1  'x, y, z'
loop_
 _atom_site_type_symbol
 _atom_site_label
 _atom_site_symmetry_multiplicity
 _atom_site_fract_x
 _atom_site_fract_y
 _atom_site_fract_z
 _atom_site_occupancy
  Al  Al0  1  0.11064157  0.09537393  0.30139122  1
  Al  Al1  1  0.21477424  0.20927963  0.05237654  1
  Al  Al2  1  0.78029038  0.09305961  0.79258035  1
  Al  Al3  1  0.89037268  0.20686584  0.55137794  1
  Al  Al4  1  0.43857633  0.09737864  0.31369253  1
  Al  Al5  1  0.11060870  0.09445106  0.80255103  1
  Al  Al6  1  0.21692998  0.20820165  0.55082258  1
  Al  Al7  1  0.78626879  0.09048934  0.30787519  1
  Al  Al8  1  0.89481724  0.20342277  0.05291962  1
  Al  Al9  1  0.44085236  0.09624044  0.78373801  1
  Al  Al10  1  0.55672347  0.20698497  0.55066328  1
  Al  Al11  1  0.11064150  0.42731787  0.30139121  1
  Al  Al12  1  0.21787673  0.54362239  0.05336725  1
  Al  Al13  1  0.77640212  0.42846549  0.80317171  1
  Al  Al14  1  0.89037266  0.53609467  0.55137795  1
  Al  Al15  1  0.44087737  0.43350317  0.30753642  1
  Al  Al16  1  0.54929791  0.54201787  0.05387861  1
  Al  Al17  1  0.11060868  0.42827343  0.80255103  1
  Al  Al18  1  0.21916948  0.54061533  0.55129585  1
  Al  Al19  1  0.77771557  0.42780882  0.30220025  1
  Al  Al20  1  0.89481713  0.53509325  0.05291959  1
  Al  Al21  1  0.44131820  0.43149195  0.79243310  1
  Al  Al22  1  0.55686915  0.53823211  0.55007755  1
  Al  Al23  1  0.11145781  0.76093778  0.30091009  1
  Al  Al24  1  0.21787686  0.87183426  0.05336721  1
  Al  Al25  1  0.78029040  0.75998312  0.79258033  1
  Al  Al26  1  0.89252271  0.87040526  0.55076915  1
  Al  Al27  1  0.44087748  0.75895295  0.30753634  1
  Al  Al28  1  0.11099364  0.76116979  0.80268547  1
  Al  Al29  1  0.21916955  0.87354842  0.55129584  1
  Al  Al30  1  0.78626881  0.75657510  0.30787518  1
  Al  Al31  1  0.90130198  0.86601564  0.05404922  1
  Al  Al32  1  0.44131827  0.76052308  0.79243315  1
  Al  Al33  1  0.55672347  0.86962492  0.55066325  1
  Gd  Gd34  1  0.55832413  0.20833224  0.05174401  1
  Gd  Gd35  1  0.55832415  0.86667772  0.05174401  1
  N  N36  1  0.21554479  0.20889432  0.36475555  1
  N  N37  1  0.11168386  0.09463971  0.11035749  1
  N  N38  1  0.88723604  0.20545958  0.86152522  1
  N  N39  1  0.78145521  0.09301011  0.60477442  1
  N  N40  1  0.55846548  0.20639467  0.35794128  1
  N  N41  1  0.41535730  0.10898833  0.13108516  1
  N  N42  1  0.22384814  0.20474257  0.85984376  1
  N  N43  1  0.11034864  0.09462618  0.61323263  1
  N  N44  1  0.89066688  0.20779157  0.36299051  1
  N  N45  1  0.81117477  0.07721374  0.12246868  1
  N  N46  1  0.55430463  0.20568148  0.82936315  1
  N  N47  1  0.44095583  0.09618870  0.59639641  1
  N  N48  1  0.21862577  0.54018668  0.36285384  1
  N  N49  1  0.11168373  0.42700980  0.11035748  1
  N  N50  1  0.88723602  0.54063757  0.86152519  1
  N  N51  1  0.77705981  0.42813662  0.61317270  1
  N  N52  1  0.55831060  0.53751149  0.36347227  1
  N  N53  1  0.42762085  0.45482535  0.12213309  1
  N  N54  1  0.22269667  0.53840823  0.86136972  1
  N  N55  1  0.11034862  0.42835833  0.61323264  1
  N  N56  1  0.89066684  0.53487485  0.36299052  1
  N  N57  1  0.77519939  0.42906681  0.10988887  1
  N  N58  1  0.55294004  0.54019662  0.86091798  1
  N  N59  1  0.44168451  0.43173274  0.60452362  1
  N  N60  1  0.21862589  0.87452091  0.36285381  1
  N  N61  1  0.11393295  0.75970023  0.11138524  1
  N  N62  1  0.88691434  0.87320943  0.86069915  1
  N  N63  1  0.78145522  0.75886777  0.60477440  1
  N  N64  1  0.55846548  0.86847348  0.35794122  1
  N  N65  1  0.42762111  0.75088743  0.12213293  1
  N  N66  1  0.22269671  0.87222836  0.86136970  1
  N  N67  1  0.11131643  0.76100838  0.61350262  1
  N  N68  1  0.89328974  0.87002179  0.36496242  1
  N  N69  1  0.81117480  0.74494455  0.12246867  1
  N  N70  1  0.55430467  0.87334719  0.82936316  1
  N  N71  1  0.44168456  0.75991596  0.60452365  1
