# generated using pymatgen
data_GdAl17N18
_symmetry_space_group_name_H-M   'P 1'
_cell_length_a   9.99599987
_cell_length_b   9.94577139
_cell_length_c   8.81905168
_cell_angle_alpha   89.99995243
_cell_angle_beta   90.01448698
_cell_angle_gamma   60.16921177
_symmetry_Int_Tables_number   1
_chemical_formula_structural   GdAl17N18
_chemical_formula_sum   'Gd2 Al34 N36'
_cell_volume   760.59804357
_cell_formula_units_Z   2
loop_
 _symmetry_equiv_pos_site_id
 _symmetry_equiv_pos_as_xyz
  1  'x, y, z'
loop_
 _atom_site_type_symbol
 _atom_site_label
 _atom_site_symmetry_multiplicity
 _atom_site_fract_x
 _atom_site_fract_y
 _atom_site_fract_z
 _atom_site_occupancy
  Al  Al0  1  0.10975847  0.09421886  0.36815147  1
  Al  Al1  1  0.21113915  0.21109893  0.12169541  1
  Al  Al2  1  0.78831925  0.08883971  0.85550726  1
  Al  Al3  1  0.89029648  0.20836065  0.61760990  1
  Al  Al4  1  0.43890845  0.09720814  0.38528281  1
  Al  Al5  1  0.10965381  0.09646695  0.86761337  1
  Al  Al6  1  0.21418836  0.20957399  0.61527251  1
  Al  Al7  1  0.78461405  0.09177471  0.37726181  1
  Al  Al8  1  0.89416603  0.20379407  0.11738489  1
  Al  Al9  1  0.43550093  0.09891165  0.84784569  1
  Al  Al10  1  0.55756892  0.20678555  0.61151486  1
  Al  Al11  1  0.10975974  0.42935445  0.36815306  1
  Al  Al12  1  0.21747923  0.54305349  0.11699108  1
  Al  Al13  1  0.77666582  0.42833549  0.86836825  1
  Al  Al14  1  0.89029720  0.53468523  0.61760988  1
  Al  Al15  1  0.43935519  0.43376114  0.37769589  1
  Al  Al16  1  0.54952241  0.54190492  0.11771923  1
  Al  Al17  1  0.10965550  0.42721076  0.86761123  1
  Al  Al18  1  0.21775343  0.54082025  0.61796756  1
  Al  Al19  1  0.77645137  0.42844325  0.36546395  1
  Al  Al20  1  0.89416791  0.53538094  0.11738453  1
  Al  Al21  1  0.43968329  0.43489166  0.85549983  1
  Al  Al22  1  0.55777835  0.53777655  0.61697908  1
  Al  Al23  1  0.11413868  0.75959577  0.36878877  1
  Al  Al24  1  0.21747738  0.87280476  0.11699083  1
  Al  Al25  1  0.78831757  0.75617669  0.85550837  1
  Al  Al26  1  0.89501438  0.86916258  0.61443335  1
  Al  Al27  1  0.43935253  0.76021070  0.37770078  1
  Al  Al28  1  0.11113978  0.76109529  0.86787624  1
  Al  Al29  1  0.21774947  0.87476514  0.61796828  1
  Al  Al30  1  0.78461322  0.75694686  0.37725986  1
  Al  Al31  1  0.90276968  0.86528557  0.12094344  1
  Al  Al32  1  0.43967997  0.75875106  0.85549716  1
  Al  Al33  1  0.55756844  0.86897671  0.61151529  1
  Gd  Gd34  1  0.55924794  0.20739188  0.10752824  1
  Gd  Gd35  1  0.55924544  0.86668980  0.10752825  1
  N  N36  1  0.22104122  0.20614890  0.34772580  1
  N  N37  1  0.11025997  0.09565243  0.09373127  1
  N  N38  1  0.89045745  0.20889791  0.83995128  1
  N  N39  1  0.78331571  0.09314172  0.59778337  1
  N  N40  1  0.55638895  0.20542785  0.37167625  1
  N  N41  1  0.41262706  0.11034539  0.07586505  1
  N  N42  1  0.21359900  0.20986971  0.83384212  1
  N  N43  1  0.10861946  0.09473371  0.58916795  1
  N  N44  1  0.88870809  0.20645434  0.34277819  1
  N  N45  1  0.81238244  0.07531096  0.08466021  1
  N  N46  1  0.55925461  0.20600840  0.83484728  1
  N  N47  1  0.43875860  0.09728251  0.60441525  1
  N  N48  1  0.22179925  0.53841045  0.34346225  1
  N  N49  1  0.11026181  0.42741718  0.09372985  1
  N  N50  1  0.89045849  0.53398798  0.83995123  1
  N  N51  1  0.77689246  0.42822153  0.58843770  1
  N  N52  1  0.55354243  0.53989690  0.34606559  1
  N  N53  1  0.42726940  0.45491311  0.08430784  1
  N  N54  1  0.21747553  0.54024312  0.83959973  1
  N  N55  1  0.10862105  0.42997639  0.58916961  1
  N  N56  1  0.88871025  0.53818011  0.34277845  1
  N  N57  1  0.77407069  0.42963241  0.09509221  1
  N  N58  1  0.55869411  0.53731916  0.83743112  1
  N  N59  1  0.43989642  0.43305385  0.59888855  1
  N  N60  1  0.22179823  0.87312913  0.34346176  1
  N  N61  1  0.11397609  0.75967622  0.09313390  1
  N  N62  1  0.89512821  0.86910626  0.83302391  1
  N  N63  1  0.78331454  0.75687687  0.59778181  1
  N  N64  1  0.55638685  0.87151503  0.37167653  1
  N  N65  1  0.42726469  0.75113916  0.08430173  1
  N  N66  1  0.21747166  0.87562234  0.83959929  1
  N  N67  1  0.11388274  0.75972274  0.58938129  1
  N  N68  1  0.89151959  0.87091149  0.34917569  1
  N  N69  1  0.81238032  0.74564102  0.08466253  1
  N  N70  1  0.55925412  0.86806820  0.83484707  1
  N  N71  1  0.43989343  0.76037484  0.59889167  1
