# generated using pymatgen
data_GdAl17N18
_symmetry_space_group_name_H-M   'P 1'
_cell_length_a   9.97556917
_cell_length_b   9.92599570
_cell_length_c   8.87874610
_cell_angle_alpha   89.99995092
_cell_angle_beta   90.01689905
_cell_angle_gamma   60.16872050
_symmetry_Int_Tables_number   1
_chemical_formula_structural   GdAl17N18
_chemical_formula_sum   'Gd2 Al34 N36'
_cell_volume   762.65805903
_cell_formula_units_Z   2
loop_
 _symmetry_equiv_pos_site_id
 _symmetry_equiv_pos_as_xyz
  1  'x, y, z'
loop_
 _atom_site_type_symbol
 _atom_site_label
 _atom_site_symmetry_multiplicity
 _atom_site_fract_x
 _atom_site_fract_y
 _atom_site_fract_z
 _atom_site_occupancy
  Al  Al0  1  0.10977349  0.09413871  0.36925064  1
  Al  Al1  1  0.21141190  0.21096343  0.12314984  1
  Al  Al2  1  0.78846231  0.08876537  0.85694912  1
  Al  Al3  1  0.89036562  0.20841407  0.61915685  1
  Al  Al4  1  0.43906908  0.09712750  0.38690621  1
  Al  Al5  1  0.10965241  0.09655159  0.86944721  1
  Al  Al6  1  0.21394259  0.20969748  0.61655203  1
  Al  Al7  1  0.78437720  0.09192133  0.37875034  1
  Al  Al8  1  0.89412691  0.20364975  0.11881352  1
  Al  Al9  1  0.43547052  0.09892683  0.84854748  1
  Al  Al10  1  0.55764838  0.20682985  0.61256437  1
  Al  Al11  1  0.10977456  0.42941871  0.36925258  1
  Al  Al12  1  0.21761622  0.54302596  0.11838002  1
  Al  Al13  1  0.77670470  0.42831503  0.87022326  1
  Al  Al14  1  0.89036632  0.53456284  0.61915679  1
  Al  Al15  1  0.43939818  0.43364963  0.37925494  1
  Al  Al16  1  0.54925289  0.54204065  0.11924020  1
  Al  Al17  1  0.10965393  0.42712676  0.86944480  1
  Al  Al18  1  0.21760601  0.54091439  0.61951964  1
  Al  Al19  1  0.77646983  0.42843308  0.36655320  1
  Al  Al20  1  0.89412856  0.53556405  0.11881339  1
  Al  Al21  1  0.43972483  0.43493270  0.85688092  1
  Al  Al22  1  0.55795630  0.53768816  0.61849718  1
  Al  Al23  1  0.11417564  0.75957698  0.36985845  1
  Al  Al24  1  0.21761535  0.87269646  0.11837935  1
  Al  Al25  1  0.78846096  0.75610565  0.85695047  1
  Al  Al26  1  0.89510799  0.86911592  0.61578045  1
  Al  Al27  1  0.43939598  0.76027846  0.37925958  1
  Al  Al28  1  0.11102403  0.76115283  0.86976285  1
  Al  Al29  1  0.21760237  0.87481971  0.61952044  1
  Al  Al30  1  0.78437654  0.75703510  0.37874850  1
  Al  Al31  1  0.90263374  0.86535352  0.12234088  1
  Al  Al32  1  0.43972234  0.75866778  0.85687752  1
  Al  Al33  1  0.55764821  0.86885413  0.61256484  1
  Gd  Gd34  1  0.55911441  0.20737174  0.10817270  1
  Gd  Gd35  1  0.55911224  0.86684759  0.10817258  1
  N  N36  1  0.22138093  0.20598012  0.34628998  1
  N  N37  1  0.11029650  0.09567873  0.09249590  1
  N  N38  1  0.89054254  0.20900509  0.83856484  1
  N  N39  1  0.78331599  0.09316191  0.59678176  1
  N  N40  1  0.55628403  0.20540450  0.37098140  1
  N  N41  1  0.41230566  0.11050581  0.07329338  1
  N  N42  1  0.21328239  0.21002919  0.83245609  1
  N  N43  1  0.10861401  0.09470052  0.58750492  1
  N  N44  1  0.88859582  0.20630632  0.34113892  1
  N  N45  1  0.81258598  0.07516848  0.08247423  1
  N  N46  1  0.55939085  0.20603844  0.83477881  1
  N  N47  1  0.43884547  0.09723810  0.60412581  1
  N  N48  1  0.22202470  0.53831160  0.34179728  1
  N  N49  1  0.11029807  0.42735272  0.09249428  1
  N  N50  1  0.89054359  0.53379664  0.83856438  1
  N  N51  1  0.77695727  0.42818752  0.58665049  1
  N  N52  1  0.55331725  0.54001070  0.34444719  1
  N  N53  1  0.42718267  0.45508549  0.08213241  1
  N  N54  1  0.21727999  0.54033887  0.83828855  1
  N  N55  1  0.10861564  0.43001297  0.58750657  1
  N  N56  1  0.88859797  0.53844148  0.34113932  1
  N  N57  1  0.77402915  0.42965123  0.09388810  1
  N  N58  1  0.55896401  0.53718548  0.83600708  1
  N  N59  1  0.43989834  0.43305600  0.59795228  1
  N  N60  1  0.22202433  0.87300444  0.34179663  1
  N  N61  1  0.11391115  0.75970808  0.09188755  1
  N  N62  1  0.89528821  0.86902686  0.83164638  1
  N  N63  1  0.78331507  0.75685329  0.59678005  1
  N  N64  1  0.55628215  0.87164548  0.37098167  1
  N  N65  1  0.42717920  0.75105209  0.08212685  1
  N  N66  1  0.21727685  0.87572416  0.83828865  1
  N  N67  1  0.11388079  0.75972297  0.58769371  1
  N  N68  1  0.89125287  0.87104543  0.34755827  1
  N  N69  1  0.81258435  0.74557591  0.08247640  1
  N  N70  1  0.55939068  0.86790432  0.83477867  1
  N  N71  1  0.43989571  0.76036880  0.59795582  1
