# generated using pymatgen
data_GdAl17N18
_symmetry_space_group_name_H-M   'P 1'
_cell_length_a   10.06599634
_cell_length_b   10.01437687
_cell_length_c   8.61496233
_cell_angle_alpha   90.00002026
_cell_angle_beta   90.01423789
_cell_angle_gamma   60.16942133
_symmetry_Int_Tables_number   1
_chemical_formula_structural   GdAl17N18
_chemical_formula_sum   'Gd2 Al34 N36'
_cell_volume   753.36180050
_cell_formula_units_Z   2
loop_
 _symmetry_equiv_pos_site_id
 _symmetry_equiv_pos_as_xyz
  1  'x, y, z'
loop_
 _atom_site_type_symbol
 _atom_site_label
 _atom_site_symmetry_multiplicity
 _atom_site_fract_x
 _atom_site_fract_y
 _atom_site_fract_z
 _atom_site_occupancy
  Al  Al0  1  0.10948587  0.09605774  0.34966876  1
  Al  Al1  1  0.21038034  0.21147685  0.09478886  1
  Al  Al2  1  0.78593526  0.09074563  0.83943697  1
  Al  Al3  1  0.89006409  0.20791867  0.59890331  1
  Al  Al4  1  0.43531517  0.09900490  0.36352584  1
  Al  Al5  1  0.10996041  0.09458326  0.84636663  1
  Al  Al6  1  0.21485950  0.20923749  0.59841407  1
  Al  Al7  1  0.78737266  0.08959654  0.35947161  1
  Al  Al8  1  0.89426849  0.20451132  0.09842765  1
  Al  Al9  1  0.43843733  0.09744466  0.82872709  1
  Al  Al10  1  0.55747110  0.20678745  0.60095180  1
  Al  Al11  1  0.10948759  0.42779004  0.34966977  1
  Al  Al12  1  0.21688238  0.54331246  0.09877413  1
  Al  Al13  1  0.77638308  0.42847952  0.84855683  1
  Al  Al14  1  0.89006428  0.53535836  0.59890367  1
  Al  Al15  1  0.43958736  0.43461491  0.35915733  1
  Al  Al16  1  0.55077334  0.54127688  0.09886714  1
  Al  Al17  1  0.10996230  0.42879067  0.84636634  1
  Al  Al18  1  0.21854742  0.54027583  0.59841181  1
  Al  Al19  1  0.77660443  0.42836853  0.34976859  1
  Al  Al20  1  0.89427071  0.53456085  0.09842817  1
  Al  Al21  1  0.43923412  0.43431084  0.83905100  1
  Al  Al22  1  0.55687106  0.53822876  0.59900085  1
  Al  Al23  1  0.11192490  0.76070390  0.35060459  1
  Al  Al24  1  0.21687887  0.87313995  0.09877338  1
  Al  Al25  1  0.78593414  0.75665835  0.83943834  1
  Al  Al26  1  0.89436774  0.86948571  0.60028123  1
  Al  Al27  1  0.43958274  0.75912610  0.35915765  1
  Al  Al28  1  0.11358943  0.75987192  0.84560412  1
  Al  Al29  1  0.21854322  0.87451140  0.59841108  1
  Al  Al30  1  0.78737076  0.75636993  0.35947175  1
  Al  Al31  1  0.90334768  0.86499613  0.09647810  1
  Al  Al32  1  0.43923024  0.75978451  0.83904684  1
  Al  Al33  1  0.55746973  0.86907001  0.60095162  1
  Gd  Gd34  1  0.55934736  0.20734588  0.10330556  1
  Gd  Gd35  1  0.55934508  0.86662751  0.10330549  1
  N  N36  1  0.21405403  0.20963958  0.36908595  1
  N  N37  1  0.11012620  0.09547167  0.10955165  1
  N  N38  1  0.88926537  0.20728604  0.85864587  1
  N  N39  1  0.78343235  0.09287256  0.60767531  1
  N  N40  1  0.55889118  0.20618320  0.37410570  1
  N  N41  1  0.41356819  0.10987610  0.12543852  1
  N  N42  1  0.22036464  0.20648469  0.85593081  1
  N  N43  1  0.10873484  0.09485116  0.61261244  1
  N  N44  1  0.89004043  0.20815041  0.36260349  1
  N  N45  1  0.81130258  0.07617853  0.11318935  1
  N  N46  1  0.55668798  0.20526979  0.83533348  1
  N  N47  1  0.43833371  0.09749749  0.60298628  1
  N  N48  1  0.21862414  0.53956563  0.36328419  1
  N  N49  1  0.11012809  0.42773648  0.10955214  1
  N  N50  1  0.88926755  0.53678791  0.85864577  1
  N  N51  1  0.77661605  0.42836314  0.61163381  1
  N  N52  1  0.55719550  0.53806579  0.36458911  1
  N  N53  1  0.42764369  0.45422316  0.11375224  1
  N  N54  1  0.22066220  0.53905967  0.85799361  1
  N  N55  1  0.10873574  0.42974902  0.61261139  1
  N  N56  1  0.89004193  0.53514885  0.36260301  1
  N  N57  1  0.77434630  0.42949886  0.10888241  1
  N  N58  1  0.55493696  0.53919648  0.85582385  1
  N  N59  1  0.43998239  0.43308011  0.60692921  1
  N  N60  1  0.21861948  0.87514581  0.36328579  1
  N  N61  1  0.11433358  0.75949942  0.11041904  1
  N  N62  1  0.89293287  0.87020280  0.85305359  1
  N  N63  1  0.78343060  0.75703662  0.60767591  1
  N  N64  1  0.55888988  0.86825149  0.37410603  1
  N  N65  1  0.42763727  0.75145883  0.11375742  1
  N  N66  1  0.22065934  0.87361313  0.85799367  1
  N  N67  1  0.11372243  0.75980463  0.61123443  1
  N  N68  1  0.89405030  0.86964332  0.36851465  1
  N  N69  1  0.81130019  0.74586145  0.11318760  1
  N  N70  1  0.55668568  0.87136901  0.83533331  1
  N  N71  1  0.43997889  0.76026724  0.60692801  1
