# generated using pymatgen
data_GdAl17N18
_symmetry_space_group_name_H-M   'P 1'
_cell_length_a   9.53436802
_cell_length_b   9.51147698
_cell_length_c   10.08811418
_cell_angle_alpha   90.00079437
_cell_angle_beta   90.07735240
_cell_angle_gamma   60.10729486
_symmetry_Int_Tables_number   1
_chemical_formula_structural   GdAl17N18
_chemical_formula_sum   'Gd2 Al34 N36'
_cell_volume   793.13753915
_cell_formula_units_Z   2
loop_
 _symmetry_equiv_pos_site_id
 _symmetry_equiv_pos_as_xyz
  1  'x, y, z'
loop_
 _atom_site_type_symbol
 _atom_site_label
 _atom_site_symmetry_multiplicity
 _atom_site_fract_x
 _atom_site_fract_y
 _atom_site_fract_z
 _atom_site_occupancy
  Al  Al0  1  0.11048818  0.09443224  0.38274875  1
  Al  Al1  1  0.21420994  0.20958232  0.13330330  1
  Al  Al2  1  0.78688354  0.09008921  0.87720077  1
  Al  Al3  1  0.89025684  0.20697733  0.63378258  1
  Al  Al4  1  0.44111924  0.09609858  0.40081752  1
  Al  Al5  1  0.11042347  0.09559198  0.88400573  1
  Al  Al6  1  0.21664319  0.20835278  0.63390238  1
  Al  Al7  1  0.78017745  0.09312117  0.39217918  1
  Al  Al8  1  0.89464911  0.20345485  0.13249765  1
  Al  Al9  1  0.43776127  0.09780041  0.87074383  1
  Al  Al10  1  0.55686736  0.20694816  0.63465102  1
  Al  Al11  1  0.11048369  0.42839169  0.38275039  1
  Al  Al12  1  0.21769791  0.54365698  0.13210513  1
  Al  Al13  1  0.77745838  0.42791188  0.88319483  1
  Al  Al14  1  0.89025562  0.53608522  0.63377919  1
  Al  Al15  1  0.44140802  0.43114970  0.39241627  1
  Al  Al16  1  0.54899701  0.54220044  0.13181885  1
  Al  Al17  1  0.11041265  0.42731360  0.88400365  1
  Al  Al18  1  0.21911955  0.54055716  0.63391981  1
  Al  Al19  1  0.77635797  0.42846362  0.38204839  1
  Al  Al20  1  0.89462636  0.53518985  0.13250351  1
  Al  Al21  1  0.44050012  0.43400904  0.87756806  1
  Al  Al22  1  0.55683583  0.53825863  0.63481625  1
  Al  Al23  1  0.11131241  0.76100224  0.38274769  1
  Al  Al24  1  0.21773393  0.87199593  0.13210815  1
  Al  Al25  1  0.78689451  0.75630275  0.87720141  1
  Al  Al26  1  0.89263557  0.87034554  0.63400011  1
  Al  Al27  1  0.44141806  0.76075862  0.39240970  1
  Al  Al28  1  0.11142150  0.76095440  0.88451157  1
  Al  Al29  1  0.21913316  0.87366693  0.63392553  1
  Al  Al30  1  0.78018257  0.75998815  0.39218368  1
  Al  Al31  1  0.90167445  0.86581293  0.13168751  1
  Al  Al32  1  0.44053022  0.75882773  0.87758108  1
  Al  Al33  1  0.55687141  0.86953773  0.63465641  1
  Gd  Gd34  1  0.55823904  0.20817054  0.13120886  1
  Gd  Gd35  1  0.55826291  0.86709463  0.13120999  1
  N  N36  1  0.22371376  0.20483165  0.32647226  1
  N  N37  1  0.11133770  0.09483701  0.07581975  1
  N  N38  1  0.89062799  0.20795421  0.82295784  1
  N  N39  1  0.78124776  0.09311920  0.58096868  1
  N  N40  1  0.55448985  0.20553346  0.35501856  1
  N  N41  1  0.41382177  0.10979042  0.05422717  1
  N  N42  1  0.21499703  0.20919843  0.82069658  1
  N  N43  1  0.11008698  0.09463021  0.57269024  1
  N  N44  1  0.88732711  0.20552985  0.32454154  1
  N  N45  1  0.81191875  0.07659450  0.06350471  1
  N  N46  1  0.55862987  0.20641764  0.82852029  1
  N  N47  1  0.44104213  0.09611925  0.58943780  1
  N  N48  1  0.22271371  0.53836885  0.32476509  1
  N  N49  1  0.11131606  0.42712127  0.07581992  1
  N  N50  1  0.89062374  0.53476625  0.82294975  1
  N  N51  1  0.77696038  0.42814349  0.57272846  1
  N  N52  1  0.55295580  0.54020855  0.32533457  1
  N  N53  1  0.42711355  0.45542800  0.06392768  1
  N  N54  1  0.21845573  0.54021833  0.82314308  1
  N  N55  1  0.11008545  0.42856122  0.57268881  1
  N  N56  1  0.88732563  0.54048805  0.32454973  1
  N  N57  1  0.77478487  0.42920257  0.07623885  1
  N  N58  1  0.55825180  0.53757865  0.82227645  1
  N  N59  1  0.44165970  0.43148302  0.58131651  1
  N  N60  1  0.22272466  0.87229020  0.32476293  1
  N  N61  1  0.11398307  0.75966525  0.07481195  1
  N  N62  1  0.89362549  0.86986515  0.82061619  1
  N  N63  1  0.78125188  0.75888402  0.58097147  1
  N  N64  1  0.55449747  0.87335763  0.35501934  1
  N  N65  1  0.42718448  0.75080011  0.06396114  1
  N  N66  1  0.21848319  0.87470447  0.82315579  1
  N  N67  1  0.11151622  0.76088684  0.57254823  1
  N  N68  1  0.88742831  0.87295877  0.32562567  1
  N  N69  1  0.81194259  0.74467748  0.06350268  1
  N  N70  1  0.55863559  0.86836783  0.82852994  1
  N  N71  1  0.44166963  0.76013697  0.58131549  1
