# generated using pymatgen
data_GdAl17N18
_symmetry_space_group_name_H-M   'P 1'
_cell_length_a   10.03376453
_cell_length_b   9.98244961
_cell_length_c   8.70871807
_cell_angle_alpha   89.99995154
_cell_angle_beta   90.01024720
_cell_angle_gamma   60.17003559
_symmetry_Int_Tables_number   1
_chemical_formula_structural   GdAl17N18
_chemical_formula_sum   'Gd2 Al34 N36'
_cell_volume   756.70648341
_cell_formula_units_Z   2
loop_
 _symmetry_equiv_pos_site_id
 _symmetry_equiv_pos_as_xyz
  1  'x, y, z'
loop_
 _atom_site_type_symbol
 _atom_site_label
 _atom_site_symmetry_multiplicity
 _atom_site_fract_x
 _atom_site_fract_y
 _atom_site_fract_z
 _atom_site_occupancy
  Al  Al0  1  0.10973368  0.09442750  0.36574457  1
  Al  Al1  1  0.21058031  0.21137695  0.11823781  1
  Al  Al2  1  0.78800865  0.08904029  0.85266182  1
  Al  Al3  1  0.89013406  0.20822170  0.61424828  1
  Al  Al4  1  0.43853344  0.09739614  0.38160821  1
  Al  Al5  1  0.10966032  0.09624717  0.86355252  1
  Al  Al6  1  0.21475221  0.20929114  0.61264810  1
  Al  Al7  1  0.78512298  0.09141481  0.37399135  1
  Al  Al8  1  0.89426181  0.20409756  0.11421805  1
  Al  Al9  1  0.43563801  0.09884325  0.84649355  1
  Al  Al10  1  0.55738896  0.20669611  0.60955800  1
  Al  Al11  1  0.10973528  0.42917217  0.36574541  1
  Al  Al12  1  0.21717988  0.54312845  0.11393997  1
  Al  Al13  1  0.77659833  0.42837090  0.86424261  1
  Al  Al14  1  0.89013479  0.53498622  0.61424807  1
  Al  Al15  1  0.43929879  0.43398609  0.37423547  1
  Al  Al16  1  0.55007595  0.54162647  0.11431912  1
  Al  Al17  1  0.10966224  0.42742546  0.86355088  1
  Al  Al18  1  0.21810317  0.54061373  0.61458407  1
  Al  Al19  1  0.77639751  0.42847170  0.36313837  1
  Al  Al20  1  0.89426402  0.53498210  0.11421735  1
  Al  Al21  1  0.43957470  0.43481649  0.85275276  1
  Al  Al22  1  0.55736047  0.53798455  0.61375041  1
  Al  Al23  1  0.11395932  0.75968606  0.36640413  1
  Al  Al24  1  0.21717632  0.87302738  0.11394043  1
  Al  Al25  1  0.78800648  0.75629031  0.85266234  1
  Al  Al26  1  0.89476819  0.86928540  0.61175977  1
  Al  Al27  1  0.43929527  0.76004349  0.37424076  1
  Al  Al28  1  0.11144923  0.76094111  0.86371775  1
  Al  Al29  1  0.21809873  0.87461980  0.61458490  1
  Al  Al30  1  0.78512185  0.75680116  0.37398918  1
  Al  Al31  1  0.90305808  0.86514134  0.11762451  1
  Al  Al32  1  0.43957007  0.75893606  0.85275154  1
  Al  Al33  1  0.55738794  0.86924417  0.60955836  1
  Gd  Gd34  1  0.55952691  0.20745435  0.10645566  1
  Gd  Gd35  1  0.55952400  0.86634171  0.10645575  1
  N  N36  1  0.22024583  0.20654484  0.35071462  1
  N  N37  1  0.11018300  0.09556937  0.09637849  1
  N  N38  1  0.89026611  0.20863874  0.84297125  1
  N  N39  1  0.78332100  0.09305952  0.59971914  1
  N  N40  1  0.55662492  0.20548336  0.37279435  1
  N  N41  1  0.41331512  0.11000176  0.08171522  1
  N  N42  1  0.21434185  0.20949641  0.83703541  1
  N  N43  1  0.10864816  0.09481092  0.59287439  1
  N  N44  1  0.88893853  0.20678669  0.34634798  1
  N  N45  1  0.81198211  0.07563038  0.08946564  1
  N  N46  1  0.55893303  0.20594760  0.83493050  1
  N  N47  1  0.43857894  0.09737391  0.60477507  1
  N  N48  1  0.22128819  0.53863460  0.34707829  1
  N  N49  1  0.11018525  0.42757989  0.09637753  1
  N  N50  1  0.89026719  0.53443691  0.84297183  1
  N  N51  1  0.77673709  0.42830183  0.59246017  1
  N  N52  1  0.55407866  0.53962674  0.34945851  1
  N  N53  1  0.42741840  0.45459923  0.08916023  1
  N  N54  1  0.21794787  0.54002571  0.84245800  1
  N  N55  1  0.10864963  0.42987389  0.59287600  1
  N  N56  1  0.88894071  0.53761556  0.34634810  1
  N  N57  1  0.77416722  0.42958728  0.09759785  1
  N  N58  1  0.55805896  0.53763469  0.84061152  1
  N  N59  1  0.43991525  0.43304943  0.60064896  1
  N  N60  1  0.22128598  0.87341305  0.34707796  1
  N  N61  1  0.11413805  0.75959624  0.09583497  1
  N  N62  1  0.89475672  0.86929099  0.83620927  1
  N  N63  1  0.78331938  0.75695887  0.59971790  1
  N  N64  1  0.55662247  0.87121996  0.37279462  1
  N  N65  1  0.42741173  0.75130634  0.08915331  1
  N  N66  1  0.21794283  0.87536407  0.84245663  1
  N  N67  1  0.11382605  0.75975228  0.59310423  1
  N  N68  1  0.89207160  0.87063452  0.35241820  1
  N  N69  1  0.81197929  0.74572833  0.08946829  1
  N  N70  1  0.55893198  0.86844676  0.83493021  1
  N  N71  1  0.43991166  0.76036356  0.60065125  1
