# generated using pymatgen
data_GdAl17N18
_symmetry_space_group_name_H-M   'P 1'
_cell_length_a   10.08114909
_cell_length_b   10.02844071
_cell_length_c   8.57258689
_cell_angle_alpha   89.99995932
_cell_angle_beta   90.00876627
_cell_angle_gamma   60.17122165
_symmetry_Int_Tables_number   1
_chemical_formula_structural   GdAl17N18
_chemical_formula_sum   'Gd2 Al34 N36'
_cell_volume   751.85257922
_cell_formula_units_Z   2
loop_
 _symmetry_equiv_pos_site_id
 _symmetry_equiv_pos_as_xyz
  1  'x, y, z'
loop_
 _atom_site_type_symbol
 _atom_site_label
 _atom_site_symmetry_multiplicity
 _atom_site_fract_x
 _atom_site_fract_y
 _atom_site_fract_z
 _atom_site_occupancy
  Al  Al0  1  0.10964769  0.09490610  0.36126326  1
  Al  Al1  1  0.20975047  0.21179046  0.11101925  1
  Al  Al2  1  0.78753152  0.08943671  0.84843029  1
  Al  Al3  1  0.88986925  0.20801046  0.60868932  1
  Al  Al4  1  0.43757826  0.09787409  0.37399179  1
  Al  Al5  1  0.10970029  0.09575755  0.85659383  1
  Al  Al6  1  0.21567285  0.20882973  0.60799728  1
  Al  Al7  1  0.78602542  0.09072085  0.36850965  1
  Al  Al8  1  0.89443219  0.20448996  0.10868116  1
  Al  Al9  1  0.43625846  0.09853345  0.84336119  1
  Al  Al10  1  0.55707038  0.20654937  0.60660708  1
  Al  Al11  1  0.10964992  0.42878125  0.36126287  1
  Al  Al12  1  0.21676992  0.54325337  0.10865845  1
  Al  Al13  1  0.77649508  0.42842497  0.85754331  1
  Al  Al14  1  0.88986957  0.53546190  0.60868866  1
  Al  Al15  1  0.43925346  0.43437675  0.36834969  1
  Al  Al16  1  0.55078211  0.54127099  0.10856727  1
  Al  Al17  1  0.10970239  0.42787696  0.85659307  1
  Al  Al18  1  0.21864423  0.54032627  0.60889346  1
  Al  Al19  1  0.77632521  0.42851017  0.35908514  1
  Al  Al20  1  0.89443497  0.53441959  0.10868038  1
  Al  Al21  1  0.43932387  0.43477932  0.84851045  1
  Al  Al22  1  0.55673013  0.53829833  0.60848911  1
  Al  Al23  1  0.11342941  0.75995213  0.36188306  1
  Al  Al24  1  0.21676447  0.87330984  0.10865953  1
  Al  Al25  1  0.78752894  0.75637464  0.84842998  1
  Al  Al26  1  0.89436276  0.86948816  0.60774696  1
  Al  Al27  1  0.43924847  0.75970019  0.36835457  1
  Al  Al28  1  0.11211175  0.76061068  0.85676235  1
  Al  Al29  1  0.21863916  0.87436219  0.60889460  1
  Al  Al30  1  0.78602405  0.75659649  0.36850754  1
  Al  Al31  1  0.90345248  0.86494411  0.11111665  1
  Al  Al32  1  0.43931782  0.75922617  0.84851071  1
  Al  Al33  1  0.55706867  0.86970709  0.60660731  1
  Gd  Gd34  1  0.55998217  0.20763326  0.10519822  1
  Gd  Gd35  1  0.55997926  0.86569892  0.10519837  1
  N  N36  1  0.21838356  0.20747359  0.35611893  1
  N  N37  1  0.11005302  0.09538782  0.10095311  1
  N  N38  1  0.88993550  0.20820709  0.84820296  1
  N  N39  1  0.78338760  0.09284431  0.60256742  1
  N  N40  1  0.55717831  0.20567398  0.37383480  1
  N  N41  1  0.41438869  0.10946552  0.09470645  1
  N  N42  1  0.21601953  0.20865535  0.84348989  1
  N  N43  1  0.10870652  0.09493484  0.59954794  1
  N  N44  1  0.88929462  0.20734291  0.35232876  1
  N  N45  1  0.81150440  0.07610464  0.09761775  1
  N  N46  1  0.55820988  0.20577737  0.83493879  1
  N  N47  1  0.43827525  0.09752787  0.60460181  1
  N  N48  1  0.22037633  0.53899899  0.35311360  1
  N  N49  1  0.11005552  0.42789517  0.10095295  1
  N  N50  1  0.88993703  0.53519697  0.84820413  1
  N  N51  1  0.77647619  0.42843563  0.59935922  1
  N  N52  1  0.55507855  0.53912406  0.35481550  1
  N  N53  1  0.42755681  0.45428859  0.09759524  1
  N  N54  1  0.21880734  0.53968894  0.84747540  1
  N  N55  1  0.10870750  0.42969591  0.59954910  1
  N  N56  1  0.88929703  0.53670112  0.35232870  1
  N  N57  1  0.77432014  0.42951503  0.10166416  1
  N  N58  1  0.55695766  0.53818301  0.84614410  1
  N  N59  1  0.43995524  0.43309441  0.60307250  1
  N  N60  1  0.22037229  0.87395692  0.35311375  1
  N  N61  1  0.11441735  0.75945792  0.10065053  1
  N  N62  1  0.89417202  0.86958192  0.84215397  1
  N  N63  1  0.78338541  0.75711437  0.60256668  1
  N  N64  1  0.55717551  0.87047126  0.37383508  1
  N  N65  1  0.42754808  0.75148143  0.09758912  1
  N  N66  1  0.21880110  0.87483686  0.84747300  1
  N  N67  1  0.11364638  0.75984327  0.59945083  1
  N  N68  1  0.89290526  0.87021634  0.35743305  1
  N  N69  1  0.81150108  0.74573952  0.09762050  1
  N  N70  1  0.55820801  0.86933561  0.83493849  1
  N  N71  1  0.43995096  0.76028251  0.60307358  1
