# generated using pymatgen
data_GdAl17N18
_symmetry_space_group_name_H-M   'P 1'
_cell_length_a   9.67676950
_cell_length_b   9.64072999
_cell_length_c   9.72287616
_cell_angle_alpha   89.99989941
_cell_angle_beta   89.95498980
_cell_angle_gamma   60.15089006
_symmetry_Int_Tables_number   1
_chemical_formula_structural   GdAl17N18
_chemical_formula_sum   'Gd2 Al34 N36'
_cell_volume   786.72662606
_cell_formula_units_Z   2
loop_
 _symmetry_equiv_pos_site_id
 _symmetry_equiv_pos_as_xyz
  1  'x, y, z'
loop_
 _atom_site_type_symbol
 _atom_site_label
 _atom_site_symmetry_multiplicity
 _atom_site_fract_x
 _atom_site_fract_y
 _atom_site_fract_z
 _atom_site_occupancy
  Al  Al0  1  0.10991931  0.09627305  0.32680678  1
  Al  Al1  1  0.21348521  0.20994074  0.07690457  1
  Al  Al2  1  0.78108150  0.09295932  0.81983331  1
  Al  Al3  1  0.89042545  0.20763673  0.57791747  1
  Al  Al4  1  0.43599238  0.09866876  0.34615828  1
  Al  Al5  1  0.11028116  0.09417161  0.82925346  1
  Al  Al6  1  0.21457429  0.20939055  0.57925194  1
  Al  Al7  1  0.78866383  0.08909074  0.33605568  1
  Al  Al8  1  0.89426272  0.20326925  0.07876055  1
  Al  Al9  1  0.44115836  0.09607665  0.81081515  1
  Al  Al10  1  0.55770834  0.20707891  0.57934161  1
  Al  Al11  1  0.10991540  0.42713087  0.32681142  1
  Al  Al12  1  0.21781010  0.54346748  0.07917121  1
  Al  Al13  1  0.77638311  0.42846057  0.83048115  1
  Al  Al14  1  0.89042576  0.53527729  0.57792053  1
  Al  Al15  1  0.43986320  0.43508860  0.33598643  1
  Al  Al16  1  0.54832051  0.54252383  0.07876673  1
  Al  Al17  1  0.11027879  0.42886306  0.82925041  1
  Al  Al18  1  0.21829589  0.54078920  0.57762836  1
  Al  Al19  1  0.77721930  0.42803942  0.32723600  1
  Al  Al20  1  0.89425502  0.53579054  0.07875737  1
  Al  Al21  1  0.44109024  0.43130457  0.81928224  1
  Al  Al22  1  0.55757574  0.53788809  0.57759344  1
  Al  Al23  1  0.11118596  0.76106832  0.32637830  1
  Al  Al24  1  0.21782928  0.87207837  0.07917342  1
  Al  Al25  1  0.78108434  0.75926237  0.81983273  1
  Al  Al26  1  0.89388029  0.86973108  0.57915018  1
  Al  Al27  1  0.43987956  0.75836562  0.33598652  1
  Al  Al28  1  0.11259020  0.76036423  0.82885538  1
  Al  Al29  1  0.21830110  0.87426953  0.57762359  1
  Al  Al30  1  0.78867020  0.75553504  0.33605436  1
  Al  Al31  1  0.90219435  0.86556635  0.07815768  1
  Al  Al32  1  0.44109502  0.76092010  0.81928243  1
  Al  Al33  1  0.55771211  0.86856583  0.57933816  1
  Gd  Gd34  1  0.55799384  0.20748808  0.08735971  1
  Gd  Gd35  1  0.55800676  0.86794527  0.08736066  1
  N  N36  1  0.21278724  0.21029985  0.38674120  1
  N  N37  1  0.11077191  0.09529798  0.12903090  1
  N  N38  1  0.88769291  0.20561677  0.88112037  1
  N  N39  1  0.78204928  0.09313031  0.62467917  1
  N  N40  1  0.55953943  0.20641834  0.37740358  1
  N  N41  1  0.41080339  0.11126225  0.15404692  1
  N  N42  1  0.22364971  0.20486465  0.87788361  1
  N  N43  1  0.10936859  0.09459368  0.63382674  1
  N  N44  1  0.89082051  0.20862398  0.38278283  1
  N  N45  1  0.81353086  0.07520159  0.14222229  1
  N  N46  1  0.55515060  0.20518691  0.85212141  1
  N  N47  1  0.44054045  0.09637231  0.61455375  1
  N  N48  1  0.21755452  0.54041117  0.38257265  1
  N  N49  1  0.11076483  0.42722598  0.12903282  1
  N  N50  1  0.88769384  0.54005225  0.88111542  1
  N  N51  1  0.77704835  0.42811185  0.63404416  1
  N  N52  1  0.55900668  0.53718976  0.38417670  1
  N  N53  1  0.42641729  0.45641094  0.14195132  1
  N  N54  1  0.22295795  0.53812827  0.88076043  1
  N  N55  1  0.10936956  0.42932698  0.63382670  1
  N  N56  1  0.89082076  0.53391460  0.38278978  1
  N  N57  1  0.77416712  0.42953683  0.12854685  1
  N  N58  1  0.55281590  0.54028036  0.87947809  1
  N  N59  1  0.44108375  0.43189728  0.62385781  1
  N  N60  1  0.21756871  0.87541366  0.38256396  1
  N  N61  1  0.11394411  0.75968098  0.13000529  1
  N  N62  1  0.88886468  0.87224910  0.87846642  1
  N  N63  1  0.78205226  0.75809361  0.62468013  1
  N  N64  1  0.55954412  0.86742877  0.37739943  1
  N  N65  1  0.42645174  0.75047608  0.14193856  1
  N  N66  1  0.22296653  0.87228939  0.88076426  1
  N  N67  1  0.11249426  0.76040165  0.63363501  1
  N  N68  1  0.89488607  0.86923819  0.38666215  1
  N  N69  1  0.81354392  0.74450434  0.14222242  1
  N  N70  1  0.55515406  0.87303840  0.85212196  1
  N  N71  1  0.44108825  0.76030444  0.62385417  1
