# generated using pymatgen
data_GdAl17N18
_symmetry_space_group_name_H-M   'P 1'
_cell_length_a   9.51116037
_cell_length_b   9.49323366
_cell_length_c   10.14334088
_cell_angle_alpha   90.00000054
_cell_angle_beta   90.08943942
_cell_angle_gamma   60.06233044
_symmetry_Int_Tables_number   1
_chemical_formula_structural   GdAl17N18
_chemical_formula_sum   'Gd2 Al34 N36'
_cell_volume   793.65371493
_cell_formula_units_Z   2
loop_
 _symmetry_equiv_pos_site_id
 _symmetry_equiv_pos_as_xyz
  1  'x, y, z'
loop_
 _atom_site_type_symbol
 _atom_site_label
 _atom_site_symmetry_multiplicity
 _atom_site_fract_x
 _atom_site_fract_y
 _atom_site_fract_z
 _atom_site_occupancy
  Al  Al0  1  0.11047207  0.09452008  0.41246925  1
  Al  Al1  1  0.21463147  0.20935092  0.16264724  1
  Al  Al2  1  0.78612401  0.09055822  0.90714927  1
  Al  Al3  1  0.89021923  0.20694257  0.66364298  1
  Al  Al4  1  0.44072003  0.09630664  0.43128794  1
  Al  Al5  1  0.11048554  0.09545361  0.91362741  1
  Al  Al6  1  0.21678035  0.20827648  0.66419827  1
  Al  Al7  1  0.78015990  0.09312245  0.42244479  1
  Al  Al8  1  0.89467925  0.20349271  0.16209856  1
  Al  Al9  1  0.43841954  0.09745690  0.90134248  1
  Al  Al10  1  0.55657812  0.20705323  0.66437129  1
  Al  Al11  1  0.11047206  0.42834115  0.41246924  1
  Al  Al12  1  0.21774460  0.54368351  0.16165216  1
  Al  Al13  1  0.77755802  0.42788765  0.91281803  1
  Al  Al14  1  0.89021922  0.53617151  0.66364298  1
  Al  Al15  1  0.44118937  0.43155007  0.42259387  1
  Al  Al16  1  0.54916170  0.54208582  0.16115047  1
  Al  Al17  1  0.11048553  0.42739417  0.91362742  1
  Al  Al18  1  0.21902573  0.54068298  0.66372814  1
  Al  Al19  1  0.77626448  0.42853441  0.41185193  1
  Al  Al20  1  0.89467925  0.53516139  0.16209857  1
  Al  Al21  1  0.44072877  0.43357428  0.90749471  1
  Al  Al22  1  0.55671448  0.53830944  0.66494907  1
  Al  Al23  1  0.11087343  0.76122994  0.41233726  1
  Al  Al24  1  0.21774460  0.87190522  0.16165217  1
  Al  Al25  1  0.78612402  0.75665109  0.90714927  1
  Al  Al26  1  0.89238290  0.87047522  0.66425149  1
  Al  Al27  1  0.44118939  0.76059388  0.42259386  1
  Al  Al28  1  0.11131541  0.76100896  0.91410973  1
  Al  Al29  1  0.21902575  0.87362458  0.66372814  1
  Al  Al30  1  0.78015991  0.76005096  0.42244479  1
  Al  Al31  1  0.90117984  0.86607675  0.16097503  1
  Al  Al32  1  0.44072878  0.75903031  0.90749471  1
  Al  Al33  1  0.55657812  0.86970199  0.66437129  1
  Gd  Gd34  1  0.55819442  0.20839196  0.16328022  1
  Gd  Gd35  1  0.55819441  0.86674699  0.16328021  1
  N  N36  1  0.22371319  0.20481005  0.35518020  1
  N  N37  1  0.11154212  0.09471160  0.10466245  1
  N  N38  1  0.89050909  0.20787007  0.85203076  1
  N  N39  1  0.78130839  0.09308063  0.61025029  1
  N  N40  1  0.55417718  0.20574161  0.38565739  1
  N  N41  1  0.41521732  0.10905803  0.08394821  1
  N  N42  1  0.21539350  0.20896992  0.85026630  1
  N  N43  1  0.11019692  0.09470238  0.60178823  1
  N  N44  1  0.88709970  0.20552853  0.35349483  1
  N  N45  1  0.81104661  0.07727329  0.09255455  1
  N  N46  1  0.55831775  0.20646382  0.85709250  1
  N  N47  1  0.44080885  0.09626224  0.61862887  1
  N  N48  1  0.22256895  0.53846806  0.35365145  1
  N  N49  1  0.11154211  0.42707960  0.10466245  1
  N  N50  1  0.89050908  0.53495416  0.85203075  1
  N  N51  1  0.77690611  0.42821359  0.60185029  1
  N  N52  1  0.55280520  0.54026407  0.35410982  1
  N  N53  1  0.42749133  0.45488787  0.09289793  1
  N  N54  1  0.21847986  0.54025574  0.85217169  1
  N  N55  1  0.11019692  0.42843399  0.60178823  1
  N  N56  1  0.88709969  0.54070510  0.35349484  1
  N  N57  1  0.77505735  0.42913799  0.10513163  1
  N  N58  1  0.55815226  0.53759054  0.85155463  1
  N  N59  1  0.44154166  0.43179774  0.61050261  1
  N  N60  1  0.22256897  0.87229628  0.35365145  1
  N  N61  1  0.11380798  0.75976268  0.10363593  1
  N  N62  1  0.89314661  0.87009336  0.85005923  1
  N  N63  1  0.78130840  0.75894430  0.61025029  1
  N  N64  1  0.55417719  0.87341453  0.38565738  1
  N  N65  1  0.42749135  0.75095415  0.09289793  1
  N  N66  1  0.21847988  0.87459772  0.85217169  1
  N  N67  1  0.11117989  0.76107671  0.60152081  1
  N  N68  1  0.88679458  0.87326938  0.35432585  1
  N  N69  1  0.81104661  0.74501343  0.09255455  1
  N  N70  1  0.55831775  0.86855179  0.85709250  1
  N  N71  1  0.44154167  0.75999393  0.61050261  1
