# generated using pymatgen
data_GdAl17N18
_symmetry_space_group_name_H-M   'P 1'
_cell_length_a   9.72987647
_cell_length_b   9.69059144
_cell_length_c   9.57866080
_cell_angle_alpha   90.00003868
_cell_angle_beta   90.04342094
_cell_angle_gamma   60.15720944
_symmetry_Int_Tables_number   1
_chemical_formula_structural   GdAl17N18
_chemical_formula_sum   'Gd2 Al34 N36'
_cell_volume   783.39118410
_cell_formula_units_Z   2
loop_
 _symmetry_equiv_pos_site_id
 _symmetry_equiv_pos_as_xyz
  1  'x, y, z'
loop_
 _atom_site_type_symbol
 _atom_site_label
 _atom_site_symmetry_multiplicity
 _atom_site_fract_x
 _atom_site_fract_y
 _atom_site_fract_z
 _atom_site_occupancy
  Al  Al0  1  0.11014892  0.09410364  0.37844822  1
  Al  Al1  1  0.21336373  0.20999902  0.13142092  1
  Al  Al2  1  0.78892074  0.08889743  0.87079830  1
  Al  Al3  1  0.89047888  0.20794120  0.62989625  1
  Al  Al4  1  0.44080558  0.09625381  0.39722866  1
  Al  Al5  1  0.10982553  0.09645881  0.88111502  1
  Al  Al6  1  0.21400696  0.20967290  0.62811886  1
  Al  Al7  1  0.78163999  0.09282815  0.38823757  1
  Al  Al8  1  0.89420974  0.20315255  0.12901144  1
  Al  Al9  1  0.43579941  0.09876355  0.86008104  1
  Al  Al10  1  0.55782593  0.20710156  0.62687284  1
  Al  Al11  1  0.11014732  0.42906589  0.37845136  1
  Al  Al12  1  0.21793479  0.54329696  0.12859862  1
  Al  Al13  1  0.77714545  0.42808023  0.88100864  1
  Al  Al14  1  0.89047938  0.53492153  0.62989382  1
  Al  Al15  1  0.44072354  0.43174514  0.38884187  1
  Al  Al16  1  0.54812591  0.54261730  0.12918713  1
  Al  Al17  1  0.10982327  0.42703938  0.88111051  1
  Al  Al18  1  0.21789773  0.54097878  0.63021126  1
  Al  Al19  1  0.77636753  0.42847169  0.37679090  1
  Al  Al20  1  0.89420485  0.53596680  0.12901390  1
  Al  Al21  1  0.43981017  0.43517597  0.87076277  1
  Al  Al22  1  0.55788276  0.53773280  0.62998937  1
  Al  Al23  1  0.11297765  0.76017145  0.37876255  1
  Al  Al24  1  0.21794912  0.87212186  0.12859589  1
  Al  Al25  1  0.78892524  0.75548063  0.87079994  1
  Al  Al26  1  0.89436569  0.86948868  0.62809663  1
  Al  Al27  1  0.44072685  0.76084783  0.38884321  1
  Al  Al28  1  0.11105873  0.76113208  0.88164088  1
  Al  Al29  1  0.21790051  0.87447660  0.63021528  1
  Al  Al30  1  0.78164204  0.75884092  0.38823731  1
  Al  Al31  1  0.90217915  0.86557679  0.13018446  1
  Al  Al32  1  0.43982180  0.75833116  0.87075991  1
  Al  Al33  1  0.55782898  0.86842222  0.62687553  1
  Gd  Gd34  1  0.55815872  0.20739975  0.11895105  1
  Gd  Gd35  1  0.55816728  0.86784587  0.11894999  1
  N  N36  1  0.22343919  0.20496648  0.33330404  1
  N  N37  1  0.11070098  0.09542661  0.08180769  1
  N  N38  1  0.89086194  0.20888390  0.82785713  1
  N  N39  1  0.78245692  0.09310510  0.58623650  1
  N  N40  1  0.55533353  0.20520489  0.35928563  1
  N  N41  1  0.41069370  0.11131316  0.05656847  1
  N  N42  1  0.21244171  0.21046817  0.82344330  1
  N  N43  1  0.10913376  0.09460719  0.57656315  1
  N  N44  1  0.88777652  0.20562026  0.32946982  1
  N  N45  1  0.81372507  0.07493367  0.06833912  1
  N  N46  1  0.55972669  0.20636539  0.83248706  1
  N  N47  1  0.44015442  0.09656874  0.59661812  1
  N  N48  1  0.22297512  0.53803860  0.32989121  1
  N  N49  1  0.11069641  0.42717463  0.08180558  1
  N  N50  1  0.89086267  0.53361153  0.82785135  1
  N  N51  1  0.77706258  0.42811083  0.57603439  1
  N  N52  1  0.55265347  0.54035848  0.33146028  1
  N  N53  1  0.42640659  0.45639370  0.06853205  1
  N  N54  1  0.21722191  0.54053042  0.82803287  1
  N  N55  1  0.10913518  0.42955561  0.57656361  1
  N  N56  1  0.88777789  0.53996289  0.32947370  1
  N  N57  1  0.77404400  0.42960927  0.08252946  1
  N  N58  1  0.55931919  0.53702801  0.82619515  1
  N  N59  1  0.44073885  0.43226286  0.58720512  1
  N  N60  1  0.22298228  0.87235556  0.32988779  1
  N  N61  1  0.11390134  0.75970400  0.08100433  1
  N  N62  1  0.89525905  0.86905016  0.82333590  1
  N  N63  1  0.78245915  0.75772282  0.58623490  1
  N  N64  1  0.55533562  0.87282929  0.35928520  1
  N  N65  1  0.42643050  0.75050384  0.06853916  1
  N  N66  1  0.21723175  0.87562049  0.82803984  1
  N  N67  1  0.11280559  0.76024879  0.57664329  1
  N  N68  1  0.88915312  0.87210369  0.33285164  1
  N  N69  1  0.81373408  0.74460011  0.06833968  1
  N  N70  1  0.55973045  0.86728261  0.83248984  1
  N  N71  1  0.44074169  0.76029080  0.58720978  1
