# generated using pymatgen
data_GdAl17N18
_symmetry_space_group_name_H-M   'P 1'
_cell_length_a   9.78317794
_cell_length_b   9.74114976
_cell_length_c   9.43075493
_cell_angle_alpha   89.99998794
_cell_angle_beta   90.03780051
_cell_angle_gamma   60.16109461
_symmetry_Int_Tables_number   1
_chemical_formula_structural   GdAl17N18
_chemical_formula_sum   'Gd2 Al34 N36'
_cell_volume   779.59642786
_cell_formula_units_Z   2
loop_
 _symmetry_equiv_pos_site_id
 _symmetry_equiv_pos_as_xyz
  1  'x, y, z'
loop_
 _atom_site_type_symbol
 _atom_site_label
 _atom_site_symmetry_multiplicity
 _atom_site_fract_x
 _atom_site_fract_y
 _atom_site_fract_z
 _atom_site_occupancy
  Al  Al0  1  0.11004748  0.09402614  0.37683052  1
  Al  Al1  1  0.21314357  0.21010626  0.13040465  1
  Al  Al2  1  0.78901565  0.08876829  0.86831013  1
  Al  Al3  1  0.89053753  0.20817146  0.62835783  1
  Al  Al4  1  0.44041572  0.09644980  0.39598402  1
  Al  Al5  1  0.10974620  0.09660538  0.87962858  1
  Al  Al6  1  0.21354913  0.20990000  0.62613171  1
  Al  Al7  1  0.78226481  0.09266680  0.38699113  1
  Al  Al8  1  0.89412794  0.20310731  0.12746072  1
  Al  Al9  1  0.43565506  0.09883470  0.85709562  1
  Al  Al10  1  0.55791604  0.20710333  0.62367457  1
  Al  Al11  1  0.11004664  0.42924780  0.37683370  1
  Al  Al12  1  0.21801796  0.54317373  0.12701418  1
  Al  Al13  1  0.77707356  0.42812019  0.87979179  1
  Al  Al14  1  0.89053823  0.53463402  0.62835600  1
  Al  Al15  1  0.44035460  0.43223541  0.38764703  1
  Al  Al16  1  0.54808569  0.54263377  0.12779244  1
  Al  Al17  1  0.10974514  0.42697330  0.87962433  1
  Al  Al18  1  0.21758828  0.54110205  0.62869945  1
  Al  Al19  1  0.77639832  0.42845968  0.37484901  1
  Al  Al20  1  0.89412539  0.53609882  0.12746266  1
  Al  Al21  1  0.43980741  0.43518346  0.86815559  1
  Al  Al22  1  0.55814216  0.53760110  0.62823074  1
  Al  Al23  1  0.11336649  0.75997808  0.37717548  1
  Al  Al24  1  0.21802785  0.87215851  0.12701138  1
  Al  Al25  1  0.78901842  0.75552434  0.86831200  1
  Al  Al26  1  0.89476007  0.86929155  0.62599690  1
  Al  Al27  1  0.44035656  0.76072833  0.38764948  1
  Al  Al28  1  0.11093251  0.76119575  0.88015638  1
  Al  Al29  1  0.21758904  0.87466011  0.62870257  1
  Al  Al30  1  0.78226602  0.75838392  0.38699027  1
  Al  Al31  1  0.90215370  0.86559153  0.12922365  1
  Al  Al32  1  0.43981482  0.75832737  0.86815090  1
  Al  Al33  1  0.55791843  0.86832622  0.62367656  1
  Gd  Gd34  1  0.55826247  0.20734596  0.11627938  1
  Gd  Gd35  1  0.55826715  0.86777476  0.11627853  1
  N  N36  1  0.22321371  0.20507540  0.33561251  1
  N  N37  1  0.11061077  0.09553373  0.08374385  1
  N  N38  1  0.89087708  0.20906792  0.82961245  1
  N  N39  1  0.78283043  0.09308610  0.58823972  1
  N  N40  1  0.55552016  0.20522568  0.36198727  1
  N  N41  1  0.41070803  0.11130386  0.05856348  1
  N  N42  1  0.21219928  0.21058458  0.82471686  1
  N  N43  1  0.10894561  0.09460118  0.57806693  1
  N  N44  1  0.88788871  0.20565763  0.33121867  1
  N  N45  1  0.81369517  0.07479608  0.07020875  1
  N  N46  1  0.55984316  0.20631414  0.83318152  1
  N  N47  1  0.43978827  0.09675549  0.59875311  1
  N  N48  1  0.22296028  0.53799466  0.33168097  1
  N  N49  1  0.11060828  0.42716433  0.08374164  1
  N  N50  1  0.89087808  0.53340986  0.82960793  1
  N  N51  1  0.77710122  0.42809784  0.57732951  1
  N  N52  1  0.55259090  0.54038605  0.33357064  1
  N  N53  1  0.42649120  0.45626421  0.07027513  1
  N  N54  1  0.21697678  0.54059702  0.82973814  1
  N  N55  1  0.10894731  0.42975748  0.57806780  1
  N  N56  1  0.88789040  0.53981015  0.33122157  1
  N  N57  1  0.77397387  0.42965450  0.08466230  1
  N  N58  1  0.55955718  0.53690349  0.82767844  1
  N  N59  1  0.44043940  0.43259215  0.58935525  1
  N  N60  1  0.22296582  0.87240724  0.33167812  1
  N  N61  1  0.11383682  0.75973827  0.08300787  1
  N  N62  1  0.89550493  0.86892533  0.82444486  1
  N  N63  1  0.78283195  0.75738047  0.58823768  1
  N  N64  1  0.55552101  0.87261309  0.36198706  1
  N  N65  1  0.42650604  0.75055087  0.07027773  1
  N  N66  1  0.21698271  0.87579171  0.82974336  1
  N  N67  1  0.11312341  0.76009286  0.57814220  1
  N  N68  1  0.88950131  0.87192792  0.33538131  1
  N  N69  1  0.81370069  0.74478860  0.07020986  1
  N  N70  1  0.55984601  0.86720581  0.83318316  1
  N  N71  1  0.44044070  0.76026859  0.58936046  1
