# generated using pymatgen
data_GdAl17N18
_symmetry_space_group_name_H-M   'P 1'
_cell_length_a   9.75725832
_cell_length_b   9.71670422
_cell_length_c   9.50284709
_cell_angle_alpha   89.99998806
_cell_angle_beta   89.96543173
_cell_angle_gamma   60.15834112
_symmetry_Int_Tables_number   1
_chemical_formula_structural   GdAl17N18
_chemical_formula_sum   'Gd2 Al34 N36'
_cell_volume   781.48704615
_cell_formula_units_Z   2
loop_
 _symmetry_equiv_pos_site_id
 _symmetry_equiv_pos_as_xyz
  1  'x, y, z'
loop_
 _atom_site_type_symbol
 _atom_site_label
 _atom_site_symmetry_multiplicity
 _atom_site_fract_x
 _atom_site_fract_y
 _atom_site_fract_z
 _atom_site_occupancy
  Al  Al0  1  0.10975632  0.09654474  0.32863524  1
  Al  Al1  1  0.21326711  0.21004562  0.07822599  1
  Al  Al2  1  0.78198953  0.09271813  0.82154313  1
  Al  Al3  1  0.89055336  0.20799130  0.57997189  1
  Al  Al4  1  0.43566911  0.09882829  0.35090587  1
  Al  Al5  1  0.11014526  0.09402799  0.83155607  1
  Al  Al6  1  0.21361391  0.20986849  0.58198599  1
  Al  Al7  1  0.78894636  0.08885508  0.33943293  1
  Al  Al8  1  0.89409600  0.20317987  0.08081105  1
  Al  Al9  1  0.44063535  0.09633975  0.81226015  1
  Al  Al10  1  0.55795992  0.20714094  0.58384105  1
  Al  Al11  1  0.10975477  0.42702339  0.32863948  1
  Al  Al12  1  0.21796783  0.54330022  0.08129052  1
  Al  Al13  1  0.77641497  0.42844976  0.83316847  1
  Al  Al14  1  0.89055391  0.53479719  0.57997398  1
  Al  Al15  1  0.43982707  0.43517831  0.33958212  1
  Al  Al16  1  0.54818284  0.54258669  0.08058622  1
  Al  Al17  1  0.11014412  0.42914703  0.83155302  1
  Al  Al18  1  0.21777087  0.54099088  0.57961893  1
  Al  Al19  1  0.77713816  0.42808608  0.32874701  1
  Al  Al20  1  0.89409255  0.53605576  0.08080888  1
  Al  Al21  1  0.44056580  0.43199335  0.82086837  1
  Al  Al22  1  0.55801388  0.53766615  0.57995192  1
  Al  Al23  1  0.11098510  0.76116928  0.32828718  1
  Al  Al24  1  0.21797947  0.87208367  0.08129320  1
  Al  Al25  1  0.78199117  0.75860478  0.82154363  1
  Al  Al26  1  0.89453500  0.86940383  0.58200979  1
  Al  Al27  1  0.43983628  0.75831283  0.33958571  1
  Al  Al28  1  0.11319776  0.76006209  0.83100790  1
  Al  Al29  1  0.21777261  0.87458981  0.57961546  1
  Al  Al30  1  0.78895000  0.75550251  0.33943128  1
  Al  Al31  1  0.90217176  0.86558143  0.07937998  1
  Al  Al32  1  0.44056837  0.76075889  0.82086665  1
  Al  Al33  1  0.55796247  0.86824661  0.58383871  1
  Gd  Gd34  1  0.55803503  0.20734230  0.09153615  1
  Gd  Gd35  1  0.55804152  0.86801462  0.09153711  1
  N  N36  1  0.21211650  0.21062790  0.38507535  1
  N  N37  1  0.11062037  0.09547221  0.12623677  1
  N  N38  1  0.88784100  0.20566457  0.87873544  1
  N  N39  1  0.78269668  0.09306145  0.62192587  1
  N  N40  1  0.55983446  0.20638078  0.37626480  1
  N  N41  1  0.41053517  0.11139133  0.15194330  1
  N  N42  1  0.22346091  0.20495329  0.87467009  1
  N  N43  1  0.10905688  0.09457487  0.63188627  1
  N  N44  1  0.89088283  0.20892624  0.38036122  1
  N  N45  1  0.81360860  0.07491594  0.13971935  1
  N  N46  1  0.55542135  0.20517403  0.84841194  1
  N  N47  1  0.43996556  0.09666556  0.61112946  1
  N  N48  1  0.21711727  0.54051624  0.38019848  1
  N  N49  1  0.11061712  0.42721363  0.12623883  1
  N  N50  1  0.88784246  0.53985186  0.87873215  1
  N  N51  1  0.77711905  0.42808625  0.63233015  1
  N  N52  1  0.55943678  0.53696603  0.38214275  1
  N  N53  1  0.42647634  0.45632719  0.13965222  1
  N  N54  1  0.22299389  0.53805539  0.87832828  1
  N  N55  1  0.10905836  0.42966967  0.63188572  1
  N  N56  1  0.89088373  0.53354635  0.38036626  1
  N  N57  1  0.77403689  0.42961885  0.12556980  1
  N  N58  1  0.55269450  0.54033574  0.87657911  1
  N  N59  1  0.44060498  0.43244360  0.62084441  1
  N  N60  1  0.21712500  0.87573472  0.38019256  1
  N  N61  1  0.11384146  0.75973523  0.12721202  1
  N  N62  1  0.88941795  0.87197009  0.87499542  1
  N  N63  1  0.78269856  0.75753371  0.62192763  1
  N  N64  1  0.55983774  0.86715263  0.37626267  1
  N  N65  1  0.42649504  0.75050233  0.13964740  1
  N  N66  1  0.22300010  0.87231573  0.87833134  1
  N  N67  1  0.11298328  0.76016186  0.63159458  1
  N  N68  1  0.89532096  0.86901795  0.38516330  1
  N  N69  1  0.81361563  0.74474655  0.13971859  1
  N  N70  1  0.55542279  0.87276730  0.84841231  1
  N  N71  1  0.44060701  0.76024876  0.62083969  1
