# generated using pymatgen
data_GdAl17N18
_symmetry_space_group_name_H-M   'P 1'
_cell_length_a   9.51112880
_cell_length_b   9.49322735
_cell_length_c   10.14333470
_cell_angle_alpha   90.00009334
_cell_angle_beta   90.08978346
_cell_angle_gamma   60.06250660
_symmetry_Int_Tables_number   1
_chemical_formula_structural   GdAl17N18
_chemical_formula_sum   'Gd2 Al34 N36'
_cell_volume   793.65146599
_cell_formula_units_Z   2
loop_
 _symmetry_equiv_pos_site_id
 _symmetry_equiv_pos_as_xyz
  1  'x, y, z'
loop_
 _atom_site_type_symbol
 _atom_site_label
 _atom_site_symmetry_multiplicity
 _atom_site_fract_x
 _atom_site_fract_y
 _atom_site_fract_z
 _atom_site_occupancy
  Al  Al0  1  0.11052882  0.09449043  0.38944510  1
  Al  Al1  1  0.21469481  0.20931994  0.13962344  1
  Al  Al2  1  0.78618901  0.09052895  0.88412620  1
  Al  Al3  1  0.89029335  0.20690544  0.64062040  1
  Al  Al4  1  0.44077291  0.09627993  0.40826728  1
  Al  Al5  1  0.11056176  0.09541406  0.89060816  1
  Al  Al6  1  0.21684990  0.20824156  0.64117713  1
  Al  Al7  1  0.78021037  0.09309882  0.39942172  1
  Al  Al8  1  0.89473766  0.20346220  0.13907717  1
  Al  Al9  1  0.43849636  0.09741948  0.87831279  1
  Al  Al10  1  0.55664371  0.20702495  0.64134190  1
  Al  Al11  1  0.11052869  0.42831316  0.38944505  1
  Al  Al12  1  0.21779658  0.54366250  0.13862991  1
  Al  Al13  1  0.77763621  0.42784813  0.88979813  1
  Al  Al14  1  0.89029322  0.53613351  0.64062034  1
  Al  Al15  1  0.44123831  0.43153185  0.39956980  1
  Al  Al16  1  0.54921782  0.54205895  0.13811917  1
  Al  Al17  1  0.11056130  0.42735780  0.89060820  1
  Al  Al18  1  0.21908896  0.54065556  0.64070332  1
  Al  Al19  1  0.77632170  0.42850495  0.38882409  1
  Al  Al20  1  0.89473677  0.53513287  0.13907738  1
  Al  Al21  1  0.44079700  0.43354358  0.88446608  1
  Al  Al22  1  0.55678973  0.53827188  0.64192522  1
  Al  Al23  1  0.11091378  0.76120938  0.38930987  1
  Al  Al24  1  0.21779751  0.87187463  0.13863018  1
  Al  Al25  1  0.78618914  0.75661461  0.88412626  1
  Al  Al26  1  0.89244389  0.87044428  0.64123077  1
  Al  Al27  1  0.44123869  0.76056245  0.39956943  1
  Al  Al28  1  0.11137790  0.76097785  0.89108976  1
  Al  Al29  1  0.21908944  0.87358821  0.64070342  1
  Al  Al30  1  0.78021043  0.76002250  0.39942185  1
  Al  Al31  1  0.90122183  0.86605544  0.13794830  1
  Al  Al32  1  0.44079778  0.75899379  0.88446668  1
  Al  Al33  1  0.55664371  0.86966484  0.64134210  1
  Gd  Gd34  1  0.55824523  0.20837482  0.14026000  1
  Gd  Gd35  1  0.55824542  0.86671886  0.14026001  1
  N  N36  1  0.22376935  0.20478182  0.33215604  1
  N  N37  1  0.11160441  0.09467981  0.08164157  1
  N  N38  1  0.89058735  0.20783115  0.82900878  1
  N  N39  1  0.78137502  0.09304934  0.58722750  1
  N  N40  1  0.55422450  0.20572135  0.36264017  1
  N  N41  1  0.41527905  0.10902950  0.06091917  1
  N  N42  1  0.21546570  0.20893421  0.82724507  1
  N  N43  1  0.11026899  0.09466545  0.57876515  1
  N  N44  1  0.88715562  0.20549867  0.33047224  1
  N  N45  1  0.81109428  0.07725313  0.06953132  1
  N  N46  1  0.55838565  0.20643524  0.83406232  1
  N  N47  1  0.44087648  0.09622805  0.59560795  1
  N  N48  1  0.22261776  0.53844739  0.33062803  1
  N  N49  1  0.11160345  0.42704945  0.08164162  1
  N  N50  1  0.89058704  0.53491467  0.82900864  1
  N  N51  1  0.77697925  0.42817603  0.57882523  1
  N  N52  1  0.55285944  0.54023670  0.33108084  1
  N  N53  1  0.42754026  0.45486629  0.06986741  1
  N  N54  1  0.21854571  0.54022693  0.82914619  1
  N  N55  1  0.11026885  0.42839766  0.57876505  1
  N  N56  1  0.88715551  0.54067793  0.33047247  1
  N  N57  1  0.77511928  0.42910586  0.08210967  1
  N  N58  1  0.55823064  0.53755221  0.82853028  1
  N  N59  1  0.44160480  0.43177231  0.58747920  1
  N  N60  1  0.22261794  0.87226778  0.33062814  1
  N  N61  1  0.11385293  0.75974043  0.08061397  1
  N  N62  1  0.89321011  0.87006157  0.82703786  1
  N  N63  1  0.78137503  0.75890720  0.58722762  1
  N  N64  1  0.55422470  0.87338728  0.36264017  1
  N  N65  1  0.42754217  0.75092899  0.06986856  1
  N  N66  1  0.21854650  0.87456090  0.82914650  1
  N  N67  1  0.11123660  0.76104785  0.57849463  1
  N  N68  1  0.88683339  0.87324942  0.33129945  1
  N  N69  1  0.81109452  0.74498392  0.06953138  1
  N  N70  1  0.55838560  0.86851453  0.83406271  1
  N  N71  1  0.44160511  0.75995536  0.58747903  1
