# generated using pymatgen
data_GdAl17N18
_symmetry_space_group_name_H-M   'P 1'
_cell_length_a   9.51113776
_cell_length_b   9.49323253
_cell_length_c   10.14332941
_cell_angle_alpha   89.99998408
_cell_angle_beta   89.91029138
_cell_angle_gamma   60.06230030
_symmetry_Int_Tables_number   1
_chemical_formula_structural   GdAl17N18
_chemical_formula_sum   'Gd2 Al34 N36'
_cell_volume   793.65058734
_cell_formula_units_Z   2
loop_
 _symmetry_equiv_pos_site_id
 _symmetry_equiv_pos_as_xyz
  1  'x, y, z'
loop_
 _atom_site_type_symbol
 _atom_site_label
 _atom_site_symmetry_multiplicity
 _atom_site_fract_x
 _atom_site_fract_y
 _atom_site_fract_z
 _atom_site_occupancy
  Al  Al0  1  0.11063828  0.09537567  0.30262131  1
  Al  Al1  1  0.21477136  0.20928109  0.05360689  1
  Al  Al2  1  0.78028709  0.09306115  0.79381008  1
  Al  Al3  1  0.89036954  0.20686761  0.55260861  1
  Al  Al4  1  0.43857303  0.09738031  0.31492293  1
  Al  Al5  1  0.11060544  0.09445255  0.80378282  1
  Al  Al6  1  0.21692636  0.20820345  0.55205293  1
  Al  Al7  1  0.78626549  0.09049108  0.30910521  1
  Al  Al8  1  0.89481393  0.20342438  0.05415097  1
  Al  Al9  1  0.44084927  0.09624198  0.78496729  1
  Al  Al10  1  0.55672024  0.20698667  0.55189265  1
  Al  Al11  1  0.11063820  0.42731942  0.30262130  1
  Al  Al12  1  0.21787358  0.54362389  0.05459880  1
  Al  Al13  1  0.77639857  0.42846724  0.80440406  1
  Al  Al14  1  0.89036952  0.53609602  0.55260862  1
  Al  Al15  1  0.44087406  0.43350466  0.30876629  1
  Al  Al16  1  0.54929461  0.54201955  0.05511046  1
  Al  Al17  1  0.11060542  0.42827517  0.80378283  1
  Al  Al18  1  0.21916595  0.54061714  0.55252623  1
  Al  Al19  1  0.77771257  0.42781031  0.30343086  1
  Al  Al20  1  0.89481379  0.53509494  0.05415093  1
  Al  Al21  1  0.44131499  0.43149367  0.79366278  1
  Al  Al22  1  0.55686611  0.53823363  0.55130697  1
  Al  Al23  1  0.11145461  0.76093938  0.30214016  1
  Al  Al24  1  0.21787373  0.87183592  0.05459876  1
  Al  Al25  1  0.78028711  0.75998483  0.79381005  1
  Al  Al26  1  0.89251983  0.87040669  0.55199909  1
  Al  Al27  1  0.44087419  0.75895478  0.30876620  1
  Al  Al28  1  0.11099029  0.76117145  0.80391765  1
  Al  Al29  1  0.21916603  0.87355014  0.55252621  1
  Al  Al30  1  0.78626551  0.75657664  0.30910520  1
  Al  Al31  1  0.90129848  0.86601738  0.05528096  1
  Al  Al32  1  0.44131507  0.76052456  0.79366285  1
  Al  Al33  1  0.55672024  0.86962646  0.55189261  1
  Gd  Gd34  1  0.55832091  0.20833392  0.05297406  1
  Gd  Gd35  1  0.55832093  0.86667941  0.05297406  1
  N  N36  1  0.21554139  0.20889603  0.36598590  1
  N  N37  1  0.11168069  0.09464147  0.11158818  1
  N  N38  1  0.88723258  0.20546107  0.86275673  1
  N  N39  1  0.78145198  0.09301164  0.60600446  1
  N  N40  1  0.55846226  0.20639633  0.35917150  1
  N  N41  1  0.41535430  0.10898990  0.13231574  1
  N  N42  1  0.22384530  0.20474398  0.86107465  1
  N  N43  1  0.11034540  0.09462774  0.61446397  1
  N  N44  1  0.89066371  0.20779319  0.36422117  1
  N  N45  1  0.81117132  0.07721553  0.12369944  1
  N  N46  1  0.55430129  0.20568313  0.83059327  1
  N  N47  1  0.44095258  0.09619032  0.59762606  1
  N  N48  1  0.21862240  0.54018833  0.36408423  1
  N  N49  1  0.11168053  0.42701123  0.11158817  1
  N  N50  1  0.88723255  0.54063952  0.86275669  1
  N  N51  1  0.77705633  0.42813834  0.61440420  1
  N  N52  1  0.55830740  0.53751311  0.36470202  1
  N  N53  1  0.42761764  0.45482678  0.12336380  1
  N  N54  1  0.22269373  0.53840968  0.86260131  1
  N  N55  1  0.11034537  0.42835998  0.61446399  1
  N  N56  1  0.89066366  0.53487641  0.36422119  1
  N  N57  1  0.77519621  0.42906837  0.11111995  1
  N  N58  1  0.55293642  0.54019842  0.86214947  1
  N  N59  1  0.44168128  0.43173444  0.60575355  1
  N  N60  1  0.21862254  0.87452263  0.36408418  1
  N  N61  1  0.11392968  0.75970186  0.11261612  1
  N  N62  1  0.88691063  0.87321127  0.86193053  1
  N  N63  1  0.78145198  0.75886943  0.60600444  1
  N  N64  1  0.55846225  0.86847510  0.35917143  1
  N  N65  1  0.42761795  0.75088927  0.12336362  1
  N  N66  1  0.22269377  0.87222985  0.86260129  1
  N  N67  1  0.11131317  0.76100999  0.61473406  1
  N  N68  1  0.89328655  0.87002338  0.36619247  1
  N  N69  1  0.81117136  0.74494616  0.12369943  1
  N  N70  1  0.55430133  0.87334888  0.83059328  1
  N  N71  1  0.44168133  0.75991748  0.60575358  1
