# generated using pymatgen
data_GdAl17N18
_symmetry_space_group_name_H-M   'P 1'
_cell_length_a   10.01541269
_cell_length_b   9.96460266
_cell_length_c   8.76230927
_cell_angle_alpha   89.99995087
_cell_angle_beta   90.01222911
_cell_angle_gamma   60.16964759
_symmetry_Int_Tables_number   1
_chemical_formula_structural   GdAl17N18
_chemical_formula_sum   'Gd2 Al34 N36'
_cell_volume   758.60886712
_cell_formula_units_Z   2
loop_
 _symmetry_equiv_pos_site_id
 _symmetry_equiv_pos_as_xyz
  1  'x, y, z'
loop_
 _atom_site_type_symbol
 _atom_site_label
 _atom_site_symmetry_multiplicity
 _atom_site_fract_x
 _atom_site_fract_y
 _atom_site_fract_z
 _atom_site_occupancy
  Al  Al0  1  0.10974577  0.09431493  0.36698919  1
  Al  Al1  1  0.21086144  0.21123704  0.12006683  1
  Al  Al2  1  0.78816656  0.08893205  0.85407798  1
  Al  Al3  1  0.89021862  0.20829507  0.61597233  1
  Al  Al4  1  0.43873298  0.09729619  0.38352717  1
  Al  Al5  1  0.10965631  0.09636559  0.86564690  1
  Al  Al6  1  0.21446043  0.20943743  0.61397658  1
  Al  Al7  1  0.78486045  0.09160651  0.37567312  1
  Al  Al8  1  0.89421170  0.20394522  0.11585479  1
  Al  Al9  1  0.43555431  0.09888503  0.84717373  1
  Al  Al10  1  0.55748259  0.20674100  0.61051784  1
  Al  Al11  1  0.10974720  0.42927194  0.36699042  1
  Al  Al12  1  0.21733201  0.54308820  0.11551291  1
  Al  Al13  1  0.77663033  0.42835411  0.86636795  1
  Al  Al14  1  0.89021935  0.53482844  0.61597225  1
  Al  Al15  1  0.43932327  0.43387144  0.37602066  1
  Al  Al16  1  0.54980032  0.54176509  0.11607723  1
  Al  Al17  1  0.10965813  0.42731038  0.86564503  1
  Al  Al18  1  0.21792175  0.54071849  0.61632151  1
  Al  Al19  1  0.77642625  0.42845662  0.36433152  1
  Al  Al20  1  0.89421377  0.53518434  0.11585424  1
  Al  Al21  1  0.43963338  0.43485189  0.85412606  1
  Al  Al22  1  0.55757709  0.53787666  0.61539643  1
  Al  Al23  1  0.11406627  0.75963231  0.36764483  1
  Al  Al24  1  0.21732926  0.87291630  0.11551303  1
  Al  Al25  1  0.78816463  0.75623900  0.85407882  1
  Al  Al26  1  0.89489893  0.86922013  0.61309324  1
  Al  Al27  1  0.43932019  0.76013307  0.37602579  1
  Al  Al28  1  0.11128138  0.76102479  0.86585783  1
  Al  Al29  1  0.21791753  0.87469746  0.61632225  1
  Al  Al30  1  0.78485945  0.75687045  0.37567104  1
  Al  Al31  1  0.90291320  0.86521379  0.11937649  1
  Al  Al32  1  0.43962935  0.75884139  0.85412412  1
  Al  Al33  1  0.55748184  0.86910652  0.61051823  1
  Gd  Gd34  1  0.55938600  0.20741827  0.10695891  1
  Gd  Gd35  1  0.55938325  0.86652180  0.10695896  1
  N  N36  1  0.22066664  0.20633524  0.34919409  1
  N  N37  1  0.11022233  0.09561581  0.09502158  1
  N  N38  1  0.89036495  0.20877442  0.84141761  1
  N  N39  1  0.78331605  0.09310777  0.59876110  1
  N  N40  1  0.55650114  0.20545320  0.37227936  1
  N  N41  1  0.41296464  0.11017684  0.07864918  1
  N  N42  1  0.21395037  0.20969300  0.83536081  1
  N  N43  1  0.10863143  0.09477089  0.59095592  1
  N  N44  1  0.88882254  0.20661505  0.34451525  1
  N  N45  1  0.81217930  0.07546646  0.08699306  1
  N  N46  1  0.55910295  0.20597884  0.83489686  1
  N  N47  1  0.43867040  0.09732747  0.60463191  1
  N  N48  1  0.22155329  0.53851879  0.34522359  1
  N  N49  1  0.11022438  0.42749291  0.09502037  1
  N  N50  1  0.89036599  0.53420310  0.84141790  1
  N  N51  1  0.77681841  0.42825995  0.59037687  1
  N  N52  1  0.55379674  0.53976866  0.34773725  1
  N  N53  1  0.42734865  0.45474915  0.08665142  1
  N  N54  1  0.21769953  0.54013773  0.84098634  1
  N  N55  1  0.10863297  0.42992907  0.59095757  1
  N  N56  1  0.88882469  0.53790397  0.34451541  1
  N  N57  1  0.77411719  0.42961084  0.09632568  1
  N  N58  1  0.55839028  0.53746996  0.83896507  1
  N  N59  1  0.43990298  0.43305041  0.59978628  1
  N  N60  1  0.22155167  0.87326511  0.34522319  1
  N  N61  1  0.11405244  0.75963859  0.09444405  1
  N  N62  1  0.89494884  0.86919539  0.83454203  1
  N  N63  1  0.78331464  0.75691321  0.59875970  1
  N  N64  1  0.55649885  0.87137556  0.37227963  1
  N  N65  1  0.42734288  0.75122513  0.08664486  1
  N  N66  1  0.21769502  0.87550192  0.84098541  1
  N  N67  1  0.11386348  0.75973303  0.59118605  1
  N  N68  1  0.89179312  0.87077420  0.35079493  1
  N  N69  1  0.81217680  0.74569212  0.08699556  1
  N  N70  1  0.55910218  0.86824733  0.83489661  1
  N  N71  1  0.43989968  0.76037343  0.59978898  1
