# generated using pymatgen
data_GdAl17N18
_symmetry_space_group_name_H-M   'P 1'
_cell_length_a   9.51113946
_cell_length_b   9.49323374
_cell_length_c   10.14333275
_cell_angle_alpha   89.99999435
_cell_angle_beta   89.91028870
_cell_angle_gamma   60.06226945
_symmetry_Int_Tables_number   1
_chemical_formula_structural   GdAl17N18
_chemical_formula_sum   'Gd2 Al34 N36'
_cell_volume   793.65084545
_cell_formula_units_Z   2
loop_
 _symmetry_equiv_pos_site_id
 _symmetry_equiv_pos_as_xyz
  1  'x, y, z'
loop_
 _atom_site_type_symbol
 _atom_site_label
 _atom_site_symmetry_multiplicity
 _atom_site_fract_x
 _atom_site_fract_y
 _atom_site_fract_z
 _atom_site_occupancy
  Al  Al0  1  0.11065413  0.09536785  0.29663073  1
  Al  Al1  1  0.21478747  0.20927295  0.04761562  1
  Al  Al2  1  0.78030263  0.09305347  0.78781736  1
  Al  Al3  1  0.89038564  0.20685986  0.54661854  1
  Al  Al4  1  0.43858899  0.09737222  0.30892701  1
  Al  Al5  1  0.11062107  0.09444473  0.79779392  1
  Al  Al6  1  0.21694220  0.20819555  0.54606188  1
  Al  Al7  1  0.78628157  0.09048307  0.30311302  1
  Al  Al8  1  0.89482981  0.20341661  0.04816172  1
  Al  Al9  1  0.44086523  0.09623403  0.77897216  1
  Al  Al10  1  0.55673601  0.20697879  0.54589743  1
  Al  Al11  1  0.11065410  0.42731136  0.29663072  1
  Al  Al12  1  0.21788952  0.54361569  0.04860904  1
  Al  Al13  1  0.77641400  0.42845962  0.79841503  1
  Al  Al14  1  0.89038563  0.53608778  0.54661854  1
  Al  Al15  1  0.44088989  0.43349651  0.30277293  1
  Al  Al16  1  0.54931038  0.54201153  0.04912002  1
  Al  Al17  1  0.11062107  0.42826746  0.79779392  1
  Al  Al18  1  0.21918146  0.54060950  0.54653558  1
  Al  Al19  1  0.77772877  0.42780226  0.29744075  1
  Al  Al20  1  0.89482977  0.53508691  0.04816170  1
  Al  Al21  1  0.44133075  0.43148591  0.78766958  1
  Al  Al22  1  0.55688212  0.53822562  0.54531391  1
  Al  Al23  1  0.11147035  0.76093150  0.29614921  1
  Al  Al24  1  0.21788956  0.87182814  0.04860902  1
  Al  Al25  1  0.78030264  0.75997715  0.78781735  1
  Al  Al26  1  0.89253614  0.87039858  0.54600820  1
  Al  Al27  1  0.44088993  0.75894700  0.30277290  1
  Al  Al28  1  0.11100594  0.76116367  0.79792917  1
  Al  Al29  1  0.21918149  0.87354233  0.54653558  1
  Al  Al30  1  0.78628157  0.75656867  0.30311301  1
  Al  Al31  1  0.90131418  0.86600956  0.04929091  1
  Al  Al32  1  0.44133078  0.76051664  0.78766961  1
  Al  Al33  1  0.55673601  0.86961855  0.54589742  1
  Gd  Gd34  1  0.55833772  0.20832584  0.04697967  1
  Gd  Gd35  1  0.55833771  0.86667006  0.04697967  1
  N  N36  1  0.21555803  0.20888767  0.35999409  1
  N  N37  1  0.11169675  0.09463370  0.10559747  1
  N  N38  1  0.88724777  0.20545314  0.85676681  1
  N  N39  1  0.78146753  0.09300396  0.60001165  1
  N  N40  1  0.55847803  0.20638816  0.35317701  1
  N  N41  1  0.41537173  0.10898092  0.12632064  1
  N  N42  1  0.22386153  0.20473588  0.85508315  1
  N  N43  1  0.11036142  0.09461984  0.60847395  1
  N  N44  1  0.89067965  0.20778520  0.35823032  1
  N  N45  1  0.81118714  0.07720767  0.11770800  1
  N  N46  1  0.55431671  0.20567534  0.82459932  1
  N  N47  1  0.44096896  0.09618217  0.59163146  1
  N  N48  1  0.21863840  0.54018032  0.35809272  1
  N  N49  1  0.11169670  0.42700289  0.10559747  1
  N  N50  1  0.88724776  0.54063237  0.85676679  1
  N  N51  1  0.77707180  0.42813072  0.60841391  1
  N  N52  1  0.55832310  0.53750516  0.35870895  1
  N  N53  1  0.42763383  0.45481809  0.11737142  1
  N  N54  1  0.22270997  0.53840147  0.85661110  1
  N  N55  1  0.11036141  0.42835200  0.60847395  1
  N  N56  1  0.89067963  0.53486848  0.35823032  1
  N  N57  1  0.77521205  0.42906059  0.10512938  1
  N  N58  1  0.55295164  0.54019084  0.85615839  1
  N  N59  1  0.44169737  0.43172643  0.59976014  1
  N  N60  1  0.21863845  0.87451462  0.35809271  1
  N  N61  1  0.11394554  0.75969391  0.10662520  1
  N  N62  1  0.88692543  0.87320393  0.85593981  1
  N  N63  1  0.78146753  0.75886175  0.60001164  1
  N  N64  1  0.55847802  0.86846727  0.35317699  1
  N  N65  1  0.42763392  0.75088152  0.11737137  1
  N  N66  1  0.22270999  0.87222186  0.85661109  1
  N  N67  1  0.11132900  0.76100213  0.60874442  1
  N  N68  1  0.89330243  0.87001545  0.36020124  1
  N  N69  1  0.81118715  0.74493844  0.11770800  1
  N  N70  1  0.55431673  0.87334127  0.82459933  1
  N  N71  1  0.44169739  0.75990950  0.59976015  1
