# generated using pymatgen
data_GdAl17N18
_symmetry_space_group_name_H-M   'P 1'
_cell_length_a   9.64767381
_cell_length_b   9.61343701
_cell_length_c   9.80058819
_cell_angle_alpha   90.00016482
_cell_angle_beta   90.05343241
_cell_angle_gamma   60.14781854
_symmetry_Int_Tables_number   1
_chemical_formula_structural   GdAl17N18
_chemical_formula_sum   'Gd2 Al34 N36'
_cell_volume   788.36762744
_cell_formula_units_Z   2
loop_
 _symmetry_equiv_pos_site_id
 _symmetry_equiv_pos_as_xyz
  1  'x, y, z'
loop_
 _atom_site_type_symbol
 _atom_site_label
 _atom_site_symmetry_multiplicity
 _atom_site_fract_x
 _atom_site_fract_y
 _atom_site_fract_z
 _atom_site_occupancy
  Al  Al0  1  0.11030013  0.09424656  0.38061681  1
  Al  Al1  1  0.21356016  0.20990504  0.13260096  1
  Al  Al2  1  0.78849587  0.08919469  0.87404379  1
  Al  Al3  1  0.89034902  0.20753371  0.63180472  1
  Al  Al4  1  0.44127531  0.09601771  0.39862022  1
  Al  Al5  1  0.11001017  0.09615454  0.88276242  1
  Al  Al6  1  0.21505583  0.20915038  0.63073730  1
  Al  Al7  1  0.78077855  0.09304589  0.38984697  1
  Al  Al8  1  0.89437104  0.20329285  0.13092502  1
  Al  Al9  1  0.43621159  0.09856069  0.86481785  1
  Al  Al10  1  0.55753509  0.20702689  0.63114498  1
  Al  Al11  1  0.11029728  0.42876759  0.38061994  1
  Al  Al12  1  0.21775852  0.54349108  0.13055746  1
  Al  Al13  1  0.77723043  0.42803127  0.88227832  1
  Al  Al14  1  0.89034911  0.53545518  0.63180137  1
  Al  Al15  1  0.44122188  0.43111875  0.39032680  1
  Al  Al16  1  0.54836833  0.54250274  0.13083640  1
  Al  Al17  1  0.11000515  0.42715860  0.88275761  1
  Al  Al18  1  0.21847617  0.54073434  0.63206263  1
  Al  Al19  1  0.77635333  0.42847349  0.37943004  1
  Al  Al20  1  0.89436093  0.53565342  0.13092867  1
  Al  Al21  1  0.43990200  0.43499714  0.87421891  1
  Al  Al22  1  0.55739446  0.53797958  0.63222629  1
  Al  Al23  1  0.11234634  0.76048562  0.38087076  1
  Al  Al24  1  0.21778143  0.87210754  0.13055574  1
  Al  Al25  1  0.78850343  0.75559309  0.87404501  1
  Al  Al26  1  0.89362640  0.86985767  0.63083330  1
  Al  Al27  1  0.44122762  0.76097322  0.39032583  1
  Al  Al28  1  0.11126298  0.76102999  0.88328184  1
  Al  Al29  1  0.21848280  0.87414478  0.63206799  1
  Al  Al30  1  0.78078198  0.75947523  0.38984814  1
  Al  Al31  1  0.90219724  0.86556260  0.13125476  1
  Al  Al32  1  0.43992155  0.75841896  0.87422061  1
  Al  Al33  1  0.55753923  0.86879276  0.63114896  1
  Gd  Gd34  1  0.55812341  0.20757647  0.12335781  1
  Gd  Gd35  1  0.55813930  0.86774423  0.12335703  1
  N  N36  1  0.22361596  0.20488386  0.33018594  1
  N  N37  1  0.11086261  0.09523465  0.07910586  1
  N  N38  1  0.89078509  0.20852411  0.82553017  1
  N  N39  1  0.78177998  0.09317770  0.58357080  1
  N  N40  1  0.55504301  0.20523283  0.35592263  1
  N  N41  1  0.41115072  0.11109194  0.05478747  1
  N  N42  1  0.21322883  0.21008211  0.82189726  1
  N  N43  1  0.10947865  0.09461995  0.57471564  1
  N  N44  1  0.88762726  0.20560062  0.32720544  1
  N  N45  1  0.81348655  0.07532241  0.06604802  1
  N  N46  1  0.55937929  0.20640088  0.83123320  1
  N  N47  1  0.44072826  0.09627577  0.59322023  1
  N  N48  1  0.22290251  0.53815446  0.32756439  1
  N  N49  1  0.11085330  0.42719441  0.07910398  1
  N  N50  1  0.89078483  0.53405127  0.82552244  1
  N  N51  1  0.77699361  0.42813504  0.57449124  1
  N  N52  1  0.55282448  0.54027808  0.32867860  1
  N  N53  1  0.42643108  0.45636552  0.06641753  1
  N  N54  1  0.21772445  0.54038472  0.82574934  1
  N  N55  1  0.10947937  0.42918527  0.57471556  1
  N  N56  1  0.88762797  0.54013557  0.32721117  1
  N  N57  1  0.77421659  0.42950418  0.07959733  1
  N  N58  1  0.55882916  0.53728235  0.82426729  1
  N  N59  1  0.44123396  0.43170573  0.58428170  1
  N  N60  1  0.22291208  0.87232280  0.32756037  1
  N  N61  1  0.11400225  0.75965083  0.07820434  1
  N  N62  1  0.89472050  0.86932205  0.82194573  1
  N  N63  1  0.78178333  0.75830755  0.58357031  1
  N  N64  1  0.55504739  0.87310541  0.35592218  1
  N  N65  1  0.42647330  0.75050819  0.06643408  1
  N  N66  1  0.21774157  0.87527477  0.82575932  1
  N  N67  1  0.11229827  0.76049750  0.57477992  1
  N  N68  1  0.88860600  0.87237924  0.32951461  1
  N  N69  1  0.81350243  0.74441211  0.06604746  1
  N  N70  1  0.55938450  0.86761483  0.83123839  1
  N  N71  1  0.44123952  0.76034049  0.58428496  1
