# generated using pymatgen
data_GdAl17N18
_symmetry_space_group_name_H-M   'P 1'
_cell_length_a   9.99517171
_cell_length_b   9.94536378
_cell_length_c   8.82104406
_cell_angle_alpha   90.00003985
_cell_angle_beta   89.99893378
_cell_angle_gamma   60.16784901
_symmetry_Int_Tables_number   1
_chemical_formula_structural   GdAl17N18
_chemical_formula_sum   'Gd2 Al34 N36'
_cell_volume   760.66532837
_cell_formula_units_Z   2
loop_
 _symmetry_equiv_pos_site_id
 _symmetry_equiv_pos_as_xyz
  1  'x, y, z'
loop_
 _atom_site_type_symbol
 _atom_site_label
 _atom_site_symmetry_multiplicity
 _atom_site_fract_x
 _atom_site_fract_y
 _atom_site_fract_z
 _atom_site_occupancy
  Al  Al0  1  0.10955184  0.09650613  0.34116885  1
  Al  Al1  1  0.21132922  0.21100398  0.08738685  1
  Al  Al2  1  0.78469327  0.09168801  0.83215313  1
  Al  Al3  1  0.89039811  0.20819850  0.59161371  1
  Al  Al4  1  0.43524085  0.09904210  0.36157729  1
  Al  Al5  1  0.10992044  0.09414394  0.84119016  1
  Al  Al6  1  0.21380920  0.20976363  0.59358116  1
  Al  Al7  1  0.78818800  0.08896857  0.35341190  1
  Al  Al8  1  0.89404680  0.20392964  0.09156426  1
  Al  Al9  1  0.43905212  0.09713658  0.82249693  1
  Al  Al10  1  0.55777805  0.20690143  0.59736875  1
  Al  Al11  1  0.10955323  0.42727372  0.34117077  1
  Al  Al12  1  0.21746493  0.54318620  0.09211905  1
  Al  Al13  1  0.77649149  0.42842263  0.84336567  1
  Al  Al14  1  0.89039878  0.53474475  0.59161384  1
  Al  Al15  1  0.43975907  0.43483620  0.35342781  1
  Al  Al16  1  0.54970790  0.54181245  0.09139520  1
  Al  Al17  1  0.10992156  0.42926743  0.84118867  1
  Al  Al18  1  0.21783107  0.54067558  0.59111471  1
  Al  Al19  1  0.77672819  0.42830383  0.34097712  1
  Al  Al20  1  0.89404841  0.53536362  0.09156441  1
  Al  Al21  1  0.43938376  0.43376607  0.83151482  1
  Al  Al22  1  0.55772319  0.53780437  0.59208212  1
  Al  Al23  1  0.11114526  0.76109273  0.34157253  1
  Al  Al24  1  0.21746358  0.87268645  0.09211935  1
  Al  Al25  1  0.78469253  0.75695354  0.83215467  1
  Al  Al26  1  0.89488242  0.86922834  0.59462675  1
  Al  Al27  1  0.43975639  0.75873122  0.35343018  1
  Al  Al28  1  0.11413818  0.75959619  0.84000724  1
  Al  Al29  1  0.21782771  0.87483203  0.59111406  1
  Al  Al30  1  0.78818669  0.75617809  0.35341102  1
  Al  Al31  1  0.90282024  0.86525987  0.08832554  1
  Al  Al32  1  0.43938153  0.76017752  0.83151072  1
  Al  Al33  1  0.55777763  0.86865210  0.59736837  1
  Gd  Gd34  1  0.55888608  0.20726740  0.10148501  1
  Gd  Gd35  1  0.55888416  0.86717759  0.10148511  1
  N  N36  1  0.21297489  0.21018192  0.37554245  1
  N  N37  1  0.11024291  0.09564770  0.11516566  1
  N  N38  1  0.88873811  0.20654434  0.86627257  1
  N  N39  1  0.78337570  0.09308977  0.61154073  1
  N  N40  1  0.55942940  0.20615843  0.37426123  1
  N  N41  1  0.41229039  0.11051442  0.13526241  1
  N  N42  1  0.22159280  0.20587316  0.86168406  1
  N  N43  1  0.10867074  0.09469142  0.62033021  1
  N  N44  1  0.89048342  0.20875189  0.36918446  1
  N  N45  1  0.81213377  0.07547154  0.12400028  1
  N  N46  1  0.55629252  0.20528373  0.83734586  1
  N  N47  1  0.43872706  0.09729843  0.60397072  1
  N  N48  1  0.21755007  0.54008310  0.36949660  1
  N  N49  1  0.11024450  0.42743902  0.11516690  1
  N  N50  1  0.88873998  0.53805942  0.86627223  1
  N  N51  1  0.77693979  0.42819723  0.62040303  1
  N  N52  1  0.55862105  0.53735609  0.37161347  1
  N  N53  1  0.42735909  0.45483415  0.12457103  1
  N  N54  1  0.22180083  0.53854209  0.86569594  1
  N  N55  1  0.10867218  0.42996731  0.62032883  1
  N  N56  1  0.89048440  0.53410710  0.36918474  1
  N  N57  1  0.77414190  0.42959607  0.11422782  1
  N  N58  1  0.55369974  0.53981833  0.86302748  1
  N  N59  1  0.43993334  0.43306168  0.61034783  1
  N  N60  1  0.21754697  0.87570767  0.36949683  1
  N  N61  1  0.11396644  0.75968125  0.11636793  1
  N  N62  1  0.89173404  0.87080389  0.85996097  1
  N  N63  1  0.78337474  0.75686778  0.61154204  1
  N  N64  1  0.55942910  0.86774412  0.37426140  1
  N  N65  1  0.42735537  0.75112926  0.12457607  1
  N  N66  1  0.22180007  0.87299608  0.86569643  1
  N  N67  1  0.11389168  0.75971841  0.61936758  1
  N  N68  1  0.89492015  0.86921009  0.37590407  1
  N  N69  1  0.81213221  0.74572767  0.12399845  1
  N  N70  1  0.55629072  0.87175626  0.83734567  1
  N  N71  1  0.43993076  0.76033022  0.61034514  1
