# generated using pymatgen
data_GdAl17N18
_symmetry_space_group_name_H-M   'P 1'
_cell_length_a   9.78345873
_cell_length_b   9.74160286
_cell_length_c   9.42976962
_cell_angle_alpha   89.99999926
_cell_angle_beta   89.96858731
_cell_angle_gamma   60.16005938
_symmetry_Int_Tables_number   1
_chemical_formula_structural   GdAl17N18
_chemical_formula_sum   'Gd2 Al34 N36'
_cell_volume   779.56559964
_cell_formula_units_Z   2
loop_
 _symmetry_equiv_pos_site_id
 _symmetry_equiv_pos_as_xyz
  1  'x, y, z'
loop_
 _atom_site_type_symbol
 _atom_site_label
 _atom_site_symmetry_multiplicity
 _atom_site_fract_x
 _atom_site_fract_y
 _atom_site_fract_z
 _atom_site_occupancy
  Al  Al0  1  0.10971672  0.09661216  0.32940104  1
  Al  Al1  1  0.21315448  0.21010054  0.07876056  1
  Al  Al2  1  0.78230130  0.09263450  0.82219973  1
  Al  Al3  1  0.89058356  0.20808901  0.58076992  1
  Al  Al4  1  0.43559905  0.09886294  0.35239540  1
  Al  Al5  1  0.11010208  0.09398914  0.83239024  1
  Al  Al6  1  0.21339548  0.20997673  0.58299458  1
  Al  Al7  1  0.78897420  0.08880116  0.34067711  1
  Al  Al8  1  0.89405148  0.20317361  0.08159903  1
  Al  Al9  1  0.44044359  0.09643622  0.81287900  1
  Al  Al10  1  0.55800498  0.20714206  0.58543341  1
  Al  Al11  1  0.10971557  0.42699625  0.32940508  1
  Al  Al12  1  0.21800203  0.54325090  0.08210325  1
  Al  Al13  1  0.77643282  0.42844236  0.83412420  1
  Al  Al14  1  0.89058431  0.53466976  0.58077182  1
  Al  Al15  1  0.43983138  0.43517278  0.34088702  1
  Al  Al16  1  0.54818931  0.54258185  0.08130675  1
  Al  Al17  1  0.11010120  0.42923047  0.83238720  1
  Al  Al18  1  0.21763384  0.54103584  0.58039819  1
  Al  Al19  1  0.77710396  0.42810507  0.32941000  1
  Al  Al20  1  0.89404901  0.53610870  0.08159709  1
  Al  Al21  1  0.44038520  0.43223699  0.82149549  1
  Al  Al22  1  0.55812713  0.53760862  0.58085019  1
  Al  Al23  1  0.11092553  0.76119938  0.32908897  1
  Al  Al24  1  0.21801181  0.87209696  0.08210593  1
  Al  Al25  1  0.78230255  0.75837978  0.82220046  1
  Al  Al26  1  0.89470747  0.86931763  0.58307442  1
  Al  Al27  1  0.43983882  0.75831453  0.34089130  1
  Al  Al28  1  0.11338540  0.75996878  0.83178530  1
  Al  Al29  1  0.21763488  0.87468035  0.58039516  1
  Al  Al30  1  0.78897706  0.75553313  0.34067541  1
  Al  Al31  1  0.90216865  0.86558390  0.07988636  1
  Al  Al32  1  0.44038729  0.76069673  0.82149334  1
  Al  Al33  1  0.55800736  0.86819843  0.58543146  1
  Gd  Gd34  1  0.55807934  0.20731511  0.09283349  1
  Gd  Gd35  1  0.55808421  0.86798794  0.09283431  1
  N  N36  1  0.21200093  0.21068337  0.38442467  1
  N  N37  1  0.11057495  0.09552216  0.12525030  1
  N  N38  1  0.88789766  0.20569371  0.87783765  1
  N  N39  1  0.78287126  0.09305344  0.62092985  1
  N  N40  1  0.55988691  0.20635875  0.37593529  1
  N  N41  1  0.41055464  0.11138098  0.15092580  1
  N  N42  1  0.22335807  0.20500281  0.87351032  1
  N  N43  1  0.10897025  0.09457034  0.63112689  1
  N  N44  1  0.89088845  0.20900129  0.37947363  1
  N  N45  1  0.81356812  0.07486594  0.13873219  1
  N  N46  1  0.55550931  0.20518194  0.84705197  1
  N  N47  1  0.43978873  0.09675577  0.61006289  1
  N  N48  1  0.21701227  0.54053510  0.37933398  1
  N  N49  1  0.11057256  0.42721228  0.12525237  1
  N  N50  1  0.88789922  0.53976425  0.87783480  1
  N  N51  1  0.77713762  0.42807989  0.63163760  1
  N  N52  1  0.55953620  0.53691373  0.38138409  1
  N  N53  1  0.42653080  0.45624748  0.13873559  1
  N  N54  1  0.22297731  0.53804734  0.87741535  1
  N  N55  1  0.10897182  0.42976446  0.63112618  1
  N  N56  1  0.89088944  0.53346418  0.37947812  1
  N  N57  1  0.77401009  0.42963686  0.12451531  1
  N  N58  1  0.55268028  0.54034102  0.87550616  1
  N  N59  1  0.44046415  0.43259782  0.61977301  1
  N  N60  1  0.21701834  0.87581719  0.37932883  1
  N  N61  1  0.11381143  0.75975128  0.12623402  1
  N  N62  1  0.88960358  0.87187635  0.87371591  1
  N  N63  1  0.78287286  0.75737278  0.62093176  1
  N  N64  1  0.55988980  0.86711690  0.37593365  1
  N  N65  1  0.42654563  0.75052907  0.13873271  1
  N  N66  1  0.22298280  0.87233680  0.87741814  1
  N  N67  1  0.11313685  0.76008651  0.63079740  1
  N  N68  1  0.89541786  0.86896848  0.38458640  1
  N  N69  1  0.81357368  0.74484659  0.13873122  1
  N  N70  1  0.55551024  0.87266728  0.84705222  1
  N  N71  1  0.44046557  0.76023906  0.61976815  1
