# generated using pymatgen
data_GdAl17N18
_symmetry_space_group_name_H-M   'P 1'
_cell_length_a   10.01457054
_cell_length_b   9.96422116
_cell_length_c   8.76430521
_cell_angle_alpha   90.00003736
_cell_angle_beta   90.00270178
_cell_angle_gamma   60.16826925
_symmetry_Int_Tables_number   1
_chemical_formula_structural   GdAl17N18
_chemical_formula_sum   'Gd2 Al34 N36'
_cell_volume   758.67837321
_cell_formula_units_Z   2
loop_
 _symmetry_equiv_pos_site_id
 _symmetry_equiv_pos_as_xyz
  1  'x, y, z'
loop_
 _atom_site_type_symbol
 _atom_site_label
 _atom_site_symmetry_multiplicity
 _atom_site_fract_x
 _atom_site_fract_y
 _atom_site_fract_z
 _atom_site_occupancy
  Al  Al0  1  0.10953964  0.09641510  0.34310371  1
  Al  Al1  1  0.21108925  0.21112333  0.08895575  1
  Al  Al2  1  0.78495869  0.09150268  0.83381028  1
  Al  Al3  1  0.89032582  0.20812971  0.59329018  1
  Al  Al4  1  0.43523407  0.09904557  0.36213650  1
  Al  Al5  1  0.10992723  0.09423164  0.84235201  1
  Al  Al6  1  0.21404744  0.20964408  0.59478419  1
  Al  Al7  1  0.78800667  0.08908759  0.35489469  1
  Al  Al8  1  0.89409372  0.20408380  0.09309767  1
  Al  Al9  1  0.43891614  0.09720489  0.82393758  1
  Al  Al10  1  0.55771133  0.20687226  0.59832304  1
  Al  Al11  1  0.10954116  0.42737764  0.34310540  1
  Al  Al12  1  0.21731891  0.54321788  0.09361333  1
  Al  Al13  1  0.77646733  0.42843542  0.84452164  1
  Al  Al14  1  0.89032652  0.53488557  0.59329034  1
  Al  Al15  1  0.43972259  0.43478145  0.35481986  1
  Al  Al16  1  0.54999206  0.54166958  0.09306977  1
  Al  Al17  1  0.10992851  0.42917373  0.84235086  1
  Al  Al18  1  0.21800039  0.54057012  0.59278036  1
  Al  Al19  1  0.77669542  0.42832101  0.34300907  1
  Al  Al20  1  0.89409548  0.53516270  0.09309801  1
  Al  Al21  1  0.43934502  0.43388314  0.83322035  1
  Al  Al22  1  0.55752093  0.53790503  0.59369134  1
  Al  Al23  1  0.11129333  0.76101897  0.34363445  1
  Al  Al24  1  0.21731679  0.87279991  0.09361331  1
  Al  Al25  1  0.78495781  0.75687497  0.83381189  1
  Al  Al26  1  0.89476477  0.86928697  0.59600729  1
  Al  Al27  1  0.43971932  0.75882305  0.35482162  1
  Al  Al28  1  0.11405963  0.75963574  0.84117966  1
  Al  Al29  1  0.21799679  0.87476717  0.59277974  1
  Al  Al30  1  0.78800514  0.75624210  0.35489409  1
  Al  Al31  1  0.90296040  0.86518971  0.08997723  1
  Al  Al32  1  0.43934239  0.76009985  0.83321613  1
  Al  Al33  1  0.55771066  0.86874701  0.59832273  1
  Gd  Gd34  1  0.55899485  0.20727401  0.10203967  1
  Gd  Gd35  1  0.55899271  0.86705910  0.10203972  1
  N  N36  1  0.21322355  0.21005671  0.37411796  1
  N  N37  1  0.11021420  0.09561551  0.11386967  1
  N  N38  1  0.88886396  0.20671124  0.86451914  1
  N  N39  1  0.78337999  0.09305523  0.61056179  1
  N  N40  1  0.55931095  0.20615610  0.37420555  1
  N  N41  1  0.41259467  0.11036253  0.13299229  1
  N  N42  1  0.22131933  0.20600907  0.86029633  1
  N  N43  1  0.10868456  0.09472795  0.61859120  1
  N  N44  1  0.89038745  0.20861840  0.36770080  1
  N  N45  1  0.81190862  0.07564269  0.12156494  1
  N  N46  1  0.55638166  0.20528333  0.83672292  1
  N  N47  1  0.43863344  0.09734599  0.60365368  1
  N  N48  1  0.21778052  0.53996444  0.36809989  1
  N  N49  1  0.11021597  0.42750126  0.11387072  1
  N  N50  1  0.88886583  0.53776580  0.86451889  1
  N  N51  1  0.77686816  0.42823429  0.61843400  1
  N  N52  1  0.55830760  0.53751183  0.37005245  1
  N  N53  1  0.42744618  0.45465629  0.12216581  1
  N  N54  1  0.22154944  0.53865862  0.86392525  1
  N  N55  1  0.10868596  0.42991863  0.61858985  1
  N  N56  1  0.89038846  0.53433578  0.36770078  1
  N  N57  1  0.77419176  0.42957264  0.11297822  1
  N  N58  1  0.55396296  0.53968574  0.86132560  1
  N  N59  1  0.43994077  0.43305892  0.60945033  1
  N  N60  1  0.21777688  0.87559428  0.36810053  1
  N  N61  1  0.11404714  0.75964139  0.11505482  1
  N  N62  1  0.89202382  0.87065851  0.85829896  1
  N  N63  1  0.78337882  0.75690043  0.61056294  1
  N  N64  1  0.55931038  0.86786307  0.37420579  1
  N  N65  1  0.42744154  0.75122115  0.12217116  1
  N  N66  1  0.22154811  0.87312951  0.86392563  1
  N  N67  1  0.11387423  0.75972772  0.61752619  1
  N  N68  1  0.89472257  0.86930839  0.37433549  1
  N  N69  1  0.81190671  0.74578472  0.12156303  1
  N  N70  1  0.55637970  0.87166581  0.83672274  1
  N  N71  1  0.43993792  0.76032706  0.60944805  1
