# generated using pymatgen
data_GdAl17N18
_symmetry_space_group_name_H-M   'P 1'
_cell_length_a   9.51113797
_cell_length_b   9.49323309
_cell_length_c   10.14333644
_cell_angle_alpha   89.99997890
_cell_angle_beta   89.91026264
_cell_angle_gamma   60.06231433
_symmetry_Int_Tables_number   1
_chemical_formula_structural   GdAl17N18
_chemical_formula_sum   'Gd2 Al34 N36'
_cell_volume   793.65131283
_cell_formula_units_Z   2
loop_
 _symmetry_equiv_pos_site_id
 _symmetry_equiv_pos_as_xyz
  1  'x, y, z'
loop_
 _atom_site_type_symbol
 _atom_site_label
 _atom_site_symmetry_multiplicity
 _atom_site_fract_x
 _atom_site_fract_y
 _atom_site_fract_z
 _atom_site_occupancy
  Al  Al0  1  0.11063144  0.09537913  0.30515832  1
  Al  Al1  1  0.21476462  0.20928450  0.05614285  1
  Al  Al2  1  0.78028012  0.09306461  0.79634434  1
  Al  Al3  1  0.89036313  0.20687095  0.55514609  1
  Al  Al4  1  0.43856638  0.09738369  0.31745239  1
  Al  Al5  1  0.11059857  0.09445599  0.80632120  1
  Al  Al6  1  0.21691979  0.20820673  0.55458904  1
  Al  Al7  1  0.78625884  0.09049432  0.31163991  1
  Al  Al8  1  0.89480719  0.20342789  0.05668905  1
  Al  Al9  1  0.44084262  0.09624529  0.78749836  1
  Al  Al10  1  0.55671343  0.20699003  0.55442383  1
  Al  Al11  1  0.11063134  0.42732281  0.30515831  1
  Al  Al12  1  0.21786673  0.54362715  0.05713611  1
  Al  Al13  1  0.77639153  0.42847071  0.80694189  1
  Al  Al14  1  0.89036310  0.53609904  0.55514610  1
  Al  Al15  1  0.44086715  0.43350801  0.31129972  1
  Al  Al16  1  0.54928777  0.54202304  0.05764672  1
  Al  Al17  1  0.11059854  0.42827856  0.80632121  1
  Al  Al18  1  0.21915891  0.54062075  0.55506308  1
  Al  Al19  1  0.77770607  0.42781353  0.30596840  1
  Al  Al20  1  0.89480701  0.53509813  0.05668901  1
  Al  Al21  1  0.44130819  0.43149713  0.79619636  1
  Al  Al22  1  0.55685948  0.53823695  0.55384108  1
  Al  Al23  1  0.11144762  0.76094288  0.30467667  1
  Al  Al24  1  0.21786694  0.87183953  0.05713605  1
  Al  Al25  1  0.78028014  0.75998825  0.79634431  1
  Al  Al26  1  0.89251357  0.87040979  0.55453562  1
  Al  Al27  1  0.44086733  0.75895840  0.31129959  1
  Al  Al28  1  0.11098348  0.76117484  0.80645632  1
  Al  Al29  1  0.21915902  0.87355353  0.55506306  1
  Al  Al30  1  0.78625887  0.75658001  0.31163989  1
  Al  Al31  1  0.90129154  0.86602083  0.05781768  1
  Al  Al32  1  0.44130829  0.76052785  0.79619644  1
  Al  Al33  1  0.55671343  0.86962992  0.55442378  1
  Gd  Gd34  1  0.55831518  0.20833782  0.05550547  1
  Gd  Gd35  1  0.55831522  0.86668155  0.05550547  1
  N  N36  1  0.21553570  0.20889890  0.36852091  1
  N  N37  1  0.11167410  0.09464497  0.11412464  1
  N  N38  1  0.88722519  0.20546435  0.86529378  1
  N  N39  1  0.78144487  0.09301512  0.60853853  1
  N  N40  1  0.55845529  0.20639960  0.36170320  1
  N  N41  1  0.41534943  0.10899246  0.13484613  1
  N  N42  1  0.22383905  0.20474710  0.86361010  1
  N  N43  1  0.11033893  0.09463104  0.61700114  1
  N  N44  1  0.89065696  0.20779641  0.36675764  1
  N  N45  1  0.81116421  0.07721890  0.12623466  1
  N  N46  1  0.55429414  0.20568655  0.83312533  1
  N  N47  1  0.44094644  0.09619336  0.60015773  1
  N  N48  1  0.21861576  0.54019173  0.36662000  1
  N  N49  1  0.11167389  0.42701432  0.11412463  1
  N  N50  1  0.88722517  0.54064356  0.86529373  1
  N  N51  1  0.77704920  0.42814184  0.61694091  1
  N  N52  1  0.55830035  0.53751668  0.36723601  1
  N  N53  1  0.42761103  0.45482971  0.12589809  1
  N  N54  1  0.22268750  0.53841266  0.86513795  1
  N  N55  1  0.11033890  0.42836309  0.61700117  1
  N  N56  1  0.89065689  0.53487994  0.36675766  1
  N  N57  1  0.77518929  0.42907176  0.11365664  1
  N  N58  1  0.55292917  0.54020203  0.86468500  1
  N  N59  1  0.44167482  0.43173757  0.60828686  1
  N  N60  1  0.21861594  0.87452589  0.36661993  1
  N  N61  1  0.11392277  0.75970533  0.11515215  1
  N  N62  1  0.88690292  0.87321510  0.86446652  1
  N  N63  1  0.78144487  0.75887295  0.60853850  1
  N  N64  1  0.55845528  0.86847890  0.36170311  1
  N  N65  1  0.42761144  0.75089307  0.12589784  1
  N  N66  1  0.22268755  0.87223308  0.86513793  1
  N  N67  1  0.11130641  0.76101334  0.61727164  1
  N  N68  1  0.89327967  0.87002682  0.36872839  1
  N  N69  1  0.81116427  0.74494978  0.12623464  1
  N  N70  1  0.55429419  0.87335260  0.83312534  1
  N  N71  1  0.44167490  0.75992075  0.60828690  1
