# generated using pymatgen
data_GdAl17N18
_symmetry_space_group_name_H-M   'P 1'
_cell_length_a   9.51112909
_cell_length_b   9.49322716
_cell_length_c   10.14333176
_cell_angle_alpha   90.00008011
_cell_angle_beta   90.08976099
_cell_angle_gamma   60.06247259
_symmetry_Int_Tables_number   1
_chemical_formula_structural   GdAl17N18
_chemical_formula_sum   'Gd2 Al34 N36'
_cell_volume   793.65097322
_cell_formula_units_Z   2
loop_
 _symmetry_equiv_pos_site_id
 _symmetry_equiv_pos_as_xyz
  1  'x, y, z'
loop_
 _atom_site_type_symbol
 _atom_site_label
 _atom_site_symmetry_multiplicity
 _atom_site_fract_x
 _atom_site_fract_y
 _atom_site_fract_z
 _atom_site_occupancy
  Al  Al0  1  0.11052452  0.09449265  0.39112863  1
  Al  Al1  1  0.21469036  0.20932206  0.14130518  1
  Al  Al2  1  0.78618447  0.09053131  0.88580706  1
  Al  Al3  1  0.89028870  0.20690771  0.64230324  1
  Al  Al4  1  0.44076840  0.09628222  0.40994550  1
  Al  Al5  1  0.11055737  0.09541620  0.89229068  1
  Al  Al6  1  0.21684538  0.20824384  0.64285906  1
  Al  Al7  1  0.78020614  0.09310104  0.40110224  1
  Al  Al8  1  0.89473317  0.20346439  0.14076051  1
  Al  Al9  1  0.43849190  0.09742157  0.87998987  1
  Al  Al10  1  0.55663933  0.20702715  0.64302013  1
  Al  Al11  1  0.11052441  0.42831538  0.39112859  1
  Al  Al12  1  0.21779227  0.54366476  0.14031269  1
  Al  Al13  1  0.77763161  0.42785049  0.89148098  1
  Al  Al14  1  0.89028859  0.53613605  0.64230318  1
  Al  Al15  1  0.44123395  0.43153402  0.40124979  1
  Al  Al16  1  0.54921352  0.54206093  0.13980120  1
  Al  Al17  1  0.11055697  0.42736001  0.89229071  1
  Al  Al18  1  0.21908480  0.54065759  0.64238570  1
  Al  Al19  1  0.77631753  0.42850716  0.39050728  1
  Al  Al20  1  0.89473241  0.53513525  0.14076069  1
  Al  Al21  1  0.44079276  0.43354571  0.88614601  1
  Al  Al22  1  0.55678522  0.53827413  0.64360555  1
  Al  Al23  1  0.11090941  0.76121162  0.39099368  1
  Al  Al24  1  0.21779308  0.87187662  0.14031292  1
  Al  Al25  1  0.78618459  0.75661688  0.88580712  1
  Al  Al26  1  0.89243909  0.87044674  0.64291296  1
  Al  Al27  1  0.44123428  0.76056474  0.40124947  1
  Al  Al28  1  0.11137366  0.76097995  0.89277187  1
  Al  Al29  1  0.21908521  0.87359043  0.64238579  1
  Al  Al30  1  0.78020620  0.76002474  0.40110236  1
  Al  Al31  1  0.90121753  0.86605763  0.13963067  1
  Al  Al32  1  0.44079343  0.75899575  0.88614652  1
  Al  Al33  1  0.55663934  0.86966698  0.64302030  1
  Gd  Gd34  1  0.55824003  0.20837638  0.14193860  1
  Gd  Gd35  1  0.55824019  0.86672171  0.14193861  1
  N  N36  1  0.22376458  0.20478423  0.33383738  1
  N  N37  1  0.11159983  0.09468192  0.08332371  1
  N  N38  1  0.89058289  0.20783348  0.83069083  1
  N  N39  1  0.78137090  0.09305152  0.58890782  1
  N  N40  1  0.55422037  0.20572352  0.36431921  1
  N  N41  1  0.41527330  0.10903204  0.06259691  1
  N  N42  1  0.21546049  0.20893675  0.82892620  1
  N  N43  1  0.11026440  0.09466778  0.58044776  1
  N  N44  1  0.88715165  0.20550104  0.33215481  1
  N  N45  1  0.81109006  0.07725546  0.07121260  1
  N  N46  1  0.55838136  0.20643742  0.83574092  1
  N  N47  1  0.44087161  0.09623054  0.59728654  1
  N  N48  1  0.22261296  0.53844993  0.33231031  1
  N  N49  1  0.11159901  0.42705187  0.08332374  1
  N  N50  1  0.89058263  0.53491682  0.83069071  1
  N  N51  1  0.77697514  0.42817822  0.58050751  1
  N  N52  1  0.55285542  0.54023875  0.33276232  1
  N  N53  1  0.42753589  0.45486859  0.07154803  1
  N  N54  1  0.21854126  0.54022907  0.83082776  1
  N  N55  1  0.11026428  0.42840010  0.58044767  1
  N  N56  1  0.88715156  0.54067969  0.33215500  1
  N  N57  1  0.77511501  0.42910815  0.08379188  1
  N  N58  1  0.55822642  0.53755419  0.83021046  1
  N  N59  1  0.44160019  0.43177472  0.58915893  1
  N  N60  1  0.22261311  0.87227011  0.33231040  1
  N  N61  1  0.11384863  0.75974255  0.08229575  1
  N  N62  1  0.89320574  0.87006375  0.82871962  1
  N  N63  1  0.78137091  0.75890938  0.58890793  1
  N  N64  1  0.55422054  0.87338927  0.36431920  1
  N  N65  1  0.42753754  0.75093074  0.07154901  1
  N  N66  1  0.21854194  0.87456319  0.83082802  1
  N  N67  1  0.11123219  0.76105013  0.58017759  1
  N  N68  1  0.88682968  0.87325135  0.33298128  1
  N  N69  1  0.81109027  0.74498608  0.07121265  1
  N  N70  1  0.55838132  0.86851635  0.83574126  1
  N  N71  1  0.44160046  0.75995768  0.58915879  1
