# generated using pymatgen
data_GdAl17N18
_symmetry_space_group_name_H-M   'P 1'
_cell_length_a   9.51113141
_cell_length_b   9.49322856
_cell_length_c   10.14333284
_cell_angle_alpha   89.99992171
_cell_angle_beta   89.91024108
_cell_angle_gamma   60.06247283
_symmetry_Int_Tables_number   1
_chemical_formula_structural   GdAl17N18
_chemical_formula_sum   'Gd2 Al34 N36'
_cell_volume   793.65137029
_cell_formula_units_Z   2
loop_
 _symmetry_equiv_pos_site_id
 _symmetry_equiv_pos_as_xyz
  1  'x, y, z'
loop_
 _atom_site_type_symbol
 _atom_site_label
 _atom_site_symmetry_multiplicity
 _atom_site_fract_x
 _atom_site_fract_y
 _atom_site_fract_z
 _atom_site_occupancy
  Al  Al0  1  0.11060065  0.09539442  0.31685194  1
  Al  Al1  1  0.21473310  0.20930068  0.06783713  1
  Al  Al2  1  0.78024949  0.09307949  0.80804104  1
  Al  Al3  1  0.89033175  0.20688589  0.56683855  1
  Al  Al4  1  0.43853522  0.09739989  0.32915281  1
  Al  Al5  1  0.11056779  0.09447120  0.81801152  1
  Al  Al6  1  0.21688909  0.20822199  0.56628324  1
  Al  Al7  1  0.78622771  0.09050957  0.32333578  1
  Al  Al8  1  0.89477649  0.20344278  0.06838028  1
  Al  Al9  1  0.44081142  0.09626072  0.79919857  1
  Al  Al10  1  0.55668254  0.20700544  0.56612390  1
  Al  Al11  1  0.11060026  0.42733850  0.31685190  1
  Al  Al12  1  0.21783534  0.54364334  0.06882786  1
  Al  Al13  1  0.77636118  0.42848535  0.81863215  1
  Al  Al14  1  0.89033164  0.53611483  0.56683860  1
  Al  Al15  1  0.44083603  0.43352430  0.32299714  1
  Al  Al16  1  0.54925681  0.54203927  0.06933904  1
  Al  Al17  1  0.11056768  0.42829358  0.81801156  1
  Al  Al18  1  0.21912845  0.54063571  0.56675654  1
  Al  Al19  1  0.77767445  0.42782907  0.31766088  1
  Al  Al20  1  0.89477574  0.53511354  0.06838011  1
  Al  Al21  1  0.44127715  0.43151227  0.80789359  1
  Al  Al22  1  0.55682814  0.53825267  0.56553816  1
  Al  Al23  1  0.11141681  0.76095837  0.31637079  1
  Al  Al24  1  0.21783613  0.87185496  0.06882764  1
  Al  Al25  1  0.78024955  0.76000296  0.80804093  1
  Al  Al26  1  0.89248180  0.87042540  0.56622986  1
  Al  Al27  1  0.44083669  0.75897387  0.32299664  1
  Al  Al28  1  0.11095280  0.76118993  0.81814593  1
  Al  Al29  1  0.21912885  0.87356868  0.56675645  1
  Al  Al30  1  0.78622783  0.75659539  0.32333572  1
  Al  Al31  1  0.90126108  0.86603586  0.06950969  1
  Al  Al32  1  0.44127747  0.76054332  0.80789389  1
  Al  Al33  1  0.55668255  0.86964549  0.56612373  1
  Gd  Gd34  1  0.55828314  0.20835475  0.06720432  1
  Gd  Gd35  1  0.55828330  0.86670015  0.06720431  1
  N  N36  1  0.21550388  0.20891505  0.38021618  1
  N  N37  1  0.11164294  0.09466013  0.12581811  1
  N  N38  1  0.88719525  0.20547961  0.87698582  1
  N  N39  1  0.78141414  0.09303000  0.62023508  1
  N  N40  1  0.55842453  0.20641581  0.37340189  1
  N  N41  1  0.41531610  0.10901059  0.14654541  1
  N  N42  1  0.22380725  0.20476290  0.87530425  1
  N  N43  1  0.11030760  0.09464625  0.62869312  1
  N  N44  1  0.89062599  0.20781190  0.37845106  1
  N  N45  1  0.81113351  0.07723365  0.13792917  1
  N  N46  1  0.55426378  0.20570186  0.84482361  1
  N  N47  1  0.44091476  0.09620896  0.61185701  1
  N  N48  1  0.21858459  0.54020747  0.37831457  1
  N  N49  1  0.11164214  0.42703053  0.12581807  1
  N  N50  1  0.88719515  0.54065756  0.87698564  1
  N  N51  1  0.77701870  0.42815646  0.62863318  1
  N  N52  1  0.55826956  0.53753261  0.37893279  1
  N  N53  1  0.42757899  0.45484733  0.13759390  1
  N  N54  1  0.22265575  0.53842857  0.87683026  1
  N  N55  1  0.11030748  0.42837846  0.62869321  1
  N  N56  1  0.89062574  0.53489530  0.37845117  1
  N  N57  1  0.77515813  0.42908661  0.12534940  1
  N  N58  1  0.55289919  0.54021687  0.87637847  1
  N  N59  1  0.44164338  0.43175302  0.61998417  1
  N  N60  1  0.21858526  0.87454146  0.37831431  1
  N  N61  1  0.11389184  0.75972094  0.12684581  1
  N  N62  1  0.88687363  0.87322939  0.87615964  1
  N  N63  1  0.78141416  0.75888769  0.62023497  1
  N  N64  1  0.55842450  0.86849474  0.37340155  1
  N  N65  1  0.42758060  0.75090886  0.13759293  1
  N  N66  1  0.22265591  0.87224869  0.87683016  1
  N  N67  1  0.11127544  0.76102852  0.62896315  1
  N  N68  1  0.89324884  0.87004221  0.38042309  1
  N  N69  1  0.81113372  0.74496447  0.13792913  1
  N  N70  1  0.55426395  0.87336753  0.84482362  1
  N  N71  1  0.44164364  0.75993620  0.61998431  1
