# generated using pymatgen
data_GdAl17N18
_symmetry_space_group_name_H-M   'P 1'
_cell_length_a   9.51113714
_cell_length_b   9.49323232
_cell_length_c   10.14333256
_cell_angle_alpha   89.99998164
_cell_angle_beta   89.91027623
_cell_angle_gamma   60.06230563
_symmetry_Int_Tables_number   1
_chemical_formula_structural   GdAl17N18
_chemical_formula_sum   'Gd2 Al34 N36'
_cell_volume   793.65080789
_cell_formula_units_Z   2
loop_
 _symmetry_equiv_pos_site_id
 _symmetry_equiv_pos_as_xyz
  1  'x, y, z'
loop_
 _atom_site_type_symbol
 _atom_site_label
 _atom_site_symmetry_multiplicity
 _atom_site_fract_x
 _atom_site_fract_y
 _atom_site_fract_z
 _atom_site_occupancy
  Al  Al0  1  0.11063492  0.09537745  0.30387595  1
  Al  Al1  1  0.21476819  0.20928269  0.05486117  1
  Al  Al2  1  0.78028364  0.09306285  0.79506330  1
  Al  Al3  1  0.89036644  0.20686934  0.55386367  1
  Al  Al4  1  0.43856968  0.09738202  0.31617433  1
  Al  Al5  1  0.11060203  0.09445417  0.80503896  1
  Al  Al6  1  0.21692298  0.20820514  0.55330738  1
  Al  Al7  1  0.78626220  0.09049271  0.31035881  1
  Al  Al8  1  0.89481055  0.20342611  0.05540681  1
  Al  Al9  1  0.44084614  0.09624354  0.78621883  1
  Al  Al10  1  0.55671691  0.20698837  0.55314422  1
  Al  Al11  1  0.11063483  0.42732101  0.30387594  1
  Al  Al12  1  0.21787021  0.54362546  0.05585437  1
  Al  Al13  1  0.77639496  0.42846902  0.80566025  1
  Al  Al14  1  0.89036642  0.53609735  0.55386368  1
  Al  Al15  1  0.44087063  0.43350624  0.31001912  1
  Al  Al16  1  0.54929116  0.54202131  0.05636563  1
  Al  Al17  1  0.11060200  0.42827694  0.80503897  1
  Al  Al18  1  0.21916236  0.54061900  0.55378087  1
  Al  Al19  1  0.77770947  0.42781184  0.30468590  1
  Al  Al20  1  0.89481038  0.53509657  0.05540677  1
  Al  Al21  1  0.44131164  0.43149544  0.79491565  1
  Al  Al22  1  0.55686297  0.53823520  0.55255983  1
  Al  Al23  1  0.11145116  0.76094111  0.30339459  1
  Al  Al24  1  0.21787039  0.87183773  0.05585432  1
  Al  Al25  1  0.78028366  0.75998654  0.79506328  1
  Al  Al26  1  0.89251693  0.87040813  0.55325353  1
  Al  Al27  1  0.44087078  0.75895667  0.31001901  1
  Al  Al28  1  0.11098689  0.76117314  0.80517415  1
  Al  Al29  1  0.21916246  0.87355185  0.55378086  1
  Al  Al30  1  0.78626223  0.75657828  0.31035880  1
  Al  Al31  1  0.90129492  0.86601915  0.05653636  1
  Al  Al32  1  0.44131173  0.76052612  0.79491572  1
  Al  Al33  1  0.55671692  0.86962809  0.55314418  1
  Gd  Gd34  1  0.55831805  0.20833579  0.05422623  1
  Gd  Gd35  1  0.55831808  0.86668055  0.05422623  1
  N  N36  1  0.21553844  0.20889752  0.36723989  1
  N  N37  1  0.11167744  0.09464329  0.11284290  1
  N  N38  1  0.88722885  0.20546263  0.86401222  1
  N  N39  1  0.78144852  0.09301333  0.60725769  1
  N  N40  1  0.55845884  0.20639796  0.36042379  1
  N  N41  1  0.41535185  0.10899119  0.13356774  1
  N  N42  1  0.22384241  0.20474542  0.86232888  1
  N  N43  1  0.11034221  0.09462931  0.61571925  1
  N  N44  1  0.89066043  0.20779480  0.36547571  1
  N  N45  1  0.81116774  0.07721727  0.12495370  1
  N  N46  1  0.55429774  0.20568486  0.83184576  1
  N  N47  1  0.44094962  0.09619178  0.59887808  1
  N  N48  1  0.21861909  0.54019000  0.36533833  1
  N  N49  1  0.11167725  0.42701266  0.11284289  1
  N  N50  1  0.88722882  0.54064166  0.86401217  1
  N  N51  1  0.77705273  0.42814011  0.61565933  1
  N  N52  1  0.55830395  0.53751486  0.36595495  1
  N  N53  1  0.42761436  0.45482814  0.12461748  1
  N  N54  1  0.22269077  0.53841109  0.86385661  1
  N  N55  1  0.11034218  0.42836157  0.61571927  1
  N  N56  1  0.89066037  0.53487808  0.36547573  1
  N  N57  1  0.77519280  0.42907005  0.11237482  1
  N  N58  1  0.55293264  0.54020030  0.86340417  1
  N  N59  1  0.44167811  0.43173605  0.60700635  1
  N  N60  1  0.21861925  0.87452428  0.36533828  1
  N  N61  1  0.11392624  0.75970359  0.11387079  1
  N  N62  1  0.88690661  0.87321327  0.86318543  1
  N  N63  1  0.78144852  0.75887114  0.60725766  1
  N  N64  1  0.55845883  0.86847694  0.36042371  1
  N  N65  1  0.42761472  0.75089124  0.12461727  1
  N  N66  1  0.22269082  0.87223139  0.86385659  1
  N  N67  1  0.11130987  0.76101163  0.61598960  1
  N  N68  1  0.89328322  0.87002505  0.36744674  1
  N  N69  1  0.81116778  0.74494795  0.12495369  1
  N  N70  1  0.55429779  0.87335069  0.83184577  1
  N  N71  1  0.44167818  0.75991901  0.60700639  1
