# generated using pymatgen
data_GdAl17N18
_symmetry_space_group_name_H-M   'P 1'
_cell_length_a   9.51113291
_cell_length_b   9.49322954
_cell_length_c   10.14333245
_cell_angle_alpha   89.99994923
_cell_angle_beta   89.91026401
_cell_angle_gamma   60.06238065
_symmetry_Int_Tables_number   1
_chemical_formula_structural   GdAl17N18
_chemical_formula_sum   'Gd2 Al34 N36'
_cell_volume   793.65081171
_cell_formula_units_Z   2
loop_
 _symmetry_equiv_pos_site_id
 _symmetry_equiv_pos_as_xyz
  1  'x, y, z'
loop_
 _atom_site_type_symbol
 _atom_site_label
 _atom_site_symmetry_multiplicity
 _atom_site_fract_x
 _atom_site_fract_y
 _atom_site_fract_z
 _atom_site_occupancy
  Al  Al0  1  0.11061703  0.09538633  0.31062831  1
  Al  Al1  1  0.21475005  0.20929199  0.06161388  1
  Al  Al2  1  0.78026590  0.09307144  0.80181691  1
  Al  Al3  1  0.89034837  0.20687802  0.56061567  1
  Al  Al4  1  0.43855168  0.09739134  0.32292957  1
  Al  Al5  1  0.11058426  0.09446296  0.81179009  1
  Al  Al6  1  0.21690511  0.20821402  0.56005991  1
  Al  Al7  1  0.78624414  0.09050163  0.31711206  1
  Al  Al8  1  0.89479274  0.20343479  0.06215821  1
  Al  Al9  1  0.44082810  0.09625246  0.79297388  1
  Al  Al10  1  0.55669903  0.20699729  0.55989929  1
  Al  Al11  1  0.11061679  0.42733012  0.31062828  1
  Al  Al12  1  0.21785212  0.54363474  0.06260606  1
  Al  Al13  1  0.77637732  0.42847756  0.81241138  1
  Al  Al14  1  0.89034830  0.53610641  0.56061570  1
  Al  Al15  1  0.44085262  0.43351558  0.31677315  1
  Al  Al16  1  0.54927328  0.54203065  0.06311764  1
  Al  Al17  1  0.11058419  0.42828563  0.81179011  1
  Al  Al18  1  0.21914463  0.54062773  0.56053324  1
  Al  Al19  1  0.77769129  0.42782080  0.31143793  1
  Al  Al20  1  0.89479228  0.53510552  0.06215810  1
  Al  Al21  1  0.44129374  0.43150421  0.80166948  1
  Al  Al22  1  0.55684492  0.53824425  0.55931370  1
  Al  Al23  1  0.11143332  0.76095007  0.31014714  1
  Al  Al24  1  0.21785260  0.87184666  0.06260592  1
  Al  Al25  1  0.78026594  0.75999514  0.80181684  1
  Al  Al26  1  0.89249870  0.87041709  0.56000604  1
  Al  Al27  1  0.44085302  0.75896567  0.31677284  1
  Al  Al28  1  0.11096912  0.76118189  0.81192497  1
  Al  Al29  1  0.21914487  0.87356065  0.56053319  1
  Al  Al30  1  0.78624421  0.75658719  0.31711202  1
  Al  Al31  1  0.90127716  0.86602794  0.06328814  1
  Al  Al32  1  0.44129394  0.76053500  0.80166968  1
  Al  Al33  1  0.55669903  0.86963709  0.55989918  1
  Gd  Gd34  1  0.55829960  0.20834559  0.06098066  1
  Gd  Gd35  1  0.55829968  0.86669103  0.06098065  1
  N  N36  1  0.21552013  0.20890679  0.37399286  1
  N  N37  1  0.11165945  0.09465209  0.11959526  1
  N  N38  1  0.88721138  0.20547141  0.87076397  1
  N  N39  1  0.78143071  0.09302194  0.61401134  1
  N  N40  1  0.55844100  0.20640728  0.36717836  1
  N  N41  1  0.41533299  0.10900140  0.14032247  1
  N  N42  1  0.22382421  0.20475446  0.86908168  1
  N  N43  1  0.11032417  0.09463812  0.62247112  1
  N  N44  1  0.89064250  0.20780373  0.37222818  1
  N  N45  1  0.81114981  0.07722595  0.13170641  1
  N  N46  1  0.55428010  0.20569368  0.83860000  1
  N  N47  1  0.44093133  0.09620081  0.60563279  1
  N  N48  1  0.21860103  0.54019910  0.37209125  1
  N  N49  1  0.11165895  0.42702198  0.11959523  1
  N  N50  1  0.88721132  0.54064996  0.87076385  1
  N  N51  1  0.77703501  0.42814864  0.62241136  1
  N  N52  1  0.55828612  0.53752405  0.37270881  1
  N  N53  1  0.42759598  0.45483809  0.13137091  1
  N  N54  1  0.22267262  0.53842016  0.87060853  1
  N  N55  1  0.11032409  0.42837041  0.62247118  1
  N  N56  1  0.89064234  0.53488703  0.37222824  1
  N  N57  1  0.77517483  0.42907867  0.11912705  1
  N  N58  1  0.55291518  0.54020894  0.87015660  1
  N  N59  1  0.44165999  0.43174496  0.61376034  1
  N  N60  1  0.21860144  0.87453330  0.37209110  1
  N  N61  1  0.11390832  0.75971263  0.12062320  1
  N  N62  1  0.88688943  0.87322167  0.86993764  1
  N  N63  1  0.78143072  0.75887977  0.61401128  1
  N  N64  1  0.55844097  0.86848613  0.36717815  1
  N  N65  1  0.42759696  0.75090041  0.13137032  1
  N  N66  1  0.22267271  0.87224033  0.87060847  1
  N  N67  1  0.11129194  0.76102043  0.62274124  1
  N  N68  1  0.89326532  0.87003398  0.37419942  1
  N  N69  1  0.81114993  0.74495658  0.13170638  1
  N  N70  1  0.55428021  0.87335942  0.83860001  1
  N  N71  1  0.44166015  0.75992794  0.61376042  1
