# generated using pymatgen
data_GdAl17N18
_symmetry_space_group_name_H-M   'P 1'
_cell_length_a   10.05009304
_cell_length_b   9.99887290
_cell_length_c   8.66076816
_cell_angle_alpha   90.00002928
_cell_angle_beta   90.01036608
_cell_angle_gamma   60.16901125
_symmetry_Int_Tables_number   1
_chemical_formula_structural   GdAl17N18
_chemical_formula_sum   'Gd2 Al34 N36'
_cell_volume   754.99709910
_cell_formula_units_Z   2
loop_
 _symmetry_equiv_pos_site_id
 _symmetry_equiv_pos_as_xyz
  1  'x, y, z'
loop_
 _atom_site_type_symbol
 _atom_site_label
 _atom_site_symmetry_multiplicity
 _atom_site_fract_x
 _atom_site_fract_y
 _atom_site_fract_z
 _atom_site_occupancy
  Al  Al0  1  0.10950737  0.09619237  0.34735548  1
  Al  Al1  1  0.21061558  0.21135924  0.09262228  1
  Al  Al2  1  0.78556976  0.09103619  0.83745696  1
  Al  Al3  1  0.89015861  0.20798187  0.59693894  1
  Al  Al4  1  0.43526327  0.09903095  0.36308683  1
  Al  Al5  1  0.10994893  0.09445000  0.84491531  1
  Al  Al6  1  0.21457638  0.20937902  0.59718354  1
  Al  Al7  1  0.78759955  0.08940024  0.35790668  1
  Al  Al8  1  0.89420595  0.20438244  0.09652298  1
  Al  Al9  1  0.43861470  0.09735591  0.82702752  1
  Al  Al10  1  0.55756070  0.20681714  0.60009655  1
  Al  Al11  1  0.10950909  0.42763363  0.34735671  1
  Al  Al12  1  0.21702111  0.54328415  0.09692966  1
  Al  Al13  1  0.77640915  0.42846573  0.84709435  1
  Al  Al14  1  0.89015924  0.53520045  0.59693922  1
  Al  Al15  1  0.43963554  0.43467012  0.35766158  1
  Al  Al16  1  0.55053915  0.54139469  0.09681698  1
  Al  Al17  1  0.10995052  0.42893493  0.84491478  1
  Al  Al18  1  0.21836917  0.54036318  0.59642533  1
  Al  Al19  1  0.77663600  0.42835199  0.34744192  1
  Al  Al20  1  0.89420796  0.53475222  0.09652351  1
  Al  Al21  1  0.43927435  0.43414953  0.83699446  1
  Al  Al22  1  0.55708437  0.53812257  0.59714767  1
  Al  Al23  1  0.11167973  0.76082618  0.34815591  1
  Al  Al24  1  0.21701776  0.87303024  0.09692908  1
  Al  Al25  1  0.78556866  0.75673278  0.83745851  1
  Al  Al26  1  0.89449937  0.86941960  0.59881859  1
  Al  Al27  1  0.43963130  0.75902229  0.35766218  1
  Al  Al28  1  0.11378596  0.75977310  0.84393465  1
  Al  Al29  1  0.21836524  0.87460360  0.59642461  1
  Al  Al30  1  0.78759771  0.75633903  0.35790659  1
  Al  Al31  1  0.90323059  0.86505460  0.09400953  1
  Al  Al32  1  0.43927098  0.75990506  0.83699017  1
  Al  Al33  1  0.55755955  0.86895132  0.60009630  1
  Gd  Gd34  1  0.55921992  0.20731017  0.10294016  1
  Gd  Gd35  1  0.55921762  0.86679286  0.10294013  1
  N  N36  1  0.21375853  0.20978788  0.37091100  1
  N  N37  1  0.11015701  0.09552609  0.11107717  1
  N  N38  1  0.88912723  0.20708212  0.86070409  1
  N  N39  1  0.78340633  0.09294497  0.60863905  1
  N  N40  1  0.55904582  0.20616952  0.37413041  1
  N  N41  1  0.41323369  0.11004324  0.12813222  1
  N  N42  1  0.22071443  0.20631030  0.85744489  1
  N  N43  1  0.10871996  0.09480877  0.61474146  1
  N  N44  1  0.89016710  0.20831439  0.36442329  1
  N  N45  1  0.81148207  0.07600544  0.11616749  1
  N  N46  1  0.55657497  0.20527494  0.83572033  1
  N  N47  1  0.43843726  0.09744519  0.60316152  1
  N  N48  1  0.21831875  0.53970387  0.36501175  1
  N  N49  1  0.11015903  0.42764997  0.11107782  1
  N  N50  1  0.88912916  0.53713050  0.86070392  1
  N  N51  1  0.77670487  0.42831789  0.61403931  1
  N  N52  1  0.55759210  0.53786810  0.36654326  1
  N  N53  1  0.42759125  0.45434400  0.11676865  1
  N  N54  1  0.22098193  0.53891746  0.86007492  1
  N  N55  1  0.10872118  0.42980498  0.61474025  1
  N  N56  1  0.89016828  0.53485891  0.36442287  1
  N  N57  1  0.77429703  0.42952237  0.11031332  1
  N  N58  1  0.55457962  0.53937584  0.85772424  1
  N  N59  1  0.43996924  0.43306449  0.60774683  1
  N  N60  1  0.21831431  0.87531412  0.36501308  1
  N  N61  1  0.11423520  0.75954813  0.11210787  1
  N  N62  1  0.89262293  0.87035821  0.85487293  1
  N  N63  1  0.78340477  0.75698823  0.60863984  1
  N  N64  1  0.55904476  0.86811188  0.37413072  1
  N  N65  1  0.42758525  0.75138991  0.11677420  1
  N  N66  1  0.22097957  0.87343622  0.86007515  1
  N  N67  1  0.11378653  0.75977238  0.61346566  1
  N  N68  1  0.89428325  0.86952732  0.37066078  1
  N  N69  1  0.81147975  0.74585315  0.11616558  1
  N  N70  1  0.55657277  0.87147816  0.83572015  1
  N  N71  1  0.43996593  0.76029516  0.60774530  1
