# generated using pymatgen
data_GdAl17N18
_symmetry_space_group_name_H-M   'P 1'
_cell_length_a   9.51291906
_cell_length_b   9.49448470
_cell_length_c   10.13899640
_cell_angle_alpha   89.99951494
_cell_angle_beta   89.91219213
_cell_angle_gamma   60.07024956
_symmetry_Int_Tables_number   1
_chemical_formula_structural   GdAl17N18
_chemical_formula_sum   'Gd2 Al34 N36'
_cell_volume   793.62825219
_cell_formula_units_Z   2
loop_
 _symmetry_equiv_pos_site_id
 _symmetry_equiv_pos_as_xyz
  1  'x, y, z'
loop_
 _atom_site_type_symbol
 _atom_site_label
 _atom_site_symmetry_multiplicity
 _atom_site_fract_x
 _atom_site_fract_y
 _atom_site_fract_z
 _atom_site_occupancy
  Al  Al0  1  0.11056423  0.09542302  0.32398063  1
  Al  Al1  1  0.21465329  0.20934663  0.07493378  1
  Al  Al2  1  0.78022267  0.09308698  0.81523762  1
  Al  Al3  1  0.89030569  0.20689701  0.57398848  1
  Al  Al4  1  0.43843468  0.09745672  0.33635980  1
  Al  Al5  1  0.11054410  0.09447302  0.82514250  1
  Al  Al6  1  0.21685606  0.20823933  0.57347779  1
  Al  Al7  1  0.78627364  0.09047104  0.33048830  1
  Al  Al8  1  0.89474560  0.20344983  0.07550330  1
  Al  Al9  1  0.44083135  0.09624863  0.80641931  1
  Al  Al10  1  0.55668440  0.20700487  0.57324747  1
  Al  Al11  1  0.11056010  0.42734670  0.32398071  1
  Al  Al12  1  0.21779803  0.54365772  0.07594445  1
  Al  Al13  1  0.77634576  0.42848545  0.82576891  1
  Al  Al14  1  0.89030495  0.53612271  0.57398932  1
  Al  Al15  1  0.44078128  0.43358596  0.33014564  1
  Al  Al16  1  0.54921199  0.54207217  0.07643117  1
  Al  Al17  1  0.11054265  0.42830880  0.82514241  1
  Al  Al18  1  0.21911761  0.54063143  0.57390040  1
  Al  Al19  1  0.77762971  0.42784481  0.32479222  1
  Al  Al20  1  0.89473711  0.53512621  0.07550122  1
  Al  Al21  1  0.44127885  0.43147517  0.81507867  1
  Al  Al22  1  0.55680866  0.53826446  0.57271644  1
  Al  Al23  1  0.11140209  0.76096608  0.32349650  1
  Al  Al24  1  0.21780943  0.87188183  0.07594267  1
  Al  Al25  1  0.78022407  0.76000768  0.81523598  1
  Al  Al26  1  0.89247895  0.87042434  0.57342013  1
  Al  Al27  1  0.44079070  0.75897182  0.33014033  1
  Al  Al28  1  0.11097710  0.76117518  0.82526212  1
  Al  Al29  1  0.21912244  0.87358346  0.57389886  1
  Al  Al30  1  0.78627651  0.75657398  0.33048794  1
  Al  Al31  1  0.90129132  0.86601587  0.07660075  1
  Al  Al32  1  0.44128251  0.76057372  0.81508154  1
  Al  Al33  1  0.55668529  0.86964833  0.57324559  1
  Gd  Gd34  1  0.55825850  0.20836246  0.07457219  1
  Gd  Gd35  1  0.55826447  0.86676929  0.07457170  1
  N  N36  1  0.21544122  0.20895336  0.38735470  1
  N  N37  1  0.11158999  0.09468606  0.13288415  1
  N  N38  1  0.88719670  0.20548969  0.88406025  1
  N  N39  1  0.78137296  0.09304205  0.62734941  1
  N  N40  1  0.55842767  0.20642885  0.38043326  1
  N  N41  1  0.41513521  0.10911649  0.15369348  1
  N  N42  1  0.22378289  0.20477871  0.88235529  1
  N  N43  1  0.11026854  0.09464838  0.63577896  1
  N  N44  1  0.89060875  0.20783136  0.38553856  1
  N  N45  1  0.81119156  0.07716886  0.14501365  1
  N  N46  1  0.55427544  0.20569055  0.85208451  1
  N  N47  1  0.44091432  0.09620312  0.61896929  1
  N  N48  1  0.21855898  0.54021752  0.38539722  1
  N  N49  1  0.11158151  0.42705172  0.13288382  1
  N  N50  1  0.88719589  0.54064377  0.88405768  1
  N  N51  1  0.77699445  0.42815686  0.63571991  1
  N  N52  1  0.55824603  0.53755460  0.38604119  1
  N  N53  1  0.42750452  0.45492750  0.14467057  1
  N  N54  1  0.22264948  0.53842911  0.88389712  1
  N  N55  1  0.11026762  0.42840120  0.63577967  1
  N  N56  1  0.89060658  0.53489457  0.38554059  1
  N  N57  1  0.77509578  0.42909952  0.13242117  1
  N  N58  1  0.55289442  0.54022225  0.88343460  1
  N  N59  1  0.44163190  0.43172336  0.62708790  1
  N  N60  1  0.21856785  0.87456600  0.38539345  1
  N  N61  1  0.11388525  0.75972338  0.13391021  1
  N  N62  1  0.88692400  0.87320316  0.88321003  1
  N  N63  1  0.78137397  0.75889481  0.62734817  1
  N  N64  1  0.55842879  0.86850148  0.38042969  1
  N  N65  1  0.42752702  0.75091353  0.14465896  1
  N  N66  1  0.22265244  0.87226061  0.88389707  1
  N  N67  1  0.11128524  0.76101803  0.63603476  1
  N  N68  1  0.89327261  0.87003201  0.38754827  1
  N  N69  1  0.81119764  0.74493609  0.14501393  1
  N  N70  1  0.55427785  0.87337600  0.85208418  1
  N  N71  1  0.44163527  0.75996460  0.62708888  1
