# generated using pymatgen
data_GdAl17N18
_symmetry_space_group_name_H-M   'P 1'
_cell_length_a   9.51113939
_cell_length_b   9.49323417
_cell_length_c   10.14333685
_cell_angle_alpha   90.00001950
_cell_angle_beta   90.08974229
_cell_angle_gamma   60.06230956
_symmetry_Int_Tables_number   1
_chemical_formula_structural   GdAl17N18
_chemical_formula_sum   'Gd2 Al34 N36'
_cell_volume   793.65151630
_cell_formula_units_Z   2
loop_
 _symmetry_equiv_pos_site_id
 _symmetry_equiv_pos_as_xyz
  1  'x, y, z'
loop_
 _atom_site_type_symbol
 _atom_site_label
 _atom_site_symmetry_multiplicity
 _atom_site_fract_x
 _atom_site_fract_y
 _atom_site_fract_z
 _atom_site_occupancy
  Al  Al0  1  0.11049016  0.09451027  0.40404899  1
  Al  Al1  1  0.21465611  0.20933874  0.15422700  1
  Al  Al2  1  0.78615051  0.09054845  0.89872993  1
  Al  Al3  1  0.89025470  0.20692507  0.65522360  1
  Al  Al4  1  0.44073408  0.09629956  0.42287154  1
  Al  Al5  1  0.11052306  0.09543325  0.90521128  1
  Al  Al6  1  0.21681154  0.20826085  0.65578084  1
  Al  Al7  1  0.78017168  0.09311886  0.41402537  1
  Al  Al8  1  0.89469883  0.20348212  0.15368105  1
  Al  Al9  1  0.43845804  0.09743784  0.89291819  1
  Al  Al10  1  0.55660501  0.20704419  0.65594599  1
  Al  Al11  1  0.11049013  0.42833269  0.40404898  1
  Al  Al12  1  0.21775832  0.54368138  0.15323415  1
  Al  Al13  1  0.77759763  0.42786776  0.90440128  1
  Al  Al14  1  0.89025467  0.53615335  0.65522359  1
  Al  Al15  1  0.44119974  0.43155131  0.41417336  1
  Al  Al16  1  0.54917947  0.54207716  0.15272379  1
  Al  Al17  1  0.11052296  0.42737707  0.90521129  1
  Al  Al18  1  0.21905061  0.54067487  0.65530656  1
  Al  Al19  1  0.77628324  0.42852487  0.40342863  1
  Al  Al20  1  0.89469866  0.53515227  0.15368109  1
  Al  Al21  1  0.44075881  0.43356223  0.89907014  1
  Al  Al22  1  0.55675095  0.53829121  0.65652839  1
  Al  Al23  1  0.11087509  0.76122903  0.40391408  1
  Al  Al24  1  0.21775851  0.87189370  0.15323420  1
  Al  Al25  1  0.78615053  0.75663422  0.89872994  1
  Al  Al26  1  0.89240503  0.87046407  0.65583399  1
  Al  Al27  1  0.44119983  0.76058213  0.41417328  1
  Al  Al28  1  0.11133926  0.76099706  0.90569292  1
  Al  Al29  1  0.21905071  0.87360771  0.65530658  1
  Al  Al30  1  0.78017171  0.76004245  0.41402540  1
  Al  Al31  1  0.90118330  0.86607496  0.15255275  1
  Al  Al32  1  0.44075898  0.75901249  0.89907026  1
  Al  Al33  1  0.55660501  0.86968418  0.65594603  1
  Gd  Gd34  1  0.55820693  0.20839198  0.15486477  1
  Gd  Gd35  1  0.55820696  0.86673553  0.15486477  1
  N  N36  1  0.22373053  0.20480136  0.34676000  1
  N  N37  1  0.11156572  0.09469910  0.09624536  1
  N  N38  1  0.89054854  0.20785056  0.84361213  1
  N  N39  1  0.78133640  0.09306938  0.60183127  1
  N  N40  1  0.55418569  0.20574074  0.37724491  1
  N  N41  1  0.41524119  0.10904654  0.07552447  1
  N  N42  1  0.21542749  0.20895300  0.84184917  1
  N  N43  1  0.11023053  0.09468529  0.59336892  1
  N  N44  1  0.88711680  0.20551861  0.34507649  1
  N  N45  1  0.81105590  0.07727302  0.08413553  1
  N  N46  1  0.55834688  0.20645374  0.84866701  1
  N  N47  1  0.44083804  0.09624757  0.61021227  1
  N  N48  1  0.22257895  0.53846695  0.34523238  1
  N  N49  1  0.11156553  0.42706856  0.09624537  1
  N  N50  1  0.89054848  0.53493419  0.84361211  1
  N  N51  1  0.77694083  0.42819604  0.59342926  1
  N  N52  1  0.55282088  0.54025618  0.34568543  1
  N  N53  1  0.42750271  0.45488389  0.08447215  1
  N  N54  1  0.21850748  0.54024587  0.84374974  1
  N  N55  1  0.11023050  0.42841724  0.59336890  1
  N  N56  1  0.88711678  0.54069770  0.34507654  1
  N  N57  1  0.77508088  0.42912599  0.09671344  1
  N  N58  1  0.55819191  0.53757088  0.84313363  1
  N  N59  1  0.44156642  0.43179171  0.60208293  1
  N  N60  1  0.22257900  0.87228733  0.34523240  1
  N  N61  1  0.11381442  0.75975950  0.09521789  1
  N  N62  1  0.89317125  0.87008103  0.84164141  1
  N  N63  1  0.78133641  0.75892719  0.60183129  1
  N  N64  1  0.55418574  0.87340686  0.37724491  1
  N  N65  1  0.42750309  0.75094717  0.08447237  1
  N  N66  1  0.21850765  0.87458002  0.84374980  1
  N  N67  1  0.11119801  0.76106755  0.59309852  1
  N  N68  1  0.88679463  0.87326925  0.34590386  1
  N  N69  1  0.81105594  0.74500402  0.08413554  1
  N  N70  1  0.55834687  0.86853314  0.84866708  1
  N  N71  1  0.44156649  0.75997503  0.60208289  1
