# generated using pymatgen
data_GdAl17N18
_symmetry_space_group_name_H-M   'P 1'
_cell_length_a   9.51113538
_cell_length_b   9.49323146
_cell_length_c   10.14333615
_cell_angle_alpha   90.00006255
_cell_angle_beta   90.08975477
_cell_angle_gamma   60.06242584
_symmetry_Int_Tables_number   1
_chemical_formula_structural   GdAl17N18
_chemical_formula_sum   'Gd2 Al34 N36'
_cell_volume   793.65182823
_cell_formula_units_Z   2
loop_
 _symmetry_equiv_pos_site_id
 _symmetry_equiv_pos_as_xyz
  1  'x, y, z'
loop_
 _atom_site_type_symbol
 _atom_site_label
 _atom_site_symmetry_multiplicity
 _atom_site_fract_x
 _atom_site_fract_y
 _atom_site_fract_z
 _atom_site_occupancy
  Al  Al0  1  0.11051598  0.09449724  0.39432353  1
  Al  Al1  1  0.21468121  0.20932650  0.14449873  1
  Al  Al2  1  0.78617610  0.09053537  0.88900054  1
  Al  Al3  1  0.89028010  0.20691178  0.64549643  1
  Al  Al4  1  0.44075968  0.09628663  0.41313945  1
  Al  Al5  1  0.11054889  0.09542025  0.89548317  1
  Al  Al6  1  0.21683757  0.20824777  0.64605245  1
  Al  Al7  1  0.78019767  0.09310564  0.40429528  1
  Al  Al8  1  0.89472470  0.20346891  0.14395482  1
  Al  Al9  1  0.43848360  0.09742552  0.88318655  1
  Al  Al10  1  0.55663075  0.20703127  0.64621388  1
  Al  Al11  1  0.11051589  0.42831950  0.39432350  1
  Al  Al12  1  0.21778358  0.54366914  0.14350774  1
  Al  Al13  1  0.77762281  0.42785497  0.89467413  1
  Al  Al14  1  0.89028001  0.53614077  0.64549638  1
  Al  Al15  1  0.44122536  0.43153823  0.40444303  1
  Al  Al16  1  0.54920519  0.54206486  0.14299741  1
  Al  Al17  1  0.11054858  0.42736438  0.89548320  1
  Al  Al18  1  0.21907679  0.54066157  0.64557865  1
  Al  Al19  1  0.77630943  0.42851138  0.39370352  1
  Al  Al20  1  0.89472411  0.53513933  0.14395496  1
  Al  Al21  1  0.44078438  0.43354998  0.88933998  1
  Al  Al22  1  0.55677628  0.53827858  0.64679815  1
  Al  Al23  1  0.11090106  0.76121587  0.39418924  1
  Al  Al24  1  0.21778419  0.87188086  0.14350792  1
  Al  Al25  1  0.78617618  0.75662136  0.88900058  1
  Al  Al26  1  0.89243012  0.87045132  0.64610530  1
  Al  Al27  1  0.44122562  0.76056926  0.40444278  1
  Al  Al28  1  0.11136500  0.76098425  0.89596437  1
  Al  Al29  1  0.21907711  0.87359457  0.64557872  1
  Al  Al30  1  0.78019772  0.76002893  0.40429537  1
  Al  Al31  1  0.90120940  0.86606176  0.14282632  1
  Al  Al32  1  0.44078490  0.75899965  0.88934038  1
  Al  Al33  1  0.55663075  0.86967142  0.64621401  1
  Gd  Gd34  1  0.55823193  0.20838022  0.14513384  1
  Gd  Gd35  1  0.55823205  0.86672487  0.14513385  1
  N  N36  1  0.22375568  0.20478871  0.33703223  1
  N  N37  1  0.11159125  0.09468603  0.08651775  1
  N  N38  1  0.89057423  0.20783770  0.83388450  1
  N  N39  1  0.78136224  0.09305614  0.59210139  1
  N  N40  1  0.55421185  0.20572776  0.36751433  1
  N  N41  1  0.41526523  0.10903560  0.06579346  1
  N  N42  1  0.21545276  0.20894054  0.83212025  1
  N  N43  1  0.11025597  0.09467223  0.58364242  1
  N  N44  1  0.88714322  0.20550568  0.33534983  1
  N  N45  1  0.81108171  0.07725964  0.07440731  1
  N  N46  1  0.55837267  0.20644140  0.83893604  1
  N  N47  1  0.44086333  0.09623475  0.60048069  1
  N  N48  1  0.22260406  0.53845445  0.33550567  1
  N  N49  1  0.11159061  0.42705628  0.08651778  1
  N  N50  1  0.89057402  0.53492130  0.83388441  1
  N  N51  1  0.77696683  0.42818258  0.58370273  1
  N  N52  1  0.55284734  0.54024284  0.33595816  1
  N  N53  1  0.42752765  0.45487256  0.07474335  1
  N  N54  1  0.21853314  0.54023316  0.83402127  1
  N  N55  1  0.11025588  0.42840431  0.58364236  1
  N  N56  1  0.88714315  0.54068370  0.33534998  1
  N  N57  1  0.77510634  0.42911273  0.08698650  1
  N  N58  1  0.55821763  0.53755842  0.83340389  1
  N  N59  1  0.44159185  0.43177878  0.59235260  1
  N  N60  1  0.22260418  0.87227456  0.33550574  1
  N  N61  1  0.11384007  0.75974679  0.08548998  1
  N  N62  1  0.89319702  0.87006812  0.83191255  1
  N  N63  1  0.78136225  0.75891377  0.59210147  1
  N  N64  1  0.55421199  0.87339358  0.36751432  1
  N  N65  1  0.42752891  0.75093458  0.07474410  1
  N  N66  1  0.21853367  0.87456717  0.83402147  1
  N  N67  1  0.11122381  0.76105442  0.58337233  1
  N  N68  1  0.88682158  0.87325552  0.33617671  1
  N  N69  1  0.81108186  0.74499066  0.07440735  1
  N  N70  1  0.55837264  0.86852064  0.83893630  1
  N  N71  1  0.44159206  0.75996213  0.59235249  1
