# generated using pymatgen
data_GdAl17N18
_symmetry_space_group_name_H-M   'P 1'
_cell_length_a   9.59327845
_cell_length_b   9.56343761
_cell_length_c   9.94196776
_cell_angle_alpha   89.99965581
_cell_angle_beta   89.94098278
_cell_angle_gamma   60.13585718
_symmetry_Int_Tables_number   1
_chemical_formula_structural   GdAl17N18
_chemical_formula_sum   'Gd2 Al34 N36'
_cell_volume   791.00034654
_cell_formula_units_Z   2
loop_
 _symmetry_equiv_pos_site_id
 _symmetry_equiv_pos_as_xyz
  1  'x, y, z'
loop_
 _atom_site_type_symbol
 _atom_site_label
 _atom_site_symmetry_multiplicity
 _atom_site_fract_x
 _atom_site_fract_y
 _atom_site_fract_z
 _atom_site_occupancy
  Al  Al0  1  0.11016841  0.09591264  0.32558471  1
  Al  Al1  1  0.21369489  0.20984000  0.07599395  1
  Al  Al2  1  0.78038303  0.09312178  0.81823597  1
  Al  Al3  1  0.89028824  0.20723408  0.57625794  1
  Al  Al4  1  0.43670613  0.09831811  0.34137316  1
  Al  Al5  1  0.11041069  0.09432483  0.82731442  1
  Al  Al6  1  0.21582921  0.20876389  0.57684262  1
  Al  Al7  1  0.78791417  0.08951835  0.33330109  1
  Al  Al8  1  0.89446088  0.20340700  0.07721894  1
  Al  Al9  1  0.44139375  0.09595878  0.80957609  1
  Al  Al10  1  0.55727715  0.20696476  0.57584751  1
  Al  Al11  1  0.11016085  0.42724305  0.32558893  1
  Al  Al12  1  0.21766177  0.54361599  0.07759094  1
  Al  Al13  1  0.77638385  0.42845393  0.82819300  1
  Al  Al14  1  0.89028788  0.53580969  0.57626178  1
  Al  Al15  1  0.44009012  0.43468106  0.33301868  1
  Al  Al16  1  0.54864851  0.54236859  0.07752969  1
  Al  Al17  1  0.11040688  0.42857661  0.82731164  1
  Al  Al18  1  0.21886735  0.54057807  0.57604709  1
  Al  Al19  1  0.77730125  0.42799135  0.32628614  1
  Al  Al20  1  0.89444541  0.53543756  0.07721423  1
  Al  Al21  1  0.44144371  0.43092396  0.81785119  1
  Al  Al22  1  0.55709207  0.53813209  0.57559415  1
  Al  Al23  1  0.11136253  0.76098100  0.32509605  1
  Al  Al24  1  0.21769194  0.87207952  0.07759110  1
  Al  Al25  1  0.78038743  0.75978743  0.81823335  1
  Al  Al26  1  0.89311830  0.87010974  0.57669149  1
  Al  Al27  1  0.44011603  0.75855136  0.33301212  1
  Al  Al28  1  0.11191803  0.76069915  0.82709539  1
  Al  Al29  1  0.21887749  0.87390870  0.57604110  1
  Al  Al30  1  0.78792427  0.75584154  0.33330017  1
  Al  Al31  1  0.90207864  0.86561666  0.07741834  1
  Al  Al32  1  0.44145162  0.76094587  0.81785458  1
  Al  Al33  1  0.55728180  0.86911490  0.57584273  1
  Gd  Gd34  1  0.55808996  0.20778741  0.08242578  1
  Gd  Gd35  1  0.55811195  0.86759952  0.08242598  1
  N  N36  1  0.21393396  0.20973306  0.38796630  1
  N  N37  1  0.11099594  0.09507692  0.13159751  1
  N  N38  1  0.88753169  0.20558301  0.88318845  1
  N  N39  1  0.78141280  0.09319077  0.62697423  1
  N  N40  1  0.55906076  0.20641468  0.37893832  1
  N  N41  1  0.41189508  0.11073106  0.15491028  1
  N  N42  1  0.22369417  0.20484684  0.88074843  1
  N  N43  1  0.10975706  0.09461093  0.63541097  1
  N  N44  1  0.89070911  0.20824258  0.38487746  1
  N  N45  1  0.81296050  0.07578434  0.14428773  1
  N  N46  1  0.55483493  0.20530310  0.85438141  1
  N  N47  1  0.44101438  0.09613006  0.61788963  1
  N  N48  1  0.21809757  0.54027714  0.38465635  1
  N  N49  1  0.11098176  0.42721440  0.13159880  1
  N  N50  1  0.88753158  0.54024633  0.88318126  1
  N  N51  1  0.77698340  0.42813360  0.63543527  1
  N  N52  1  0.55850480  0.53745050  0.38588550  1
  N  N53  1  0.42661945  0.45611644  0.14386387  1
  N  N54  1  0.22284019  0.53825080  0.88289123  1
  N  N55  1  0.10975696  0.42890908  0.63541156  1
  N  N56  1  0.89070761  0.53440689  0.38488623  1
  N  N57  1  0.77441066  0.42939373  0.13120735  1
  N  N58  1  0.55296492  0.54020950  0.88203598  1
  N  N59  1  0.44152820  0.43143781  0.62643044  1
  N  N60  1  0.21812058  0.87501314  0.38464432  1
  N  N61  1  0.11401796  0.75964290  0.13258891  1
  N  N62  1  0.88819749  0.87258236  0.88149674  1
  N  N63  1  0.78141690  0.75864938  0.62697344  1
  N  N64  1  0.55906699  0.86793347  0.37893098  1
  N  N65  1  0.42667754  0.75057794  0.14383882  1
  N  N66  1  0.22285121  0.87229237  0.88289512  1
  N  N67  1  0.11196519  0.76066156  0.63535621  1
  N  N68  1  0.89424591  0.86955937  0.38787554  1
  N  N69  1  0.81298215  0.74444994  0.14428924  1
  N  N70  1  0.55484110  0.87325000  0.85438151  1
  N  N71  1  0.44153606  0.76030856  0.62642884  1
