# generated using pymatgen
data_GdAl17N18
_symmetry_space_group_name_H-M   'P 1'
_cell_length_a   9.51114096
_cell_length_b   9.49323504
_cell_length_c   10.14333533
_cell_angle_alpha   89.99999355
_cell_angle_beta   89.91027922
_cell_angle_gamma   60.06227256
_symmetry_Int_Tables_number   1
_chemical_formula_structural   GdAl17N18
_chemical_formula_sum   'Gd2 Al34 N36'
_cell_volume   793.65130592
_cell_formula_units_Z   2
loop_
 _symmetry_equiv_pos_site_id
 _symmetry_equiv_pos_as_xyz
  1  'x, y, z'
loop_
 _atom_site_type_symbol
 _atom_site_label
 _atom_site_symmetry_multiplicity
 _atom_site_fract_x
 _atom_site_fract_y
 _atom_site_fract_z
 _atom_site_occupancy
  Al  Al0  1  0.11065092  0.09536933  0.29780552  1
  Al  Al1  1  0.21478409  0.20927465  0.04878986  1
  Al  Al2  1  0.78029951  0.09305506  0.78899144  1
  Al  Al3  1  0.89038251  0.20686128  0.54779324  1
  Al  Al4  1  0.43858597  0.09737374  0.31009877  1
  Al  Al5  1  0.11061796  0.09444643  0.79896794  1
  Al  Al6  1  0.21693932  0.20819699  0.54723601  1
  Al  Al7  1  0.78627844  0.09048456  0.30428695  1
  Al  Al8  1  0.89482673  0.20341825  0.04933587  1
  Al  Al9  1  0.44086194  0.09623567  0.78014532  1
  Al  Al10  1  0.55673282  0.20698029  0.54707081  1
  Al  Al11  1  0.11065089  0.42731309  0.29780552  1
  Al  Al12  1  0.21788633  0.54361731  0.04978277  1
  Al  Al13  1  0.77641102  0.42846110  0.79958838  1
  Al  Al14  1  0.89038250  0.53608948  0.54779324  1
  Al  Al15  1  0.44088675  0.43349817  0.30394666  1
  Al  Al16  1  0.54930737  0.54201305  0.05029319  1
  Al  Al17  1  0.11061795  0.42826886  0.79896795  1
  Al  Al18  1  0.21917844  0.54061099  0.54771025  1
  Al  Al19  1  0.77772552  0.42780388  0.29861555  1
  Al  Al20  1  0.89482668  0.53508833  0.04933585  1
  Al  Al21  1  0.44132759  0.43148742  0.78884349  1
  Al  Al22  1  0.55687879  0.53822728  0.54648840  1
  Al  Al23  1  0.11146715  0.76093310  0.29732387  1
  Al  Al24  1  0.21788639  0.87182972  0.04978275  1
  Al  Al25  1  0.78029952  0.75997866  0.78899143  1
  Al  Al26  1  0.89253289  0.87040020  0.54718283  1
  Al  Al27  1  0.44088680  0.75894849  0.30394663  1
  Al  Al28  1  0.11100289  0.76116519  0.79910290  1
  Al  Al29  1  0.21917848  0.87354385  0.54771024  1
  Al  Al30  1  0.78627844  0.75657030  0.30428694  1
  Al  Al31  1  0.90131120  0.86601105  0.05046424  1
  Al  Al32  1  0.44132763  0.76051827  0.78884352  1
  Al  Al33  1  0.55673282  0.86962024  0.54707079  1
  Gd  Gd34  1  0.55833490  0.20832761  0.04815221  1
  Gd  Gd35  1  0.55833490  0.86667117  0.04815222  1
  N  N36  1  0.21555536  0.20888901  0.36116768  1
  N  N37  1  0.11169366  0.09463517  0.10677150  1
  N  N38  1  0.88724459  0.20545478  0.85794042  1
  N  N39  1  0.78146425  0.09300558  0.60118554  1
  N  N40  1  0.55847478  0.20638967  0.35434983  1
  N  N41  1  0.41536919  0.10898222  0.12749249  1
  N  N42  1  0.22385836  0.20473746  0.85625688  1
  N  N43  1  0.11035837  0.09462146  0.60964797  1
  N  N44  1  0.89067641  0.20778668  0.35940471  1
  N  N45  1  0.81118395  0.07720915  0.11888142  1
  N  N46  1  0.55431352  0.20567684  0.82577203  1
  N  N47  1  0.44096590  0.09618370  0.59280457  1
  N  N48  1  0.21863539  0.54018188  0.35926704  1
  N  N49  1  0.11169360  0.42700452  0.10677150  1
  N  N50  1  0.88724458  0.54063389  0.85794041  1
  N  N51  1  0.77706868  0.42813226  0.60958766  1
  N  N52  1  0.55831979  0.53750683  0.35988319  1
  N  N53  1  0.42763081  0.45481962  0.11854469  1
  N  N54  1  0.22270681  0.53840304  0.85778454  1
  N  N55  1  0.11035836  0.42835341  0.60964797  1
  N  N56  1  0.89067639  0.53487023  0.35940472  1
  N  N57  1  0.77520884  0.42906218  0.10630345  1
  N  N58  1  0.55294867  0.54019232  0.85733150  1
  N  N59  1  0.44169429  0.43172783  0.60093390  1
  N  N60  1  0.21863545  0.87451608  0.35926703  1
  N  N61  1  0.11394239  0.75969549  0.10779898  1
  N  N62  1  0.88692238  0.87320545  0.85711309  1
  N  N63  1  0.78146426  0.75886339  0.60118553  1
  N  N64  1  0.55847477  0.86846903  0.35434981  1
  N  N65  1  0.42763092  0.75088305  0.11854462  1
  N  N66  1  0.22270683  0.87222344  0.85778453  1
  N  N67  1  0.11132587  0.76100369  0.60991840  1
  N  N68  1  0.89329915  0.87001709  0.36137544  1
  N  N69  1  0.81118396  0.74494012  0.11888141  1
  N  N70  1  0.55431354  0.87334296  0.82577204  1
  N  N71  1  0.44169432  0.75991116  0.60093392  1
