# generated using pymatgen
data_GdAl17N18
_symmetry_space_group_name_H-M   'P 1'
_cell_length_a   9.64928442
_cell_length_b   9.61507115
_cell_length_c   9.79617154
_cell_angle_alpha   89.99983506
_cell_angle_beta   89.95096415
_cell_angle_gamma   60.14722062
_symmetry_Int_Tables_number   1
_chemical_formula_structural   GdAl17N18
_chemical_formula_sum   'Gd2 Al34 N36'
_cell_volume   788.27322554
_cell_formula_units_Z   2
loop_
 _symmetry_equiv_pos_site_id
 _symmetry_equiv_pos_as_xyz
  1  'x, y, z'
loop_
 _atom_site_type_symbol
 _atom_site_label
 _atom_site_symmetry_multiplicity
 _atom_site_fract_x
 _atom_site_fract_y
 _atom_site_fract_z
 _atom_site_occupancy
  Al  Al0  1  0.10999253  0.09616204  0.32633638  1
  Al  Al1  1  0.21353626  0.20991663  0.07654934  1
  Al  Al2  1  0.78081423  0.09302719  0.81930787  1
  Al  Al3  1  0.89037503  0.20750596  0.57732627  1
  Al  Al4  1  0.43616860  0.09858205  0.34453875  1
  Al  Al5  1  0.11032668  0.09422295  0.82855887  1
  Al  Al6  1  0.21497415  0.20919117  0.57842361  1
  Al  Al7  1  0.78848308  0.08920232  0.33506091  1
  Al  Al8  1  0.89432505  0.20331450  0.07818407  1
  Al  Al9  1  0.44128714  0.09601195  0.81041581  1
  Al  Al10  1  0.55758267  0.20704252  0.57802978  1
  Al  Al11  1  0.10998764  0.42716870  0.32634108  1
  Al  Al12  1  0.21775072  0.54352289  0.07857656  1
  Al  Al13  1  0.77638172  0.42845948  0.82966401  1
  Al  Al14  1  0.89037514  0.53545701  0.57732959  1
  Al  Al15  1  0.43990897  0.43500117  0.33491594  1
  Al  Al16  1  0.54840837  0.54248246  0.07827858  1
  Al  Al17  1  0.11032389  0.42876492  0.82855583  1
  Al  Al18  1  0.21848963  0.54071333  0.57706163  1
  Al  Al19  1  0.77724351  0.42802504  0.32686364  1
  Al  Al20  1  0.89431529  0.53567844  0.07818048  1
  Al  Al21  1  0.44123913  0.43112352  0.81880813  1
  Al  Al22  1  0.55741082  0.53797133  0.57689779  1
  Al  Al23  1  0.11125266  0.76103512  0.32588512  1
  Al  Al24  1  0.21777303  0.87208328  0.07857825  1
  Al  Al25  1  0.78081753  0.75945864  0.81930673  1
  Al  Al26  1  0.89362916  0.86985634  0.57829533  1
  Al  Al27  1  0.43992810  0.75840795  0.33491424  1
  Al  Al28  1  0.11237691  0.76047043  0.82821372  1
  Al  Al29  1  0.21849615  0.87415230  0.57705642  1
  Al  Al30  1  0.78849055  0.75559899  0.33505971  1
  Al  Al31  1  0.90218417  0.86556943  0.07784866  1
  Al  Al32  1  0.44124477  0.76095151  0.81880915  1
  Al  Al33  1  0.55758672  0.86872936  0.57802588  1
  Gd  Gd34  1  0.55801258  0.20756607  0.08583614  1
  Gd  Gd35  1  0.55802823  0.86786324  0.08583698  1
  N  N36  1  0.21311906  0.21013637  0.38720334  1
  N  N37  1  0.11083272  0.09523174  0.12991015  1
  N  N38  1  0.88764487  0.20560688  0.88183561  1
  N  N39  1  0.78181823  0.09315899  0.62550321  1
  N  N40  1  0.55939886  0.20642015  0.37785081  1
  N  N41  1  0.41104179  0.11114615  0.15445633  1
  N  N42  1  0.22367619  0.20485324  0.87887173  1
  N  N43  1  0.10948863  0.09460032  0.63438474  1
  N  N44  1  0.89078773  0.20850391  0.38351582  1
  N  N45  1  0.81341687  0.07535112  0.14294542  1
  N  N46  1  0.55505476  0.20520982  0.85310258  1
  N  N47  1  0.44072441  0.09627827  0.61570941  1
  N  N48  1  0.21772889  0.54036685  0.38329738  1
  N  N49  1  0.11082381  0.42722794  0.12991199  1
  N  N50  1  0.88764559  0.54011101  0.88183000  1
  N  N51  1  0.77702367  0.42812069  0.63453110  1
  N  N52  1  0.55883870  0.53727694  0.38478263  1
  N  N53  1  0.42644447  0.45636937  0.14261361  1
  N  N54  1  0.22292534  0.53816421  0.88149346  1
  N  N55  1  0.10948934  0.42919605  0.63438484  1
  N  N56  1  0.89078754  0.53406814  0.38352341  1
  N  N57  1  0.77423020  0.42949859  0.12946953  1
  N  N58  1  0.55286925  0.54025524  0.88035820  1
  N  N59  1  0.44124510  0.43171570  0.62477415  1
  N  N60  1  0.21774567  0.87528711  0.38328762  1
  N  N61  1  0.11397584  0.75966432  0.13088793  1
  N  N62  1  0.88866563  0.87234907  0.87951635  1
  N  N63  1  0.78182156  0.75828931  0.62550371  1
  N  N64  1  0.55940401  0.86757461  0.37784575  1
  N  N65  1  0.42648564  0.75049145  0.14259740  1
  N  N66  1  0.22293471  0.87228934  0.88149742  1
  N  N67  1  0.11232331  0.76048547  0.63423115  1
  N  N68  1  0.89469749  0.86933319  0.38709830  1
  N  N69  1  0.81343246  0.74445540  0.14294597  1
  N  N70  1  0.55505902  0.87311578  0.85310308  1
  N  N71  1  0.44125055  0.76032050  0.62477099  1
