# generated using pymatgen
data_GdAl17N18
_symmetry_space_group_name_H-M   'P 1'
_cell_length_a   10.09240248
_cell_length_b   10.03937738
_cell_length_c   8.54148650
_cell_angle_alpha   89.99998340
_cell_angle_beta   90.01237820
_cell_angle_gamma   60.17158630
_symmetry_Int_Tables_number   1
_chemical_formula_structural   GdAl17N18
_chemical_formula_sum   'Gd2 Al34 N36'
_cell_volume   750.78178466
_cell_formula_units_Z   2
loop_
 _symmetry_equiv_pos_site_id
 _symmetry_equiv_pos_as_xyz
  1  'x, y, z'
loop_
 _atom_site_type_symbol
 _atom_site_label
 _atom_site_symmetry_multiplicity
 _atom_site_fract_x
 _atom_site_fract_y
 _atom_site_fract_z
 _atom_site_occupancy
  Al  Al0  1  0.10956986  0.09514617  0.35940418  1
  Al  Al1  1  0.20956678  0.21188187  0.10773679  1
  Al  Al2  1  0.78739418  0.08956776  0.84701399  1
  Al  Al3  1  0.88980501  0.20796199  0.60684650  1
  Al  Al4  1  0.43697303  0.09817653  0.37026168  1
  Al  Al5  1  0.10976010  0.09551576  0.85420169  1
  Al  Al6  1  0.21588846  0.20872161  0.60586292  1
  Al  Al7  1  0.78632711  0.09049418  0.36665162  1
  Al  Al8  1  0.89448058  0.20457148  0.10672812  1
  Al  Al9  1  0.43674119  0.09829224  0.84087316  1
  Al  Al10  1  0.55698818  0.20651672  0.60541092  1
  Al  Al11  1  0.10957214  0.42861908  0.35940352  1
  Al  Al12  1  0.21668445  0.54328754  0.10681260  1
  Al  Al13  1  0.77644748  0.42844924  0.85551792  1
  Al  Al14  1  0.88980535  0.53557471  0.60684588  1
  Al  Al15  1  0.43927439  0.43448322  0.36635340  1
  Al  Al16  1  0.55093174  0.54119567  0.10672477  1
  Al  Al17  1  0.10976231  0.42805912  0.85420134  1
  Al  Al18  1  0.21877436  0.54026097  0.60693210  1
  Al  Al19  1  0.77633635  0.42850501  0.35761710  1
  Al  Al20  1  0.89448350  0.53429005  0.10672751  1
  Al  Al21  1  0.43920330  0.43481706  0.84702539  1
  Al  Al22  1  0.55658340  0.53837158  0.60671369  1
  Al  Al23  1  0.11318165  0.76007601  0.36009321  1
  Al  Al24  1  0.21667840  0.87336071  0.10681343  1
  Al  Al25  1  0.78739163  0.75638192  0.84701374  1
  Al  Al26  1  0.89426432  0.86953747  0.60640742  1
  Al  Al27  1  0.43926890  0.75957297  0.36635729  1
  Al  Al28  1  0.11238680  0.76047315  0.85446325  1
  Al  Al29  1  0.21876925  0.87429656  0.60693315  1
  Al  Al30  1  0.78632552  0.75652255  0.36664991  1
  Al  Al31  1  0.90353634  0.86490231  0.10857774  1
  Al  Al32  1  0.43919702  0.75930945  0.84702562  1
  Al  Al33  1  0.55698622  0.86982164  0.60541114  1
  Gd  Gd34  1  0.56008844  0.20769054  0.10477717  1
  Gd  Gd35  1  0.56008564  0.86553360  0.10477734  1
  N  N36  1  0.21728980  0.20801990  0.35861118  1
  N  N37  1  0.11002135  0.09533066  0.10262316  1
  N  N38  1  0.88982104  0.20807587  0.85009728  1
  N  N39  1  0.78343483  0.09276389  0.60355293  1
  N  N40  1  0.55752435  0.20583513  0.37399233  1
  N  N41  1  0.41465684  0.10933147  0.10211380  1
  N  N42  1  0.21701141  0.20815891  0.84641975  1
  N  N43  1  0.10872418  0.09496458  0.60214581  1
  N  N44  1  0.88941957  0.20751523  0.35436560  1
  N  N45  1  0.81139351  0.07623143  0.10043989  1
  N  N46  1  0.55781908  0.20563379  0.83489010  1
  N  N47  1  0.43817140  0.09758021  0.60415332  1
  N  N48  1  0.22003782  0.53910255  0.35516435  1
  N  N49  1  0.11002402  0.42798448  0.10262318  1
  N  N50  1  0.88982272  0.53544231  0.85009855  1
  N  N51  1  0.77640767  0.42847063  0.60168377  1
  N  N52  1  0.55544656  0.53893933  0.35655524  1
  N  N53  1  0.42758265  0.45423734  0.10054854  1
  N  N54  1  0.21912153  0.53960187  0.84933443  1
  N  N55  1  0.10872510  0.42964916  0.60214663  1
  N  N56  1  0.88942186  0.53640380  0.35436534  1
  N  N57  1  0.77436490  0.42949353  0.10303443  1
  N  N58  1  0.55658491  0.53836908  0.84804448  1
  N  N59  1  0.43995847  0.43313202  0.60383172  1
  N  N60  1  0.22003312  0.87419107  0.35516485  1
  N  N61  1  0.11449012  0.75942169  0.10246259  1
  N  N62  1  0.89400787  0.86966396  0.84436916  1
  N  N63  1  0.78343249  0.75714900  0.60355240  1
  N  N64  1  0.55752155  0.86996303  0.37399267  1
  N  N65  1  0.42757344  0.75150740  0.10054413  1
  N  N66  1  0.21911524  0.87460865  0.84933217  1
  N  N67  1  0.11359010  0.75987161  0.60164109  1
  N  N68  1  0.89314877  0.87009434  0.35919104  1
  N  N69  1  0.81139014  0.74572530  0.10044204  1
  N  N70  1  0.55781693  0.86986927  0.83488990  1
  N  N71  1  0.43995400  0.76024253  0.60383244  1
