# generated using pymatgen
data_GdAl17N18
_symmetry_space_group_name_H-M   'P 1'
_cell_length_a   9.51114060
_cell_length_b   9.49323488
_cell_length_c   10.14333636
_cell_angle_alpha   90.00002193
_cell_angle_beta   90.08973328
_cell_angle_gamma   60.06231988
_symmetry_Int_Tables_number   1
_chemical_formula_structural   GdAl17N18
_chemical_formula_sum   'Gd2 Al34 N36'
_cell_volume   793.65172055
_cell_formula_units_Z   2
loop_
 _symmetry_equiv_pos_site_id
 _symmetry_equiv_pos_as_xyz
  1  'x, y, z'
loop_
 _atom_site_type_symbol
 _atom_site_label
 _atom_site_symmetry_multiplicity
 _atom_site_fract_x
 _atom_site_fract_y
 _atom_site_fract_z
 _atom_site_occupancy
  Al  Al0  1  0.11049358  0.09450864  0.40276958  1
  Al  Al1  1  0.21465909  0.20933726  0.15294577  1
  Al  Al2  1  0.78615391  0.09054665  0.89744802  1
  Al  Al3  1  0.89025785  0.20692322  0.65394289  1
  Al  Al4  1  0.44073732  0.09629794  0.42158806  1
  Al  Al5  1  0.11052652  0.09543141  0.90393000  1
  Al  Al6  1  0.21681518  0.20825903  0.65449953  1
  Al  Al7  1  0.78017520  0.09311720  0.41274296  1
  Al  Al8  1  0.89470227  0.20348040  0.15240117  1
  Al  Al9  1  0.43846144  0.09743617  0.89163540  1
  Al  Al10  1  0.55660837  0.20704243  0.65466246  1
  Al  Al11  1  0.11049355  0.42833089  0.40276957  1
  Al  Al12  1  0.21776156  0.54367992  0.15195426  1
  Al  Al13  1  0.77760074  0.42786619  0.90312062  1
  Al  Al14  1  0.89025782  0.53615202  0.65394288  1
  Al  Al15  1  0.44120307  0.43154953  0.41289076  1
  Al  Al16  1  0.54918297  0.54207544  0.15144407  1
  Al  Al17  1  0.11052641  0.42737545  0.90393001  1
  Al  Al18  1  0.21905439  0.54067288  0.65402541  1
  Al  Al19  1  0.77628695  0.42852299  0.40214964  1
  Al  Al20  1  0.89470207  0.53515054  0.15240122  1
  Al  Al21  1  0.44076228  0.43356068  0.89778790  1
  Al  Al22  1  0.55675404  0.53828967  0.65524579  1
  Al  Al23  1  0.11087860  0.76122727  0.40263519  1
  Al  Al24  1  0.21776177  0.87189193  0.15195433  1
  Al  Al25  1  0.78615395  0.75663259  0.89744803  1
  Al  Al26  1  0.89240794  0.87046260  0.65455232  1
  Al  Al27  1  0.44120317  0.76058056  0.41289068  1
  Al  Al28  1  0.11134271  0.76099534  0.90441132  1
  Al  Al29  1  0.21905451  0.87360591  0.65402543  1
  Al  Al30  1  0.78017523  0.76004056  0.41274299  1
  Al  Al31  1  0.90118703  0.86607308  0.15127290  1
  Al  Al32  1  0.44076247  0.75901060  0.89778803  1
  Al  Al33  1  0.55660837  0.86968257  0.65466251  1
  Gd  Gd34  1  0.55821001  0.20839022  0.15358214  1
  Gd  Gd35  1  0.55821005  0.86673436  0.15358214  1
  N  N36  1  0.22373348  0.20479988  0.34547925  1
  N  N37  1  0.11156899  0.09469726  0.09496464  1
  N  N38  1  0.89055189  0.20784889  0.84233121  1
  N  N39  1  0.78133985  0.09306770  0.60054902  1
  N  N40  1  0.55418929  0.20573900  0.37596253  1
  N  N41  1  0.41524373  0.10904533  0.07424202  1
  N  N42  1  0.21543075  0.20895138  0.84056769  1
  N  N43  1  0.11023376  0.09468365  0.59208885  1
  N  N44  1  0.88712055  0.20551710  0.34379644  1
  N  N45  1  0.81105949  0.07727115  0.08285452  1
  N  N46  1  0.55835031  0.20645208  0.84738440  1
  N  N47  1  0.44084119  0.09624599  0.60892910  1
  N  N48  1  0.22258187  0.53846560  0.34395234  1
  N  N49  1  0.11156877  0.42706715  0.09496465  1
  N  N50  1  0.89055182  0.53493251  0.84233117  1
  N  N51  1  0.77694443  0.42819421  0.59214924  1
  N  N52  1  0.55282474  0.54025425  0.34440514  1
  N  N53  1  0.42750600  0.45488256  0.08319100  1
  N  N54  1  0.21851102  0.54024410  0.84246835  1
  N  N55  1  0.11023373  0.42841562  0.59208882  1
  N  N56  1  0.88712052  0.54069544  0.34379650  1
  N  N57  1  0.77508420  0.42912430  0.09543316  1
  N  N58  1  0.55819530  0.53756921  0.84185147  1
  N  N59  1  0.44156972  0.43178999  0.60080038  1
  N  N60  1  0.22258192  0.87228576  0.34395236  1
  N  N61  1  0.11381786  0.75975779  0.09393693  1
  N  N62  1  0.89317465  0.87007933  0.84035977  1
  N  N63  1  0.78133986  0.75892538  0.60054905  1
  N  N64  1  0.55418934  0.87340500  0.37596252  1
  N  N65  1  0.42750644  0.75094525  0.08319125  1
  N  N66  1  0.21851121  0.87457826  0.84246842  1
  N  N67  1  0.11120148  0.76106580  0.59181869  1
  N  N68  1  0.88679875  0.87326717  0.34462359  1
  N  N69  1  0.81105955  0.74500223  0.08285453  1
  N  N70  1  0.55835030  0.86853142  0.84738448  1
  N  N71  1  0.44156979  0.75997343  0.60080033  1
