# generated using pymatgen
data_GdAl17N18
_symmetry_space_group_name_H-M   'P 1'
_cell_length_a   9.56288175
_cell_length_b   9.53606741
_cell_length_c   10.01852110
_cell_angle_alpha   90.00052235
_cell_angle_beta   90.06880612
_cell_angle_gamma   60.12589850
_symmetry_Int_Tables_number   1
_chemical_formula_structural   GdAl17N18
_chemical_formula_sum   'Gd2 Al34 N36'
_cell_volume   792.21214901
_cell_formula_units_Z   2
loop_
 _symmetry_equiv_pos_site_id
 _symmetry_equiv_pos_as_xyz
  1  'x, y, z'
loop_
 _atom_site_type_symbol
 _atom_site_label
 _atom_site_symmetry_multiplicity
 _atom_site_fract_x
 _atom_site_fract_y
 _atom_site_fract_z
 _atom_site_occupancy
  Al  Al0  1  0.11043762  0.09438795  0.38234881  1
  Al  Al1  1  0.21389814  0.20973950  0.13328825  1
  Al  Al2  1  0.78747062  0.08975983  0.87656932  1
  Al  Al3  1  0.89024974  0.20710597  0.63334592  1
  Al  Al4  1  0.44131175  0.09600031  0.40006923  1
  Al  Al5  1  0.11029241  0.09575952  0.88380174  1
  Al  Al6  1  0.21628663  0.20853417  0.63309397  1
  Al  Al7  1  0.78022694  0.09314327  0.39149843  1
  Al  Al8  1  0.89456370  0.20343755  0.13225312  1
  Al  Al9  1  0.43717167  0.09809001  0.86937137  1
  Al  Al10  1  0.55706761  0.20693736  0.63410764  1
  Al  Al11  1  0.11043318  0.42848566  0.38235124  1
  Al  Al12  1  0.21765891  0.54363446  0.13188753  1
  Al  Al13  1  0.77735315  0.42796317  0.88303817  1
  Al  Al14  1  0.89024897  0.53597066  0.63334201  1
  Al  Al15  1  0.44145753  0.43096379  0.39180810  1
  Al  Al16  1  0.54879684  0.54229868  0.13178680  1
  Al  Al17  1  0.11028282  0.42727388  0.88379821  1
  Al  Al18  1  0.21901943  0.54054803  0.63352274  1
  Al  Al19  1  0.77636367  0.42846137  0.38154876  1
  Al  Al20  1  0.89454365  0.53529598  0.13225856  1
  Al  Al21  1  0.44025990  0.43439276  0.87691685  1
  Al  Al22  1  0.55693556  0.53821039  0.63416857  1
  Al  Al23  1  0.11162603  0.76084491  0.38245101  1
  Al  Al24  1  0.21769407  0.87206220  0.13188881  1
  Al  Al25  1  0.78748195  0.75603988  0.87657004  1
  Al  Al26  1  0.89285798  0.87023768  0.63321894  1
  Al  Al27  1  0.44146687  0.76089247  0.39180308  1
  Al  Al28  1  0.11140835  0.76095915  0.88431755  1
  Al  Al29  1  0.21903182  0.87378341  0.63352902  1
  Al  Al30  1  0.78023202  0.75991737  0.39150218  1
  Al  Al31  1  0.90194540  0.86567936  0.13175458  1
  Al  Al32  1  0.44028970  0.75867550  0.87692699  1
  Al  Al33  1  0.55707235  0.86935173  0.63411287  1
  Gd  Gd34  1  0.55820373  0.20795435  0.12882225  1
  Gd  Gd35  1  0.55822870  0.86734083  0.12882260  1
  N  N36  1  0.22367560  0.20485608  0.32738906  1
  N  N37  1  0.11114716  0.09497254  0.07662133  1
  N  N38  1  0.89066693  0.20810376  0.82354299  1
  N  N39  1  0.78126394  0.09318064  0.58146713  1
  N  N40  1  0.55467555  0.20540427  0.35457649  1
  N  N41  1  0.41272716  0.11032560  0.05418432  1
  N  N42  1  0.21448098  0.20946078  0.82085252  1
  N  N43  1  0.10990815  0.09462617  0.57317831  1
  N  N44  1  0.88743527  0.20556434  0.32520077  1
  N  N45  1  0.81256168  0.07611517  0.06410736  1
  N  N46  1  0.55885142  0.20640645  0.82941070  1
  N  N47  1  0.44107688  0.09609794  0.59017201  1
  N  N48  1  0.22276962  0.53830723  0.32547259  1
  N  N49  1  0.11112865  0.42716733  0.07662064  1
  N  N50  1  0.89066411  0.53458551  0.82353389  1
  N  N51  1  0.77695341  0.42814493  0.57317578  1
  N  N52  1  0.55296553  0.54020888  0.32617634  1
  N  N53  1  0.42681229  0.45583504  0.06456403  1
  N  N54  1  0.21828773  0.54024220  0.82375515  1
  N  N55  1  0.10990739  0.42873921  0.57317731  1
  N  N56  1  0.88743446  0.54035712  0.32520888  1
  N  N57  1  0.77455683  0.42931316  0.07702208  1
  N  N58  1  0.55834885  0.53753195  0.82268849  1
  N  N59  1  0.44161759  0.43139416  0.58190867  1
  N  N60  1  0.22278137  0.87230616  0.32546917  1
  N  N61  1  0.11403221  0.75963665  0.07563711  1
  N  N62  1  0.89396563  0.86969890  0.82086149  1
  N  N63  1  0.78126836  0.75880177  0.58146893  1
  N  N64  1  0.55468285  0.87330976  0.35457683  1
  N  N65  1  0.42688083  0.75067670  0.06459480  1
  N  N66  1  0.21831443  0.87485817  0.82376834  1
  N  N67  1  0.11174337  0.76077116  0.57312926  1
  N  N68  1  0.88784589  0.87275596  0.32657660  1
  N  N69  1  0.81258634  0.74450447  0.06410531  1
  N  N70  1  0.55885794  0.86815958  0.82941952  1
  N  N71  1  0.44162692  0.76026064  0.58190913  1
