# generated using pymatgen
data_GdAl17N18
_symmetry_space_group_name_H-M   'P 1'
_cell_length_a   9.51113235
_cell_length_b   9.49322938
_cell_length_c   10.14333539
_cell_angle_alpha   89.99994416
_cell_angle_beta   89.91024371
_cell_angle_gamma   60.06240071
_symmetry_Int_Tables_number   1
_chemical_formula_structural   GdAl17N18
_chemical_formula_sum   'Gd2 Al34 N36'
_cell_volume   793.65114149
_cell_formula_units_Z   2
loop_
 _symmetry_equiv_pos_site_id
 _symmetry_equiv_pos_as_xyz
  1  'x, y, z'
loop_
 _atom_site_type_symbol
 _atom_site_label
 _atom_site_symmetry_multiplicity
 _atom_site_fract_x
 _atom_site_fract_y
 _atom_site_fract_z
 _atom_site_occupancy
  Al  Al0  1  0.11061306  0.09538839  0.31210470  1
  Al  Al1  1  0.21474623  0.20929394  0.06308971  1
  Al  Al2  1  0.78026183  0.09307343  0.80329154  1
  Al  Al3  1  0.89034470  0.20688000  0.56209244  1
  Al  Al4  1  0.43854776  0.09739337  0.32440155  1
  Al  Al5  1  0.11058023  0.09446489  0.81326782  1
  Al  Al6  1  0.21690120  0.20821597  0.56153592  1
  Al  Al7  1  0.78624029  0.09050349  0.31858707  1
  Al  Al8  1  0.89478881  0.20343680  0.06363568  1
  Al  Al9  1  0.44082432  0.09625433  0.79444645  1
  Al  Al10  1  0.55669509  0.20699927  0.56137190  1
  Al  Al11  1  0.11061279  0.42733204  0.31210467  1
  Al  Al12  1  0.21784813  0.54363662  0.06408313  1
  Al  Al13  1  0.77637313  0.42847960  0.81388898  1
  Al  Al14  1  0.89034462  0.53610803  0.56209247  1
  Al  Al15  1  0.44084857  0.43351751  0.31824727  1
  Al  Al16  1  0.54926923  0.54203275  0.06459411  1
  Al  Al17  1  0.11058015  0.42828766  0.81326785  1
  Al  Al18  1  0.21914044  0.54062990  0.56200957  1
  Al  Al19  1  0.77768759  0.42782262  0.31291468  1
  Al  Al20  1  0.89478829  0.53510739  0.06363556  1
  Al  Al21  1  0.44128978  0.43150627  0.80314366  1
  Al  Al22  1  0.55684116  0.53824613  0.56078803  1
  Al  Al23  1  0.11142925  0.76095212  0.31162322  1
  Al  Al24  1  0.21784867  0.87184880  0.06408297  1
  Al  Al25  1  0.78026187  0.75999712  0.80329146  1
  Al  Al26  1  0.89249521  0.87041881  0.56148215  1
  Al  Al27  1  0.44084902  0.75896787  0.31824692  1
  Al  Al28  1  0.11096513  0.76118386  0.81340304  1
  Al  Al29  1  0.21914072  0.87356263  0.56200951  1
  Al  Al30  1  0.78624037  0.75658911  0.31858702  1
  Al  Al31  1  0.90127305  0.86602996  0.06476491  1
  Al  Al32  1  0.44129001  0.76053686  0.80314388  1
  Al  Al33  1  0.55669509  0.86963906  0.56137178  1
  Gd  Gd34  1  0.55829632  0.20834794  0.06245376  1
  Gd  Gd35  1  0.55829642  0.86669234  0.06245376  1
  N  N36  1  0.21551678  0.20890850  0.37546824  1
  N  N37  1  0.11165564  0.09465419  0.12107151  1
  N  N38  1  0.88720702  0.20547324  0.87224087  1
  N  N39  1  0.78142658  0.09302393  0.61548587  1
  N  N40  1  0.55843696  0.20640923  0.36865156  1
  N  N41  1  0.41533021  0.10900294  0.14179510  1
  N  N42  1  0.22382069  0.20475621  0.87055728  1
  N  N43  1  0.11032040  0.09463998  0.62394792  1
  N  N44  1  0.89063861  0.20780561  0.37370427  1
  N  N45  1  0.81114564  0.07722790  0.13318200  1
  N  N46  1  0.55427592  0.20569571  0.84007350  1
  N  N47  1  0.44092783  0.09620253  0.60710581  1
  N  N48  1  0.21859714  0.54020109  0.37356687  1
  N  N49  1  0.11165507  0.42702371  0.12107149  1
  N  N50  1  0.88720695  0.54065243  0.87224074  1
  N  N51  1  0.77703079  0.42815068  0.62388792  1
  N  N52  1  0.55828204  0.53752615  0.37418310  1
  N  N53  1  0.42759207  0.45483980  0.13284586  1
  N  N54  1  0.22266909  0.53842182  0.87208520  1
  N  N55  1  0.11032032  0.42837223  0.62394798  1
  N  N56  1  0.89063843  0.53488901  0.37370435  1
  N  N57  1  0.77517078  0.42908060  0.12060340  1
  N  N58  1  0.55291082  0.54021111  0.87163255  1
  N  N59  1  0.44165625  0.43174681  0.61523435  1
  N  N60  1  0.21859760  0.87453522  0.37356670  1
  N  N61  1  0.11390428  0.75971467  0.12209929  1
  N  N62  1  0.88688477  0.87322396  0.87141387  1
  N  N63  1  0.78142658  0.75888179  0.61548579  1
  N  N64  1  0.55843693  0.86848836  0.36865133  1
  N  N65  1  0.42759319  0.75090275  0.13284519  1
  N  N66  1  0.22266920  0.87224217  0.87208513  1
  N  N67  1  0.11128803  0.76102235  0.62421836  1
  N  N68  1  0.89326138  0.87003595  0.37567524  1
  N  N69  1  0.81114578  0.74495863  0.13318197  1
  N  N70  1  0.55427604  0.87336158  0.84007351  1
  N  N71  1  0.44165644  0.75992977  0.61523445  1
