# generated using pymatgen
data_GdAl17N18
_symmetry_space_group_name_H-M   'P 1'
_cell_length_a   9.95341954
_cell_length_b   9.90488895
_cell_length_c   8.94305811
_cell_angle_alpha   90.00004238
_cell_angle_beta   89.99163575
_cell_angle_gamma   60.16685032
_symmetry_Int_Tables_number   1
_chemical_formula_structural   GdAl17N18
_chemical_formula_sum   'Gd2 Al34 N36'
_cell_volume   764.83248024
_cell_formula_units_Z   2
loop_
 _symmetry_equiv_pos_site_id
 _symmetry_equiv_pos_as_xyz
  1  'x, y, z'
loop_
 _atom_site_type_symbol
 _atom_site_label
 _atom_site_symmetry_multiplicity
 _atom_site_fract_x
 _atom_site_fract_y
 _atom_site_fract_z
 _atom_site_occupancy
  Al  Al0  1  0.10957360  0.09664503  0.33769216  1
  Al  Al1  1  0.21180820  0.21076610  0.08468722  1
  Al  Al2  1  0.78419919  0.09198381  0.82918196  1
  Al  Al3  1  0.89051429  0.20830073  0.58855834  1
  Al  Al4  1  0.43528233  0.09902129  0.36022920  1
  Al  Al5  1  0.10992080  0.09401168  0.83901988  1
  Al  Al6  1  0.21341060  0.20996403  0.59114674  1
  Al  Al7  1  0.78850123  0.08880058  0.35046725  1
  Al  Al8  1  0.89397839  0.20364245  0.08880911  1
  Al  Al9  1  0.43931626  0.09700381  0.81979621  1
  Al  Al10  1  0.55789562  0.20696529  0.59526645  1
  Al  Al11  1  0.10957468  0.42711161  0.33769459  1
  Al  Al12  1  0.21772299  0.54313803  0.08940596  1
  Al  Al13  1  0.77651870  0.42840735  0.84120271  1
  Al  Al14  1  0.89051494  0.53452677  0.58855862  1
  Al  Al15  1  0.43981469  0.43493827  0.35064629  1
  Al  Al16  1  0.54917062  0.54208292  0.08843810  1
  Al  Al17  1  0.10992157  0.42939753  0.83901784  1
  Al  Al18  1  0.21755921  0.54086464  0.58808440  1
  Al  Al19  1  0.77680321  0.42826446  0.33737314  1
  Al  Al20  1  0.89397958  0.53571862  0.08880883  1
  Al  Al21  1  0.43949125  0.43352950  0.82847455  1
  Al  Al22  1  0.55805420  0.53763995  0.58908532  1
  Al  Al23  1  0.11093259  0.76119842  0.33786769  1
  Al  Al24  1  0.21772355  0.87247863  0.08940698  1
  Al  Al25  1  0.78419881  0.75714826  0.82918340  1
  Al  Al26  1  0.89505392  0.86914293  0.59188795  1
  Al  Al27  1  0.43981361  0.75857208  0.35064986  1
  Al  Al28  1  0.11418254  0.75957334  0.83791312  1
  Al  Al29  1  0.21755646  0.87491703  0.58808352  1
  Al  Al30  1  0.78850056  0.75602851  0.35046598  1
  Al  Al31  1  0.90256073  0.86538958  0.08558831  1
  Al  Al32  1  0.43948989  0.76030508  0.82847081  1
  Al  Al33  1  0.55789582  0.86847297  0.59526593  1
  Gd  Gd34  1  0.55867534  0.20726267  0.10013627  1
  Gd  Gd35  1  0.55867418  0.86740093  0.10013653  1
  N  N36  1  0.21252653  0.21040838  0.37808834  1
  N  N37  1  0.11030358  0.09568372  0.11761442  1
  N  N38  1  0.88850057  0.20625170  0.86947367  1
  N  N39  1  0.78336693  0.09311934  0.61355885  1
  N  N40  1  0.55963949  0.20618103  0.37443178  1
  N  N41  1  0.41172366  0.11079729  0.13954933  1
  N  N42  1  0.22209675  0.20562322  0.86442986  1
  N  N43  1  0.10866307  0.09463111  0.62345603  1
  N  N44  1  0.89064656  0.20896441  0.37189857  1
  N  N45  1  0.81257390  0.07517627  0.12835689  1
  N  N46  1  0.55611859  0.20527447  0.83886345  1
  N  N47  1  0.43891291  0.09720364  0.60477650  1
  N  N48  1  0.21718132  0.54028635  0.37206144  1
  N  N49  1  0.11030466  0.42733912  0.11761598  1
  N  N50  1  0.88850243  0.53859180  0.86947300  1
  N  N51  1  0.77705524  0.42813645  0.62386684  1
  N  N52  1  0.55913536  0.53710136  0.37438736  1
  N  N53  1  0.42716645  0.45520494  0.12883044  1
  N  N54  1  0.22223622  0.53834025  0.86893314  1
  N  N55  1  0.10866459  0.43003125  0.62345468  1
  N  N56  1  0.89064755  0.53373331  0.37189962  1
  N  N57  1  0.77405756  0.42963451  0.11662192  1
  N  N58  1  0.55326459  0.54003822  0.86623889  1
  N  N59  1  0.43994631  0.43305970  0.61225387  1
  N  N60  1  0.21717962  0.87587704  0.37206067  1
  N  N61  1  0.11384284  0.75974184  0.11878652  1
  N  N62  1  0.89117980  0.87108220  0.86323320  1
  N  N63  1  0.78336646  0.75684108  0.61356047  1
  N  N64  1  0.55963982  0.86751611  0.37443179  1
  N  N65  1  0.42716523  0.75094841  0.12883452  1
  N  N66  1  0.22223671  0.87276613  0.86893398  1
  N  N67  1  0.11386236  0.75973159  0.62268232  1
  N  N68  1  0.89524600  0.86904834  0.37858822  1
  N  N69  1  0.81257331  0.74557499  0.12835524  1
  N  N70  1  0.55611722  0.87194365  0.83886328  1
  N  N71  1  0.43994441  0.76031544  0.61225040  1
