# generated using pymatgen
data_GdAl17N18
_symmetry_space_group_name_H-M   'P 1'
_cell_length_a   9.80934165
_cell_length_b   9.76627257
_cell_length_c   9.35705545
_cell_angle_alpha   90.00001794
_cell_angle_beta   89.97173848
_cell_angle_gamma   60.16150386
_symmetry_Int_Tables_number   1
_chemical_formula_structural   GdAl17N18
_chemical_formula_sum   'Gd2 Al34 N36'
_cell_volume   777.57617904
_cell_formula_units_Z   2
loop_
 _symmetry_equiv_pos_site_id
 _symmetry_equiv_pos_as_xyz
  1  'x, y, z'
loop_
 _atom_site_type_symbol
 _atom_site_label
 _atom_site_symmetry_multiplicity
 _atom_site_fract_x
 _atom_site_fract_y
 _atom_site_fract_z
 _atom_site_occupancy
  Al  Al0  1  0.10968287  0.09666587  0.33025712  1
  Al  Al1  1  0.21301934  0.21016683  0.07935503  1
  Al  Al2  1  0.78260658  0.09255134  0.82292213  1
  Al  Al3  1  0.89060564  0.20817168  0.58163610  1
  Al  Al4  1  0.43553835  0.09889335  0.35381318  1
  Al  Al5  1  0.11006201  0.09395724  0.83325662  1
  Al  Al6  1  0.21323277  0.21005721  0.58405437  1
  Al  Al7  1  0.78897431  0.08875843  0.34197200  1
  Al  Al8  1  0.89401275  0.20318346  0.08244122  1
  Al  Al9  1  0.44025519  0.09653112  0.81358442  1
  Al  Al10  1  0.55803270  0.20713393  0.58702071  1
  Al  Al11  1  0.10968218  0.42697711  0.33026098  1
  Al  Al12  1  0.21802200  0.54320851  0.08296991  1
  Al  Al13  1  0.77645244  0.42843388  0.83510083  1
  Al  Al14  1  0.89060626  0.53456494  0.58163766  1
  Al  Al15  1  0.43983841  0.43515683  0.34223162  1
  Al  Al16  1  0.54822842  0.54256089  0.08208931  1
  Al  Al17  1  0.11006127  0.42930385  0.83325364  1
  Al  Al18  1  0.21752404  0.54106454  0.58124670  1
  Al  Al19  1  0.77706623  0.42812539  0.33017146  1
  Al  Al20  1  0.89401116  0.53613861  0.08243953  1
  Al  Al21  1  0.44021180  0.43247330  0.82219491  1
  Al  Al22  1  0.55821615  0.53756323  0.58181365  1
  Al  Al23  1  0.11087469  0.76122518  0.32998950  1
  Al  Al24  1  0.21803033  0.87211763  0.08297258  1
  Al  Al25  1  0.78260768  0.75816012  0.82292304  1
  Al  Al26  1  0.89485117  0.86924553  0.58419738  1
  Al  Al27  1  0.43984448  0.75832460  0.34223616  1
  Al  Al28  1  0.11356184  0.75988117  0.83258686  1
  Al  Al29  1  0.21752438  0.87475994  0.58124396  1
  Al  Al30  1  0.78897649  0.75557947  0.34197028  1
  Al  Al31  1  0.90217510  0.86558106  0.08045068  1
  Al  Al32  1  0.44021341  0.76063496  0.82219247  1
  Al  Al33  1  0.55803494  0.86817681  0.58701908  1
  Gd  Gd34  1  0.55813620  0.20729550  0.09408206  1
  Gd  Gd35  1  0.55813988  0.86794278  0.09408284  1
  N  N36  1  0.21193715  0.21071309  0.38372104  1
  N  N37  1  0.11053081  0.09556716  0.12423549  1
  N  N38  1  0.88796049  0.20573282  0.87687668  1
  N  N39  1  0.78301791  0.09305388  0.61990434  1
  N  N40  1  0.55991568  0.20633380  0.37563007  1
  N  N41  1  0.41061514  0.11135075  0.14974625  1
  N  N42  1  0.22323583  0.20506214  0.87230737  1
  N  N43  1  0.10889336  0.09456751  0.63029908  1
  N  N44  1  0.89088542  0.20905887  0.37854198  1
  N  N45  1  0.81349780  0.07483870  0.13764446  1
  N  N46  1  0.55559671  0.20519314  0.84568912  1
  N  N47  1  0.43962525  0.09683936  0.60905748  1
  N  N48  1  0.21693458  0.54054212  0.37842938  1
  N  N49  1  0.11052913  0.42721453  0.12423751  1
  N  N50  1  0.88796208  0.53966017  0.87687422  1
  N  N51  1  0.77715168  0.42807546  0.63086324  1
  N  N52  1  0.55960433  0.53687742  0.38057755  1
  N  N53  1  0.42659883  0.45614637  0.13771883  1
  N  N54  1  0.22294246  0.53805025  0.87643933  1
  N  N55  1  0.10889492  0.42984774  0.63029826  1
  N  N56  1  0.89088639  0.53340780  0.37854590  1
  N  N57  1  0.77399187  0.42964995  0.12343606  1
  N  N58  1  0.55268606  0.54033638  0.87437242  1
  N  N59  1  0.44033860  0.43272984  0.61868133  1
  N  N60  1  0.21693933  0.87588431  0.37842488  1
  N  N61  1  0.11378649  0.75976490  0.12523537  1
  N  N62  1  0.88979645  0.87177883  0.87237221  1
  N  N63  1  0.78301926  0.75723079  0.61990630  1
  N  N64  1  0.55991825  0.86710843  0.37562880  1
  N  N65  1  0.42661064  0.75056425  0.13771737  1
  N  N66  1  0.22294730  0.87236538  0.87644188  1
  N  N67  1  0.11328314  0.76001481  0.62992438  1
  N  N68  1  0.89548691  0.86893284  0.38395893  1
  N  N69  1  0.81350223  0.74495225  0.13764338  1
  N  N70  1  0.55559728  0.87256483  0.84568929  1
  N  N71  1  0.44033953  0.76023634  0.61867650  1
