# generated using pymatgen
data_GdAl17N18
_symmetry_space_group_name_H-M   'P 1'
_cell_length_a   9.90812348
_cell_length_b   9.86111585
_cell_length_c   9.07469543
_cell_angle_alpha   90.00004027
_cell_angle_beta   89.98470415
_cell_angle_gamma   60.16556424
_symmetry_Int_Tables_number   1
_chemical_formula_structural   GdAl17N18
_chemical_formula_sum   'Gd2 Al34 N36'
_cell_volume   769.13446762
_cell_formula_units_Z   2
loop_
 _symmetry_equiv_pos_site_id
 _symmetry_equiv_pos_as_xyz
  1  'x, y, z'
loop_
 _atom_site_type_symbol
 _atom_site_label
 _atom_site_symmetry_multiplicity
 _atom_site_fract_x
 _atom_site_fract_y
 _atom_site_fract_z
 _atom_site_occupancy
  Al  Al0  1  0.10959926  0.09671985  0.33473727  1
  Al  Al1  1  0.21226469  0.21053971  0.08250199  1
  Al  Al2  1  0.78371100  0.09220503  0.82667288  1
  Al  Al3  1  0.89058743  0.20833625  0.58589262  1
  Al  Al4  1  0.43535122  0.09898663  0.35850279  1
  Al  Al5  1  0.10994475  0.09393916  0.83699101  1
  Al  Al6  1  0.21315557  0.21009283  0.58870161  1
  Al  Al7  1  0.78874450  0.08871690  0.34755141  1
  Al  Al8  1  0.89394986  0.20341157  0.08640826  1
  Al  Al9  1  0.43959239  0.09686475  0.81737867  1
  Al  Al10  1  0.55798414  0.20703230  0.59284480  1
  Al  Al11  1  0.10959996  0.42700957  0.33474021  1
  Al  Al12  1  0.21790788  0.54312177  0.08700550  1
  Al  Al13  1  0.77651759  0.42840608  0.83913712  1
  Al  Al14  1  0.89058805  0.53441880  0.58589319  1
  Al  Al15  1  0.43984432  0.43502764  0.34783556  1
  Al  Al16  1  0.54872117  0.54230960  0.08595222  1
  Al  Al17  1  0.10994515  0.42944399  0.83698852  1
  Al  Al18  1  0.21740592  0.54100343  0.58544460  1
  Al  Al19  1  0.77689084  0.42821855  0.33440199  1
  Al  Al20  1  0.89395050  0.53597741  0.08640755  1
  Al  Al21  1  0.43965959  0.43325123  0.82592938  1
  Al  Al22  1  0.55825300  0.53754177  0.58637591  1
  Al  Al23  1  0.11082710  0.76125039  0.33472167  1
  Al  Al24  1  0.21791050  0.87231258  0.08700720  1
  Al  Al25  1  0.78371101  0.75741139  0.82667423  1
  Al  Al26  1  0.89511451  0.86911316  0.58919648  1
  Al  Al27  1  0.43984504  0.75845125  0.34784011  1
  Al  Al28  1  0.11408662  0.75962048  0.83602881  1
  Al  Al29  1  0.21740383  0.87493403  0.58544327  1
  Al  Al30  1  0.78874454  0.75586399  0.34754982  1
  Al  Al31  1  0.90235806  0.86549090  0.08345519  1
  Al  Al32  1  0.43965903  0.76041315  0.82592592  1
  Al  Al33  1  0.55798493  0.86832016  0.59284405  1
  Gd  Gd34  1  0.55847379  0.20726473  0.09844211  1
  Gd  Gd35  1  0.55847367  0.86760950  0.09844256  1
  N  N36  1  0.21217827  0.21058524  0.38027039  1
  N  N37  1  0.11037139  0.09568038  0.11992526  1
  N  N38  1  0.88828847  0.20601823  0.87228603  1
  N  N39  1  0.78332895  0.09310760  0.61565359  1
  N  N40  1  0.55980299  0.20622233  0.37470478  1
  N  N41  1  0.41124039  0.11103822  0.14345376  1
  N  N42  1  0.22254228  0.20540283  0.86713874  1
  N  N43  1  0.10869345  0.09459159  0.62613243  1
  N  N44  1  0.89076870  0.20908970  0.37433342  1
  N  N45  1  0.81296769  0.07496475  0.13204994  1
  N  N46  1  0.55594610  0.20525290  0.84077673  1
  N  N47  1  0.43911139  0.09710211  0.60586771  1
  N  N48  1  0.21695167  0.54043424  0.37437924  1
  N  N49  1  0.11037186  0.42727083  0.11992708  1
  N  N50  1  0.88829033  0.53904019  0.87228491  1
  N  N51  1  0.77712783  0.42809670  0.62672228  1
  N  N52  1  0.55947540  0.53693414  0.37675824  1
  N  N53  1  0.42696245  0.45556598  0.13239855  1
  N  N54  1  0.22257332  0.53818738  0.87178143  1
  N  N55  1  0.10869505  0.43003569  0.62613116  1
  N  N56  1  0.89076973  0.53348828  0.37433529  1
  N  N57  1  0.77400094  0.42965841  0.11893711  1
  N  N58  1  0.55295252  0.54019684  0.86920083  1
  N  N59  1  0.44001012  0.43302271  0.61430708  1
  N  N60  1  0.21695154  0.87596341  0.37437742  1
  N  N61  1  0.11377484  0.75977438  0.12102849  1
  N  N62  1  0.89066825  0.87133946  0.86643117  1
  N  N63  1  0.78332897  0.75688410  0.61565548  1
  N  N64  1  0.55980397  0.86731680  0.37470455  1
  N  N65  1  0.42696423  0.75078799  0.13240150  1
  N  N66  1  0.22257508  0.87258621  0.87178273  1
  N  N67  1  0.11374334  0.75978931  0.62552499  1
  N  N68  1  0.89545745  0.86894408  0.38076003  1
  N  N69  1  0.81296827  0.74538343  0.13204842  1
  N  N70  1  0.55594517  0.87214254  0.84077662  1
  N  N71  1  0.44000893  0.76028397  0.61430286  1
