# generated using pymatgen
data_GdAl17N18
_symmetry_space_group_name_H-M   'P 1'
_cell_length_a   9.61966820
_cell_length_b   9.58750200
_cell_length_c   9.87406391
_cell_angle_alpha   90.00024322
_cell_angle_beta   90.05769429
_cell_angle_gamma   60.14283070
_symmetry_Int_Tables_number   1
_chemical_formula_structural   GdAl17N18
_chemical_formula_sum   'Gd2 Al34 N36'
_cell_volume   789.79630625
_cell_formula_units_Z   2
loop_
 _symmetry_equiv_pos_site_id
 _symmetry_equiv_pos_as_xyz
  1  'x, y, z'
loop_
 _atom_site_type_symbol
 _atom_site_label
 _atom_site_symmetry_multiplicity
 _atom_site_fract_x
 _atom_site_fract_y
 _atom_site_fract_z
 _atom_site_occupancy
  Al  Al0  1  0.11034930  0.09429434  0.38125349  1
  Al  Al1  1  0.21362419  0.20987447  0.13290054  1
  Al  Al2  1  0.78824364  0.08933889  0.87497519  1
  Al  Al3  1  0.89030598  0.20738963  0.63235455  1
  Al  Al4  1  0.44135815  0.09597634  0.39904753  1
  Al  Al5  1  0.11009240  0.09603392  0.88317540  1
  Al  Al6  1  0.21546350  0.20894683  0.63153510  1
  Al  Al7  1  0.78054735  0.09309762  0.39036760  1
  Al  Al8  1  0.89443124  0.20334701  0.13144354  1
  Al  Al9  1  0.43644280  0.09844739  0.86638074  1
  Al  Al10  1  0.55739850  0.20699171  0.63231208  1
  Al  Al11  1  0.11034586  0.42866938  0.38125645  1
  Al  Al12  1  0.21770416  0.54354872  0.13108412  1
  Al  Al13  1  0.77726065  0.42801368  0.88258169  1
  Al  Al14  1  0.89030584  0.53563939  0.63235088  1
  Al  Al15  1  0.44134446  0.43098861  0.39079610  1
  Al  Al16  1  0.54848969  0.54244513  0.13125084  1
  Al  Al17  1  0.11008603  0.42719734  0.88317081  1
  Al  Al18  1  0.21867377  0.54065536  0.63258896  1
  Al  Al19  1  0.77635846  0.42846852  0.38020925  1
  Al  Al20  1  0.89441833  0.53553286  0.13144773  1
  Al  Al21  1  0.43997947  0.43486097  0.87521704  1
  Al  Al22  1  0.55722763  0.53806376  0.63289250  1
  Al  Al23  1  0.11212516  0.76059585  0.38147429  1
  Al  Al24  1  0.21773106  0.87210461  0.13108309  1
  Al  Al25  1  0.78825264  0.75569551  0.87497626  1
  Al  Al26  1  0.89336328  0.86998828  0.63165439  1
  Al  Al27  1  0.44135137  0.76098047  0.39079389  1
  Al  Al28  1  0.11132346  0.76100005  0.88369340  1
  Al  Al29  1  0.21868230  0.87402580  0.63259477  1
  Al  Al30  1  0.78055133  0.75965059  0.39036948  1
  Al  Al31  1  0.90216428  0.86557630  0.13150193  1
  Al  Al32  1  0.44000261  0.75847955  0.87522116  1
  Al  Al33  1  0.55740300  0.86896586  0.63231654  1
  Gd  Gd34  1  0.55813681  0.20767174  0.12500018  1
  Gd  Gd35  1  0.55815593  0.86765322  0.12499965  1
  N  N36  1  0.22364288  0.20487196  0.32922956  1
  N  N37  1  0.11093182  0.09515982  0.07825898  1
  N  N38  1  0.89074834  0.20838863  0.82483217  1
  N  N39  1  0.78156613  0.09319641  0.58279553  1
  N  N40  1  0.55493730  0.20526682  0.35516495  1
  N  N41  1  0.41149854  0.11092341  0.05446512  1
  N  N42  1  0.21359562  0.20990108  0.82148099  1
  N  N43  1  0.10961005  0.09462262  0.57417966  1
  N  N44  1  0.88757396  0.20559415  0.32652072  1
  N  N45  1  0.81328664  0.07552136  0.06537576  1
  N  N46  1  0.55922338  0.20640349  0.83072089  1
  N  N47  1  0.44089026  0.09619297  0.59212737  1
  N  N48  1  0.22286379  0.53820185  0.32685540  1
  N  N49  1  0.11091997  0.42719700  0.07825735  1
  N  N50  1  0.89074749  0.53422318  0.82482375  1
  N  N51  1  0.77697407  0.42814089  0.57404279  1
  N  N52  1  0.55288524  0.54024905  0.32782902  1
  N  N53  1  0.42650245  0.45626722  0.06579099  1
  N  N54  1  0.21791217  0.54033258  0.82505607  1
  N  N55  1  0.10961033  0.42904683  0.57417929  1
  N  N56  1  0.88757424  0.54019490  0.32652724  1
  N  N57  1  0.77429947  0.42945511  0.07870074  1
  N  N58  1  0.55865654  0.53737220  0.82369968  1
  N  N59  1  0.44138677  0.43154837  0.58341743  1
  N  N60  1  0.22287428  0.87231692  0.32685136  1
  N  N61  1  0.11402493  0.75963913  0.07732719  1
  N  N62  1  0.89449726  0.86943403  0.82154661  1
  N  N63  1  0.78156991  0.75849535  0.58279566  1
  N  N64  1  0.55494267  0.87318157  0.35516467  1
  N  N65  1  0.42655317  0.75053877  0.06581197  1
  N  N66  1  0.21793254  0.87514221  0.82506725  1
  N  N67  1  0.11212221  0.76058390  0.57422375  1
  N  N68  1  0.88839526  0.87248446  0.32850529  1
  N  N69  1  0.81330563  0.74439811  0.06537469  1
  N  N70  1  0.55922919  0.86777620  0.83072718  1
  N  N71  1  0.44139359  0.76034127  0.58341990  1
