# generated using pymatgen
data_GdAl17N18
_symmetry_space_group_name_H-M   'P 1'
_cell_length_a   10.09194864
_cell_length_b   10.03940646
_cell_length_c   8.54265226
_cell_angle_alpha   90.00001577
_cell_angle_beta   90.02114243
_cell_angle_gamma   60.17063987
_symmetry_Int_Tables_number   1
_chemical_formula_structural   GdAl17N18
_chemical_formula_sum   'Gd2 Al34 N36'
_cell_volume   750.84550669
_cell_formula_units_Z   2
loop_
 _symmetry_equiv_pos_site_id
 _symmetry_equiv_pos_as_xyz
  1  'x, y, z'
loop_
 _atom_site_type_symbol
 _atom_site_label
 _atom_site_symmetry_multiplicity
 _atom_site_fract_x
 _atom_site_fract_y
 _atom_site_fract_z
 _atom_site_occupancy
  Al  Al0  1  0.10942959  0.09570992  0.35467091  1
  Al  Al1  1  0.20989730  0.21171717  0.10025005  1
  Al  Al2  1  0.78682047  0.09003825  0.84363261  1
  Al  Al3  1  0.88987174  0.20786649  0.60307611  1
  Al  Al4  1  0.43561687  0.09885408  0.36468538  1
  Al  Al5  1  0.10995410  0.09493791  0.84982924  1
  Al  Al6  1  0.21547681  0.20892792  0.60123100  1
  Al  Al7  1  0.78683994  0.09008589  0.36291663  1
  Al  Al8  1  0.89441677  0.20465384  0.10263365  1
  Al  Al9  1  0.43792792  0.09769933  0.83297803  1
  Al  Al10  1  0.55723322  0.20668607  0.60278882  1
  Al  Al11  1  0.10943171  0.42819485  0.35467095  1
  Al  Al12  1  0.21668357  0.54333483  0.10289607  1
  Al  Al13  1  0.77636494  0.42848990  0.85193684  1
  Al  Al14  1  0.88987210  0.53560317  0.60307611  1
  Al  Al15  1  0.43946512  0.43452459  0.36250869  1
  Al  Al16  1  0.55106630  0.54112899  0.10314381  1
  Al  Al17  1  0.10995619  0.42844288  0.84982946  1
  Al  Al18  1  0.21882403  0.54018393  0.60276186  1
  Al  Al19  1  0.77649565  0.42842448  0.35428310  1
  Al  Al20  1  0.89441942  0.53427099  0.10263397  1
  Al  Al21  1  0.43911659  0.43470829  0.84341442  1
  Al  Al22  1  0.55655225  0.53838759  0.60297913  1
  Al  Al23  1  0.11253692  0.76039812  0.35578458  1
  Al  Al24  1  0.21667828  0.87331505  0.10289558  1
  Al  Al25  1  0.78681871  0.75648352  0.84363317  1
  Al  Al26  1  0.89419397  0.86957271  0.60345540  1
  Al  Al27  1  0.43945968  0.75933987  0.36250944  1
  Al  Al28  1  0.11303474  0.76014926  0.84982326  1
  Al  Al29  1  0.21881943  0.87432464  0.60276167  1
  Al  Al30  1  0.78683810  0.75641643  0.36291636  1
  Al  Al31  1  0.90351880  0.86491089  0.10259484  1
  Al  Al32  1  0.43911146  0.75950511  0.84341226  1
  Al  Al33  1  0.55723134  0.86940796  0.60278880  1
  Gd  Gd34  1  0.55970065  0.20749402  0.10393599  1
  Gd  Gd35  1  0.55969833  0.86612076  0.10393600  1
  N  N36  1  0.21486631  0.20923211  0.36468560  1
  N  N37  1  0.11006348  0.09535026  0.10614564  1
  N  N38  1  0.88956294  0.20773391  0.85425233  1
  N  N39  1  0.78350316  0.09272239  0.60565635  1
  N  N40  1  0.55845486  0.20619437  0.37406503  1
  N  N41  1  0.41428624  0.10951696  0.11844223  1
  N  N42  1  0.21938958  0.20697068  0.85234061  1
  N  N43  1  0.10874638  0.09492874  0.60779602  1
  N  N44  1  0.88973437  0.20780960  0.35852200  1
  N  N45  1  0.81112697  0.07640394  0.10659196  1
  N  N46  1  0.55701042  0.20529110  0.83481663  1
  N  N47  1  0.43813575  0.09759751  0.60289750  1
  N  N48  1  0.21931669  0.53928620  0.35932675  1
  N  N49  1  0.11006588  0.42792205  0.10614573  1
  N  N50  1  0.88956491  0.53604218  0.85425279  1
  N  N51  1  0.77644564  0.42845054  0.60648672  1
  N  N52  1  0.55630509  0.53850999  0.36032404  1
  N  N53  1  0.42767994  0.45411301  0.10698371  1
  N  N54  1  0.21990386  0.53938277  0.85352211  1
  N  N55  1  0.10874728  0.42966183  0.60779569  1
  N  N56  1  0.88973628  0.53579505  0.35852132  1
  N  N57  1  0.77441712  0.42946609  0.10584682  1
  N  N58  1  0.55577371  0.53877615  0.85183371  1
  N  N59  1  0.43998487  0.43314652  0.60533466  1
  N  N60  1  0.21931155  0.87472998  0.35932828  1
  N  N61  1  0.11449573  0.75941873  0.10647549  1
  N  N62  1  0.89357557  0.86988074  0.84891777  1
  N  N63  1  0.78350106  0.75712013  0.60565638  1
  N  N64  1  0.55845279  0.86867412  0.37406543  1
  N  N65  1  0.42767187  0.75153405  0.10698546  1
  N  N66  1  0.21989923  0.87404617  0.85352132  1
  N  N67  1  0.11359194  0.75987041  0.60631660  1
  N  N68  1  0.89356517  0.86988585  0.36354752  1
  N  N69  1  0.81112423  0.74581665  0.10659174  1
  N  N70  1  0.55700809  0.87102243  0.83481653  1
  N  N71  1  0.43998076  0.76020057  0.60533449  1
