# generated using pymatgen
data_GdAl17N18
_symmetry_space_group_name_H-M   'P 1'
_cell_length_a   9.75669982
_cell_length_b   9.71599871
_cell_length_c   9.50459211
_cell_angle_alpha   90.00000164
_cell_angle_beta   90.04051412
_cell_angle_gamma   60.15931798
_symmetry_Int_Tables_number   1
_chemical_formula_structural   GdAl17N18
_chemical_formula_sum   'Gd2 Al34 N36'
_cell_volume   781.53663469
_cell_formula_units_Z   2
loop_
 _symmetry_equiv_pos_site_id
 _symmetry_equiv_pos_as_xyz
  1  'x, y, z'
loop_
 _atom_site_type_symbol
 _atom_site_label
 _atom_site_symmetry_multiplicity
 _atom_site_fract_x
 _atom_site_fract_y
 _atom_site_fract_z
 _atom_site_occupancy
  Al  Al0  1  0.11009728  0.09406238  0.37765553  1
  Al  Al1  1  0.21326499  0.21004697  0.13093829  1
  Al  Al2  1  0.78898365  0.08882714  0.86958291  1
  Al  Al3  1  0.89051168  0.20806244  0.62915723  1
  Al  Al4  1  0.44061272  0.09635074  0.39664593  1
  Al  Al5  1  0.10978228  0.09653839  0.88041336  1
  Al  Al6  1  0.21375114  0.20979998  0.62715105  1
  Al  Al7  1  0.78195214  0.09274777  0.38763954  1
  Al  Al8  1  0.89416627  0.20312314  0.12826254  1
  Al  Al9  1  0.43571952  0.09880284  0.85856304  1
  Al  Al10  1  0.55788018  0.20710728  0.62528801  1
  Al  Al11  1  0.11009616  0.42916031  0.37765873  1
  Al  Al12  1  0.21798212  0.54323282  0.12783316  1
  Al  Al13  1  0.77711130  0.42809939  0.88044277  1
  Al  Al14  1  0.89051225  0.53476832  0.62915517  1
  Al  Al15  1  0.44053830  0.43198963  0.38827294  1
  Al  Al16  1  0.54809108  0.54263270  0.12851863  1
  Al  Al17  1  0.10978081  0.42700355  0.88040894  1
  Al  Al18  1  0.21773174  0.54104711  0.62948642  1
  Al  Al19  1  0.77638092  0.42846678  0.37583325  1
  Al  Al20  1  0.89416272  0.53604245  0.12826472  1
  Al  Al21  1  0.43980584  0.43518698  0.86948434  1
  Al  Al22  1  0.55802185  0.53766218  0.62913997  1
  Al  Al23  1  0.11317612  0.76007274  0.37798312  1
  Al  Al24  1  0.21799393  0.87213713  0.12783036  1
  Al  Al25  1  0.78898722  0.75549284  0.86958470  1
  Al  Al26  1  0.89457555  0.86938375  0.62707530  1
  Al  Al27  1  0.44054077  0.76078954  0.38827494  1
  Al  Al28  1  0.11099302  0.76116518  0.88094227  1
  Al  Al29  1  0.21773322  0.87457316  0.62948998  1
  Al  Al30  1  0.78195377  0.75861237  0.38763895  1
  Al  Al31  1  0.90216413  0.86558537  0.12972894  1
  Al  Al32  1  0.43981507  0.75832490  0.86948035  1
  Al  Al33  1  0.55788273  0.86836016  0.62529035  1
  Gd  Gd34  1  0.55820393  0.20736791  0.11759219  1
  Gd  Gd35  1  0.55821026  0.86782111  0.11759121  1
  N  N36  1  0.22333693  0.20501573  0.33443548  1
  N  N37  1  0.11065519  0.09548243  0.08276199  1
  N  N38  1  0.89087369  0.20898336  0.82871375  1
  N  N39  1  0.78265583  0.09309148  0.58721990  1
  N  N40  1  0.55542716  0.20521266  0.36061674  1
  N  N41  1  0.41067701  0.11132003  0.05748363  1
  N  N42  1  0.21229354  0.21053983  0.82405565  1
  N  N43  1  0.10903516  0.09460379  0.57728420  1
  N  N44  1  0.88783008  0.20563517  0.33031624  1
  N  N45  1  0.81372658  0.07485347  0.06923121  1
  N  N46  1  0.55979698  0.20634181  0.83284719  1
  N  N47  1  0.43996584  0.09666487  0.59770936  1
  N  N48  1  0.22297540  0.53801216  0.33075812  1
  N  N49  1  0.11065181  0.42716798  0.08275979  1
  N  N50  1  0.89087461  0.53349931  0.82870865  1
  N  N51  1  0.77708335  0.42810380  0.57664774  1
  N  N52  1  0.55261392  0.54037642  0.33248683  1
  N  N53  1  0.42644100  0.45634070  0.06936147  1
  N  N54  1  0.21708779  0.54056843  0.82886659  1
  N  N55  1  0.10903677  0.42966163  0.57728489  1
  N  N56  1  0.88783168  0.53989308  0.33031959  1
  N  N57  1  0.77400471  0.42963437  0.08358084  1
  N  N58  1  0.55945097  0.53695925  0.82691542  1
  N  N59  1  0.44058295  0.43243651  0.58826544  1
  N  N60  1  0.22298167  0.87237825  0.33075498  1
  N  N61  1  0.11386780  0.75972174  0.08199423  1
  N  N62  1  0.89539490  0.86898136  0.82386917  1
  N  N63  1  0.78265763  0.75754392  0.58721803  1
  N  N64  1  0.55542854  0.87272339  0.36061642  1
  N  N65  1  0.42645983  0.75052309  0.06936605  1
  N  N66  1  0.21709543  0.87571304  0.82887261  1
  N  N67  1  0.11296719  0.76016951  0.57736050  1
  N  N68  1  0.88932539  0.87201683  0.33408422  1
  N  N69  1  0.81373360  0.74469000  0.06923210  1
  N  N70  1  0.55980024  0.86722978  0.83284935  1
  N  N71  1  0.44058489  0.76027688  0.58827048  1
