# generated using pymatgen
data_GdAl17N18
_symmetry_space_group_name_H-M   'P 1'
_cell_length_a   9.51112772
_cell_length_b   9.49322623
_cell_length_c   10.14333047
_cell_angle_alpha   89.99990556
_cell_angle_beta   89.91023178
_cell_angle_gamma   60.06251754
_symmetry_Int_Tables_number   1
_chemical_formula_structural   GdAl17N18
_chemical_formula_sum   'Gd2 Al34 N36'
_cell_volume   793.65103931
_cell_formula_units_Z   2
loop_
 _symmetry_equiv_pos_site_id
 _symmetry_equiv_pos_as_xyz
  1  'x, y, z'
loop_
 _atom_site_type_symbol
 _atom_site_label
 _atom_site_symmetry_multiplicity
 _atom_site_fract_x
 _atom_site_fract_y
 _atom_site_fract_z
 _atom_site_occupancy
  Al  Al0  1  0.11059615  0.09539682  0.31854899  1
  Al  Al1  1  0.21472910  0.20930280  0.06953447  1
  Al  Al2  1  0.78024489  0.09308153  0.80973756  1
  Al  Al3  1  0.89032741  0.20688825  0.56853639  1
  Al  Al4  1  0.43853063  0.09740237  0.33084998  1
  Al  Al5  1  0.11056326  0.09447321  0.81971088  1
  Al  Al6  1  0.21688413  0.20822444  0.56798062  1
  Al  Al7  1  0.78622325  0.09051185  0.32503269  1
  Al  Al8  1  0.89477202  0.20344488  0.07007906  1
  Al  Al9  1  0.44080714  0.09626281  0.80089443  1
  Al  Al10  1  0.55667808  0.20700778  0.56781976  1
  Al  Al11  1  0.11059567  0.42734066  0.31854895  1
  Al  Al12  1  0.21783096  0.54364547  0.07052688  1
  Al  Al13  1  0.77635627  0.42848764  0.82033223  1
  Al  Al14  1  0.89032729  0.53611662  0.56853646  1
  Al  Al15  1  0.44083143  0.43352650  0.32469383  1
  Al  Al16  1  0.54925225  0.54204177  0.07103837  1
  Al  Al17  1  0.11056312  0.42829593  0.81971093  1
  Al  Al18  1  0.21912354  0.54063818  0.56845397  1
  Al  Al19  1  0.77767030  0.42783107  0.31935866  1
  Al  Al20  1  0.89477111  0.53511579  0.07007885  1
  Al  Al21  1  0.44127267  0.43151458  0.80959000  1
  Al  Al22  1  0.55682393  0.53825479  0.56723428  1
  Al  Al23  1  0.11141243  0.76096059  0.31806780  1
  Al  Al24  1  0.21783192  0.87185728  0.07052661  1
  Al  Al25  1  0.78024496  0.76000523  0.80973742  1
  Al  Al26  1  0.89247783  0.87042730  0.56792675  1
  Al  Al27  1  0.44083224  0.75897645  0.32469322  1
  Al  Al28  1  0.11094819  0.76119217  0.81984580  1
  Al  Al29  1  0.21912403  0.87357101  0.56845386  1
  Al  Al30  1  0.78622340  0.75659743  0.32503262  1
  Al  Al31  1  0.90125637  0.86603815  0.07120890  1
  Al  Al32  1  0.44127306  0.76054535  0.80959037  1
  Al  Al33  1  0.55667809  0.86964764  0.56781955  1
  Gd  Gd34  1  0.55827881  0.20835744  0.06890132  1
  Gd  Gd35  1  0.55827902  0.86670280  0.06890131  1
  N  N36  1  0.21549926  0.20891744  0.38191349  1
  N  N37  1  0.11163863  0.09466251  0.12751592  1
  N  N38  1  0.88719046  0.20548157  0.87868476  1
  N  N39  1  0.78140961  0.09303201  0.62193195  1
  N  N40  1  0.55842015  0.20641819  0.37509888  1
  N  N41  1  0.41531194  0.10901310  0.14824287  1
  N  N42  1  0.22380329  0.20476486  0.87700225  1
  N  N43  1  0.11030311  0.09464833  0.63039180  1
  N  N44  1  0.89062168  0.20781408  0.38014881  1
  N  N45  1  0.81112887  0.07723588  0.13962708  1
  N  N46  1  0.55425916  0.20570412  0.84652067  1
  N  N47  1  0.44091030  0.09621113  0.61355331  1
  N  N48  1  0.21857997  0.54020976  0.38001194  1
  N  N49  1  0.11163765  0.42703254  0.12751588  1
  N  N50  1  0.88719034  0.54066018  0.87868454  1
  N  N51  1  0.77701387  0.42815869  0.63033208  1
  N  N52  1  0.55826517  0.53753496  0.38062932  1
  N  N53  1  0.42757444  0.45484959  0.13929175  1
  N  N54  1  0.22265168  0.53843054  0.87852925  1
  N  N55  1  0.11030296  0.42838066  0.63039191  1
  N  N56  1  0.89062137  0.53489741  0.38014895  1
  N  N57  1  0.77515371  0.42908860  0.12704773  1
  N  N58  1  0.55289420  0.54021932  0.87807728  1
  N  N59  1  0.44163888  0.43175528  0.62168084  1
  N  N60  1  0.21858078  0.87454383  0.38001163  1
  N  N61  1  0.11388741  0.75972320  0.12854386  1
  N  N62  1  0.88686855  0.87323183  0.87785831  1
  N  N63  1  0.78140963  0.75888988  0.62193182  1
  N  N64  1  0.55842011  0.86849712  0.37509846  1
  N  N65  1  0.42757641  0.75091155  0.13929057  1
  N  N66  1  0.22265187  0.87225072  0.87852914  1
  N  N67  1  0.11127094  0.76103068  0.63066196  1
  N  N68  1  0.89324455  0.87004434  0.38212009  1
  N  N69  1  0.81112913  0.74496650  0.13962702  1
  N  N70  1  0.55425937  0.87336986  0.84652068  1
  N  N71  1  0.44163920  0.75993828  0.62168101  1
