# generated using pymatgen
data_GdAl17N18
_symmetry_space_group_name_H-M   'P 1'
_cell_length_a   9.51114131
_cell_length_b   9.49323478
_cell_length_c   10.14333041
_cell_angle_alpha   90.00000980
_cell_angle_beta   90.08970560
_cell_angle_gamma   60.06228546
_symmetry_Int_Tables_number   1
_chemical_formula_structural   GdAl17N18
_chemical_formula_sum   'Gd2 Al34 N36'
_cell_volume   793.65103194
_cell_formula_units_Z   2
loop_
 _symmetry_equiv_pos_site_id
 _symmetry_equiv_pos_as_xyz
  1  'x, y, z'
loop_
 _atom_site_type_symbol
 _atom_site_label
 _atom_site_symmetry_multiplicity
 _atom_site_fract_x
 _atom_site_fract_y
 _atom_site_fract_z
 _atom_site_occupancy
  Al  Al0  1  0.11047734  0.09451678  0.40894576  1
  Al  Al1  1  0.21464288  0.20934528  0.15912015  1
  Al  Al2  1  0.78613760  0.09055490  0.90362150  1
  Al  Al3  1  0.89024138  0.20693145  0.66011858  1
  Al  Al4  1  0.44072098  0.09630614  0.42775901  1
  Al  Al5  1  0.11051035  0.09543952  0.91010517  1
  Al  Al6  1  0.21679885  0.20826722  0.66067401  1
  Al  Al7  1  0.78015901  0.09312538  0.41891629  1
  Al  Al8  1  0.89468599  0.20348846  0.15857703  1
  Al  Al9  1  0.43844510  0.09744421  0.89780516  1
  Al  Al10  1  0.55659214  0.20705059  0.66083371  1
  Al  Al11  1  0.11047733  0.42833909  0.40894575  1
  Al  Al12  1  0.21774541  0.54368804  0.15812961  1
  Al  Al13  1  0.77758431  0.42787446  0.90929630  1
  Al  Al14  1  0.89024137  0.53616039  0.66011857  1
  Al  Al15  1  0.44118683  0.43155764  0.41906363  1
  Al  Al16  1  0.54916668  0.54208344  0.15761856  1
  Al  Al17  1  0.11051030  0.42738348  0.91010518  1
  Al  Al18  1  0.21903826  0.54068094  0.66020064  1
  Al  Al19  1  0.77627086  0.42853114  0.40832535  1
  Al  Al20  1  0.89468590  0.53515883  0.15857706  1
  Al  Al21  1  0.44074613  0.43356878  0.90396052  1
  Al  Al22  1  0.55673777  0.53829779  0.66141911  1
  Al  Al23  1  0.11086232  0.76123546  0.40881141  1
  Al  Al24  1  0.21774549  0.87189992  0.15812963  1
  Al  Al25  1  0.78613761  0.75664076  0.90362151  1
  Al  Al26  1  0.89239132  0.87047097  0.66072719  1
  Al  Al27  1  0.44118688  0.76058878  0.41906359  1
  Al  Al28  1  0.11132652  0.76100342  0.91058630  1
  Al  Al29  1  0.21903831  0.87361405  0.66020065  1
  Al  Al30  1  0.78015903  0.76004877  0.41891631  1
  Al  Al31  1  0.90117081  0.86608123  0.15744776  1
  Al  Al32  1  0.44074621  0.75901853  0.90396058  1
  Al  Al33  1  0.55659214  0.86969062  0.66083373  1
  Gd  Gd34  1  0.55819308  0.20839777  0.15975328  1
  Gd  Gd35  1  0.55819308  0.86674303  0.15975328  1
  N  N36  1  0.22371673  0.20480827  0.35165328  1
  N  N37  1  0.11155260  0.09470534  0.10113927  1
  N  N38  1  0.89053563  0.20785718  0.84850620  1
  N  N39  1  0.78132382  0.09307588  0.60672236  1
  N  N40  1  0.55417325  0.20574717  0.38213405  1
  N  N41  1  0.41522625  0.10905377  0.08041245  1
  N  N42  1  0.21541377  0.20895982  0.84674123  1
  N  N43  1  0.11021734  0.09469186  0.59826423  1
  N  N44  1  0.88710470  0.20552531  0.34997164  1
  N  N45  1  0.81104357  0.07727934  0.08902823  1
  N  N46  1  0.55833418  0.20646023  0.85355597  1
  N  N47  1  0.44082462  0.09625432  0.61510059  1
  N  N48  1  0.22256525  0.53847395  0.35012725  1
  N  N49  1  0.11155250  0.42707542  0.10113927  1
  N  N50  1  0.89053559  0.53494050  0.84850619  1
  N  N51  1  0.77692850  0.42820231  0.59832430  1
  N  N52  1  0.55280877  0.54026226  0.35057916  1
  N  N53  1  0.42748964  0.45489087  0.08936409  1
  N  N54  1  0.21849461  0.54025226  0.84864286  1
  N  N55  1  0.11021733  0.42842398  0.59826422  1
  N  N56  1  0.88710468  0.54070322  0.34997167  1
  N  N57  1  0.77506808  0.42913251  0.10160809  1
  N  N58  1  0.55817928  0.53757711  0.84802465  1
  N  N59  1  0.44155326  0.43179836  0.60697324  1
  N  N60  1  0.22256528  0.87229406  0.35012726  1
  N  N61  1  0.11380168  0.75976584  0.10011151  1
  N  N62  1  0.89315845  0.87008744  0.84653407  1
  N  N63  1  0.78132383  0.75893345  0.60672238  1
  N  N64  1  0.55417327  0.87341288  0.38213404  1
  N  N65  1  0.42748983  0.75095303  0.08936419  1
  N  N66  1  0.21849470  0.87458647  0.84864288  1
  N  N67  1  0.11118514  0.76107404  0.59799420  1
  N  N68  1  0.88678300  0.87327512  0.35079786  1
  N  N69  1  0.81104358  0.74501024  0.08902823  1
  N  N70  1  0.55833417  0.86853914  0.85355600  1
  N  N71  1  0.44155330  0.75998163  0.60697322  1
