# generated using pymatgen
data_GdAl17N18
_symmetry_space_group_name_H-M   'P 1'
_cell_length_a   9.51113944
_cell_length_b   9.49323389
_cell_length_c   10.14333565
_cell_angle_alpha   89.99997157
_cell_angle_beta   89.91026847
_cell_angle_gamma   60.06233301
_symmetry_Int_Tables_number   1
_chemical_formula_structural   GdAl17N18
_chemical_formula_sum   'Gd2 Al34 N36'
_cell_volume   793.65159007
_cell_formula_units_Z   2
loop_
 _symmetry_equiv_pos_site_id
 _symmetry_equiv_pos_as_xyz
  1  'x, y, z'
loop_
 _atom_site_type_symbol
 _atom_site_label
 _atom_site_symmetry_multiplicity
 _atom_site_fract_x
 _atom_site_fract_y
 _atom_site_fract_z
 _atom_site_occupancy
  Al  Al0  1  0.11062449  0.09538243  0.30781658  1
  Al  Al1  1  0.21475691  0.20928840  0.05880114  1
  Al  Al2  1  0.78027330  0.09306813  0.79900468  1
  Al  Al3  1  0.89035569  0.20687419  0.55780328  1
  Al  Al4  1  0.43855932  0.09738729  0.32011389  1
  Al  Al5  1  0.11059158  0.09445961  0.80897612  1
  Al  Al6  1  0.21691318  0.20821003  0.55724739  1
  Al  Al7  1  0.78625175  0.09049770  0.31429944  1
  Al  Al8  1  0.89480022  0.20343133  0.05934482  1
  Al  Al9  1  0.44083530  0.09624893  0.79016080  1
  Al  Al10  1  0.55670636  0.20699347  0.55708634  1
  Al  Al11  1  0.11062436  0.42732648  0.30781657  1
  Al  Al12  1  0.21785941  0.54363110  0.05979196  1
  Al  Al13  1  0.77638507  0.42847388  0.80959617  1
  Al  Al14  1  0.89035565  0.53610316  0.55780330  1
  Al  Al15  1  0.44086020  0.43351184  0.31396000  1
  Al  Al16  1  0.54928086  0.54202658  0.06030241  1
  Al  Al17  1  0.11059154  0.42828186  0.80897614  1
  Al  Al18  1  0.21915250  0.54062379  0.55772108  1
  Al  Al19  1  0.77769846  0.42781731  0.30862556  1
  Al  Al20  1  0.89479996  0.53510162  0.05934476  1
  Al  Al21  1  0.44130104  0.43150049  0.79885707  1
  Al  Al22  1  0.55685193  0.53824073  0.55650184  1
  Al  Al23  1  0.11144063  0.76094639  0.30733542  1
  Al  Al24  1  0.21785967  0.87184293  0.05979188  1
  Al  Al25  1  0.78027333  0.75999142  0.79900464  1
  Al  Al26  1  0.89250568  0.87041370  0.55719450  1
  Al  Al27  1  0.44086043  0.75896160  0.31395982  1
  Al  Al28  1  0.11097664  0.76117823  0.80911040  1
  Al  Al29  1  0.21915265  0.87355686  0.55772105  1
  Al  Al30  1  0.78625180  0.75658366  0.31429942  1
  Al  Al31  1  0.90128499  0.86602409  0.06047350  1
  Al  Al32  1  0.44130116  0.76053159  0.79885718  1
  Al  Al33  1  0.55670636  0.86963356  0.55708628  1
  Gd  Gd34  1  0.55830751  0.20834133  0.05816643  1
  Gd  Gd35  1  0.55830756  0.86668611  0.05816643  1
  N  N36  1  0.21552831  0.20890262  0.37117971  1
  N  N37  1  0.11166682  0.09464825  0.11678207  1
  N  N38  1  0.88721882  0.20546812  0.86794991  1
  N  N39  1  0.78143796  0.09301863  0.61119858  1
  N  N40  1  0.55844828  0.20640327  0.36436413  1
  N  N41  1  0.41534087  0.10899691  0.13750694  1
  N  N42  1  0.22383120  0.20475101  0.86626768  1
  N  N43  1  0.11033163  0.09463463  0.61965734  1
  N  N44  1  0.89064979  0.20780001  0.36941531  1
  N  N45  1  0.81115749  0.07722214  0.12889266  1
  N  N46  1  0.55428746  0.20569001  0.83578587  1
  N  N47  1  0.44093897  0.09619707  0.60281950  1
  N  N48  1  0.21860886  0.54019520  0.36927852  1
  N  N49  1  0.11166654  0.42701836  0.11678206  1
  N  N50  1  0.88721878  0.54064609  0.86794984  1
  N  N51  1  0.77704259  0.42814508  0.61959706  1
  N  N52  1  0.55829329  0.53752027  0.36989614  1
  N  N53  1  0.42760370  0.45483401  0.12855649  1
  N  N54  1  0.22267961  0.53841675  0.86779413  1
  N  N55  1  0.11033159  0.42836671  0.61965737  1
  N  N56  1  0.89064970  0.53488349  0.36941535  1
  N  N57  1  0.77518210  0.42907528  0.11631327  1
  N  N58  1  0.55292294  0.54020513  0.86734173  1
  N  N59  1  0.44166755  0.43174109  0.61094747  1
  N  N60  1  0.21860910  0.87452933  0.36927843  1
  N  N61  1  0.11391574  0.75970886  0.11780987  1
  N  N62  1  0.88689716  0.87321794  0.86712319  1
  N  N63  1  0.78143796  0.75887623  0.61119854  1
  N  N64  1  0.55844826  0.86848240  0.36436401  1
  N  N65  1  0.42760425  0.75089625  0.12855617  1
  N  N66  1  0.22267967  0.87223685  0.86779409  1
  N  N67  1  0.11129946  0.76101678  0.61992741  1
  N  N68  1  0.89327259  0.87003036  0.37138734  1
  N  N69  1  0.81115756  0.74495314  0.12889264  1
  N  N70  1  0.55428752  0.87335580  0.83578587  1
  N  N71  1  0.44166765  0.75992444  0.61094752  1
