# generated using pymatgen
data_GdAl17N18
_symmetry_space_group_name_H-M   'P 1'
_cell_length_a   9.51112666
_cell_length_b   9.49322571
_cell_length_c   10.14333072
_cell_angle_alpha   89.99988159
_cell_angle_beta   89.91021412
_cell_angle_gamma   60.06260014
_symmetry_Int_Tables_number   1
_chemical_formula_structural   GdAl17N18
_chemical_formula_sum   'Gd2 Al34 N36'
_cell_volume   793.65158523
_cell_formula_units_Z   2
loop_
 _symmetry_equiv_pos_site_id
 _symmetry_equiv_pos_as_xyz
  1  'x, y, z'
loop_
 _atom_site_type_symbol
 _atom_site_label
 _atom_site_symmetry_multiplicity
 _atom_site_fract_x
 _atom_site_fract_y
 _atom_site_fract_z
 _atom_site_occupancy
  Al  Al0  1  0.11059144  0.09539926  0.32030615  1
  Al  Al1  1  0.21472439  0.20930535  0.07129080  1
  Al  Al2  1  0.78023998  0.09308375  0.81149273  1
  Al  Al3  1  0.89032297  0.20689047  0.57029392  1
  Al  Al4  1  0.43852589  0.09740502  0.33260162  1
  Al  Al5  1  0.11055845  0.09447547  0.82146918  1
  Al  Al6  1  0.21687953  0.20822671  0.56973727  1
  Al  Al7  1  0.78621876  0.09051392  0.32678817  1
  Al  Al8  1  0.89476745  0.20344712  0.07183715  1
  Al  Al9  1  0.44080262  0.09626499  0.80264723  1
  Al  Al10  1  0.55667338  0.20701012  0.56957244  1
  Al  Al11  1  0.11059083  0.42734301  0.32030610  1
  Al  Al12  1  0.21782608  0.54364784  0.07228442  1
  Al  Al13  1  0.77635130  0.42848988  0.82209023  1
  Al  Al14  1  0.89032281  0.53611855  0.57029400  1
  Al  Al15  1  0.44082647  0.43352909  0.32644835  1
  Al  Al16  1  0.54924740  0.54204454  0.07279510  1
  Al  Al17  1  0.11055828  0.42829823  0.82146924  1
  Al  Al18  1  0.21911857  0.54064069  0.57021101  1
  Al  Al19  1  0.77766579  0.42783319  0.32111618  1
  Al  Al20  1  0.89476628  0.53511792  0.07183689  1
  Al  Al21  1  0.44126793  0.43151689  0.81134457  1
  Al  Al22  1  0.55681934  0.53825711  0.56898917  1
  Al  Al23  1  0.11140760  0.76096304  0.31982454  1
  Al  Al24  1  0.21782732  0.87185990  0.07228407  1
  Al  Al25  1  0.78024008  0.76000744  0.81149255  1
  Al  Al26  1  0.89247358  0.87042930  0.56968364  1
  Al  Al27  1  0.44082751  0.75897912  0.32644756  1
  Al  Al28  1  0.11094351  0.76119440  0.82160440  1
  Al  Al29  1  0.21911919  0.87357332  0.57021087  1
  Al  Al30  1  0.78621895  0.75659961  0.32678808  1
  Al  Al31  1  0.90125164  0.86604042  0.07296597  1
  Al  Al32  1  0.44126843  0.76054759  0.81134505  1
  Al  Al33  1  0.55667339  0.86965006  0.56957217  1
  Gd  Gd34  1  0.55827493  0.20836082  0.07065472  1
  Gd  Gd35  1  0.55827521  0.86670490  0.07065470  1
  N  N36  1  0.21549535  0.20891951  0.38366928  1
  N  N37  1  0.11163410  0.09466495  0.12927268  1
  N  N38  1  0.88718536  0.20548367  0.88044205  1
  N  N39  1  0.78140457  0.09303427  0.62368686  1
  N  N40  1  0.55841539  0.20642068  0.37685195  1
  N  N41  1  0.41530844  0.10901551  0.14999518  1
  N  N42  1  0.22379901  0.20476697  0.87875818  1
  N  N43  1  0.11029855  0.09465046  0.63214908  1
  N  N44  1  0.89061708  0.20781626  0.38190549  1
  N  N45  1  0.81112403  0.07723788  0.14138299  1
  N  N46  1  0.55425423  0.20570647  0.84827444  1
  N  N47  1  0.44090609  0.09621312  0.61530644  1
  N  N48  1  0.21857530  0.54021221  0.38176811  1
  N  N49  1  0.11163286  0.42703469  0.12927263  1
  N  N50  1  0.88718521  0.54066289  0.88044176  1
  N  N51  1  0.77700880  0.42816093  0.63208905  1
  N  N52  1  0.55826030  0.53753765  0.38238404  1
  N  N53  1  0.42756950  0.45485217  0.14104703  1
  N  N54  1  0.22264745  0.53843250  0.88028623  1
  N  N55  1  0.11029837  0.42838272  0.63214922  1
  N  N56  1  0.89061669  0.53489978  0.38190566  1
  N  N57  1  0.77514879  0.42909070  0.12880459  1
  N  N58  1  0.55288913  0.54022181  0.87983342  1
  N  N59  1  0.44163437  0.43175734  0.62343511  1
  N  N60  1  0.21857635  0.87454612  0.38176771  1
  N  N61  1  0.11388263  0.75972565  0.13030028  1
  N  N62  1  0.88686323  0.87323434  0.87961478  1
  N  N63  1  0.78140459  0.75889215  0.62368670  1
  N  N64  1  0.55841535  0.86850000  0.37685143  1
  N  N65  1  0.42757203  0.75091452  0.14104552  1
  N  N66  1  0.22264769  0.87225292  0.88028609  1
  N  N67  1  0.11126627  0.76103287  0.63241960  1
  N  N68  1  0.89323993  0.87004665  0.38387649  1
  N  N69  1  0.81112437  0.74496870  0.14138292  1
  N  N70  1  0.55425450  0.87337242  0.84827445  1
  N  N71  1  0.44163477  0.75994048  0.62343533  1
