# generated using pymatgen
data_GdAl17N18
_symmetry_space_group_name_H-M   'P 1'
_cell_length_a   10.09745733
_cell_length_b   10.04452901
_cell_length_c   8.52805099
_cell_angle_alpha   89.99999452
_cell_angle_beta   90.02052568
_cell_angle_gamma   60.17134572
_symmetry_Int_Tables_number   1
_chemical_formula_structural   GdAl17N18
_chemical_formula_sum   'Gd2 Al34 N36'
_cell_volume   750.35926738
_cell_formula_units_Z   2
loop_
 _symmetry_equiv_pos_site_id
 _symmetry_equiv_pos_as_xyz
  1  'x, y, z'
loop_
 _atom_site_type_symbol
 _atom_site_label
 _atom_site_symmetry_multiplicity
 _atom_site_fract_x
 _atom_site_fract_y
 _atom_site_fract_z
 _atom_site_occupancy
  Al  Al0  1  0.10944750  0.09544533  0.35728095  1
  Al  Al1  1  0.20964387  0.21184346  0.10395838  1
  Al  Al2  1  0.78724952  0.08969453  0.84560615  1
  Al  Al3  1  0.88979792  0.20791347  0.60514980  1
  Al  Al4  1  0.43612178  0.09860176  0.36632243  1
  Al  Al5  1  0.10989380  0.09520968  0.85198998  1
  Al  Al6  1  0.21580790  0.20876200  0.60326857  1
  Al  Al7  1  0.78654655  0.09033899  0.36490087  1
  Al  Al8  1  0.89448324  0.20462671  0.10483560  1
  Al  Al9  1  0.43745054  0.09793778  0.83649710  1
  Al  Al10  1  0.55705118  0.20657810  0.60399519  1
  Al  Al11  1  0.10944979  0.42844192  0.35728040  1
  Al  Al12  1  0.21665347  0.54331564  0.10505291  1
  Al  Al13  1  0.77639894  0.42847346  0.85381969  1
  Al  Al14  1  0.88979827  0.53563040  0.60514925  1
  Al  Al15  1  0.43937382  0.43450015  0.36449635  1
  Al  Al16  1  0.55103673  0.54114326  0.10512521  1
  Al  Al17  1  0.10989599  0.42823155  0.85198997  1
  Al  Al18  1  0.21884245  0.54021610  0.60504232  1
  Al  Al19  1  0.77640025  0.42847287  0.35618098  1
  Al  Al20  1  0.89448607  0.53423228  0.10483534  1
  Al  Al21  1  0.43909069  0.43485889  0.84549525  1
  Al  Al22  1  0.55651337  0.53840674  0.60502082  1
  Al  Al23  1  0.11290068  0.76021633  0.35825329  1
  Al  Al24  1  0.21664746  0.87336386  0.10505314  1
  Al  Al25  1  0.78724719  0.75639955  0.84560604  1
  Al  Al26  1  0.89420469  0.86956739  0.60510429  1
  Al  Al27  1  0.43936811  0.75945615  0.36449868  1
  Al  Al28  1  0.11268081  0.76032611  0.85234509  1
  Al  Al29  1  0.21883749  0.87427336  0.60504292  1
  Al  Al30  1  0.78654482  0.75645806  0.36489971  1
  Al  Al31  1  0.90355118  0.86489493  0.10601109  1
  Al  Al32  1  0.43908474  0.75938029  0.84549462  1
  Al  Al33  1  0.55704908  0.86969742  0.60399527  1
  Gd  Gd34  1  0.55997613  0.20763379  0.10429937  1
  Gd  Gd35  1  0.55997355  0.86570334  0.10429947  1
  N  N36  1  0.21577744  0.20877616  0.36175111  1
  N  N37  1  0.11003279  0.09530955  0.10427434  1
  N  N38  1  0.88971497  0.20795201  0.85200089  1
  N  N39  1  0.78349699  0.09270386  0.60456830  1
  N  N40  1  0.55804881  0.20609618  0.37403923  1
  N  N41  1  0.41463776  0.10934102  0.11199658  1
  N  N42  1  0.21844027  0.20744474  0.84971664  1
  N  N43  1  0.10873708  0.09496136  0.60495316  1
  N  N44  1  0.88955398  0.20764231  0.35630342  1
  N  N45  1  0.81123921  0.07635402  0.10314146  1
  N  N46  1  0.55732916  0.20539474  0.83477736  1
  N  N47  1  0.43809958  0.09761592  0.60329337  1
  N  N48  1  0.21970584  0.53916581  0.35711344  1
  N  N49  1  0.11003540  0.42799398  0.10427445  1
  N  N50  1  0.88971677  0.53567235  0.85200186  1
  N  N51  1  0.77638969  0.42847943  0.60386639  1
  N  N52  1  0.55581510  0.53875485  0.35819924  1
  N  N53  1  0.42763190  0.45416660  0.10338965  1
  N  N54  1  0.21945931  0.53954094  0.85123036  1
  N  N55  1  0.10873800  0.42963916  0.60495348  1
  N  N56  1  0.88955615  0.53614259  0.35630300  1
  N  N57  1  0.77440598  0.42947274  0.10433363  1
  N  N58  1  0.55623541  0.53854429  0.84980155  1
  N  N59  1  0.43996278  0.43316839  0.60455683  1
  N  N60  1  0.21970074  0.87446021  0.35711444  1
  N  N61  1  0.11451808  0.75940761  0.10430771  1
  N  N62  1  0.89386769  0.86973432  0.84650898  1
  N  N63  1  0.78349464  0.75714652  0.60456794  1
  N  N64  1  0.55804620  0.86917754  0.37403963  1
  N  N65  1  0.42762297  0.75152875  0.10338790  1
  N  N66  1  0.21945353  0.87433191  0.85122867  1
  N  N67  1  0.11356255  0.75988521  0.60373553  1
  N  N68  1  0.89332518  0.87000607  0.36101308  1
  N  N69  1  0.81123605  0.74575648  0.10314283  1
  N  N70  1  0.55732687  0.87059876  0.83477723  1
  N  N71  1  0.43995832  0.76020148  0.60455718  1
