# generated using pymatgen
data_GdAl17N18
_symmetry_space_group_name_H-M   'P 1'
_cell_length_a   9.80932621
_cell_length_b   9.76606195
_cell_length_c   9.35730171
_cell_angle_alpha   89.99997528
_cell_angle_beta   90.03511463
_cell_angle_gamma   60.16260338
_symmetry_Int_Tables_number   1
_chemical_formula_structural   GdAl17N18
_chemical_formula_sum   'Gd2 Al34 N36'
_cell_volume   777.58714181
_cell_formula_units_Z   2
loop_
 _symmetry_equiv_pos_site_id
 _symmetry_equiv_pos_as_xyz
  1  'x, y, z'
loop_
 _atom_site_type_symbol
 _atom_site_label
 _atom_site_symmetry_multiplicity
 _atom_site_fract_x
 _atom_site_fract_y
 _atom_site_fract_z
 _atom_site_occupancy
  Al  Al0  1  0.11000055  0.09399685  0.37597342  1
  Al  Al1  1  0.21299739  0.21017806  0.12981075  1
  Al  Al2  1  0.78901956  0.08872058  0.86698603  1
  Al  Al3  1  0.89055497  0.20826503  0.62748977  1
  Al  Al4  1  0.44022152  0.09654768  0.39522868  1
  Al  Al5  1  0.10971642  0.09665827  0.87875144  1
  Al  Al6  1  0.21340396  0.20997169  0.62505953  1
  Al  Al7  1  0.78257096  0.09258623  0.38627693  1
  Al  Al8  1  0.89409567  0.20310779  0.12660311  1
  Al  Al9  1  0.43560167  0.09886141  0.85569713  1
  Al  Al10  1  0.55793436  0.20708991  0.62206524  1
  Al  Al11  1  0.10999986  0.42932536  0.37597656  1
  Al  Al12  1  0.21803894  0.54312188  0.12614013  1
  Al  Al13  1  0.77703242  0.42814221  0.87904248  1
  Al  Al14  1  0.89055548  0.53452288  0.62748825  1
  Al  Al15  1  0.44017848  0.43247392  0.38694833  1
  Al  Al16  1  0.54811367  0.54261839  0.12700320  1
  Al  Al17  1  0.10971582  0.42695085  0.87874737  1
  Al  Al18  1  0.21747256  0.54114072  0.62784190  1
  Al  Al19  1  0.77641779  0.42845119  0.37384409  1
  Al  Al20  1  0.89409394  0.53613181  0.12660477  1
  Al  Al21  1  0.43981145  0.43516941  0.86678592  1
  Al  Al22  1  0.55823818  0.53755229  0.62725543  1
  Al  Al23  1  0.11354564  0.75988914  0.37634237  1
  Al  Al24  1  0.21804735  0.87218767  0.12613735  1
  Al  Al25  1  0.78902165  0.75557194  0.86698792  1
  Al  Al26  1  0.89491547  0.86921359  0.62486054  1
  Al  Al27  1  0.44018000  0.76066712  0.38695104  1
  Al  Al28  1  0.11088075  0.76122199  0.87927180  1
  Al  Al29  1  0.21747264  0.87473566  0.62784474  1
  Al  Al30  1  0.78257203  0.75816069  0.38627590  1
  Al  Al31  1  0.90215280  0.86559249  0.12866119  1
  Al  Al32  1  0.43981752  0.75833842  0.86678100  1
  Al  Al33  1  0.55793665  0.86831939  0.62206689  1
  Gd  Gd34  1  0.55833291  0.20733235  0.11501611  1
  Gd  Gd35  1  0.55833639  0.86771011  0.11501535  1
  N  N36  1  0.22306918  0.20514586  0.33683473  1
  N  N37  1  0.11056720  0.09557968  0.08475348  1
  N  N38  1  0.89087141  0.20913478  0.83055587  1
  N  N39  1  0.78297690  0.09308895  0.58928976  1
  N  N40  1  0.55561303  0.20524254  0.36336165  1
  N  N41  1  0.41078231  0.11126678  0.05981426  1
  N  N42  1  0.21215902  0.21060253  0.82543227  1
  N  N43  1  0.10886593  0.09459999  0.57892018  1
  N  N44  1  0.88795344  0.20569004  0.33218488  1
  N  N45  1  0.81363309  0.07476169  0.07128739  1
  N  N46  1  0.55986490  0.20628331  0.83349080  1
  N  N47  1  0.43962498  0.09683899  0.59973505  1
  N  N48  1  0.22292699  0.53798817  0.33266775  1
  N  N49  1  0.11056540  0.42716503  0.08475131  1
  N  N50  1  0.89087238  0.53334683  0.83055191  1
  N  N51  1  0.77711461  0.42809368  0.57809380  1
  N  N52  1  0.55258842  0.54038555  0.33471592  1
  N  N53  1  0.42655517  0.45616646  0.07128940  1
  N  N54  1  0.21689346  0.54061406  0.83065005  1
  N  N55  1  0.10886759  0.42984185  0.57892115  1
  N  N56  1  0.88795514  0.53971081  0.33218739  1
  N  N57  1  0.77395176  0.42966955  0.08576963  1
  N  N58  1  0.55963188  0.53686391  0.82849002  1
  N  N59  1  0.44031159  0.43272526  0.59046615  1
  N  N60  1  0.22293192  0.87244363  0.33266514  1
  N  N61  1  0.11381055  0.75975254  0.08404346  1
  N  N62  1  0.89558648  0.86888345  0.82507202  1
  N  N63  1  0.78297819  0.75723614  0.58928767  1
  N  N64  1  0.55561355  0.87249957  0.36336153  1
  N  N65  1  0.42656704  0.75058677  0.07129061  1
  N  N66  1  0.21689812  0.87585436  0.83065463  1
  N  N67  1  0.11327208  0.76001994  0.57899960  1
  N  N68  1  0.88968430  0.87183532  0.33674377  1
  N  N69  1  0.81363743  0.74489318  0.07128863  1
  N  N70  1  0.55986743  0.86721029  0.83349209  1
  N  N71  1  0.44031244  0.76026704  0.59047131  1
