# generated using pymatgen
data_LiGaO2
_symmetry_space_group_name_H-M   'P 1'
_cell_length_a   5.09012835
_cell_length_b   5.50279703
_cell_length_c   6.55997935
_cell_angle_alpha   90.13379491
_cell_angle_beta   89.96351158
_cell_angle_gamma   90.00684465
_symmetry_Int_Tables_number   1
_chemical_formula_structural   LiGaO2
_chemical_formula_sum   'Li4 Ga4 O8'
_cell_volume   183.74410924
_cell_formula_units_Z   4
loop_
 _symmetry_equiv_pos_site_id
 _symmetry_equiv_pos_as_xyz
  1  'x, y, z'
loop_
 _atom_site_type_symbol
 _atom_site_label
 _atom_site_symmetry_multiplicity
 _atom_site_fract_x
 _atom_site_fract_y
 _atom_site_fract_z
 _atom_site_occupancy
  O  O0  1  0.13468550  0.93355785  0.09776680  1
  O  O1  1  0.63496064  0.06810264  0.87754865  1
  O  O2  1  0.10660557  0.91278248  0.62631491  1
  O  O3  1  0.10119904  0.40396969  0.85405253  1
  O  O4  1  0.60765764  0.08784590  0.34869923  1
  O  O5  1  0.58754136  0.59384419  0.12056401  1
  O  O6  1  0.01813299  0.43379133  0.37876168  1
  O  O7  1  0.51871136  0.56759668  0.59539745  1
  Ga  Ga8  1  0.00271157  0.07776749  0.86121508  1
  Ga  Ga9  1  0.50321127  0.92319696  0.11411887  1
  Ga  Ga10  1  0.14678922  0.57559513  0.61270967  1
  Ga  Ga11  1  0.64660120  0.42575628  0.36107431  1
  Li  Li12  1  0.05366783  0.58343652  0.10636571  1
  Li  Li13  1  0.01806627  0.06723427  0.36461799  1
  Li  Li14  1  0.53034895  0.41249287  0.86994420  1
  Li  Li15  1  0.51932900  0.93310432  0.61046908  1
