# generated using pymatgen
data_LiGaO2
_symmetry_space_group_name_H-M   'P 1'
_cell_length_a   5.09001830
_cell_length_b   5.50465761
_cell_length_c   6.55092445
_cell_angle_alpha   89.94586126
_cell_angle_beta   90.07368734
_cell_angle_gamma   90.04253962
_symmetry_Int_Tables_number   1
_chemical_formula_structural   LiGaO2
_chemical_formula_sum   'Li4 Ga4 O8'
_cell_volume   183.54880992
_cell_formula_units_Z   4
loop_
 _symmetry_equiv_pos_site_id
 _symmetry_equiv_pos_as_xyz
  1  'x, y, z'
loop_
 _atom_site_type_symbol
 _atom_site_label
 _atom_site_symmetry_multiplicity
 _atom_site_fract_x
 _atom_site_fract_y
 _atom_site_fract_z
 _atom_site_occupancy
  O  O0  1  0.10605052  0.92783140  0.10304385  1
  O  O1  1  0.53060551  0.07523289  0.86772991  1
  O  O2  1  0.02695625  0.90492278  0.62292043  1
  O  O3  1  0.02747577  0.41083087  0.84585453  1
  O  O4  1  0.53554310  0.09433697  0.35751676  1
  O  O5  1  0.53359624  0.58510616  0.12597812  1
  O  O6  1  0.00377799  0.43106809  0.37830419  1
  O  O7  1  0.50403504  0.57066333  0.59697344  1
  Ga  Ga8  1  0.10937619  0.08340050  0.85398492  1
  Ga  Ga9  1  0.49786402  0.92082780  0.11651689  1
  Ga  Ga10  1  0.13728495  0.58117586  0.61198114  1
  Ga  Ga11  1  0.63566443  0.42030419  0.36217100  1
  Li  Li12  1  0.11516700  0.56894568  0.11121964  1
  Li  Li13  1  0.11213954  0.08740932  0.37078144  1
  Li  Li14  1  0.62713413  0.42205204  0.86310822  1
  Li  Li15  1  0.62754873  0.91596668  0.61153568  1
