# generated using pymatgen
data_LiGaO2
_symmetry_space_group_name_H-M   'P 1'
_cell_length_a   5.09000415
_cell_length_b   5.49768448
_cell_length_c   6.52195311
_cell_angle_alpha   90.02031535
_cell_angle_beta   89.93152787
_cell_angle_gamma   90.06396793
_symmetry_Int_Tables_number   1
_chemical_formula_structural   LiGaO2
_chemical_formula_sum   'Li4 Ga4 O8'
_cell_volume   182.50510277
_cell_formula_units_Z   4
loop_
 _symmetry_equiv_pos_site_id
 _symmetry_equiv_pos_as_xyz
  1  'x, y, z'
loop_
 _atom_site_type_symbol
 _atom_site_label
 _atom_site_symmetry_multiplicity
 _atom_site_fract_x
 _atom_site_fract_y
 _atom_site_fract_z
 _atom_site_occupancy
  O  O0  1  0.08528276  0.92755964  0.10401921  1
  O  O1  1  0.51273993  0.07488286  0.86790383  1
  O  O2  1  0.02562472  0.90695773  0.62510867  1
  O  O3  1  0.02525205  0.40789003  0.84423441  1
  O  O4  1  0.53345219  0.09458978  0.35824976  1
  O  O5  1  0.53242491  0.58319143  0.12401741  1
  O  O6  1  0.00335043  0.43224647  0.37704963  1
  O  O7  1  0.50302151  0.57169993  0.59769085  1
  Ga  Ga8  1  0.12972921  0.08377782  0.85589473  1
  Ga  Ga9  1  0.51832504  0.91782544  0.11878706  1
  Ga  Ga10  1  0.13487698  0.58333736  0.61255236  1
  Ga  Ga11  1  0.63648920  0.42082752  0.36296047  1
  Li  Li12  1  0.11135131  0.57417785  0.10878680  1
  Li  Li13  1  0.11112313  0.08564120  0.36820287  1
  Li  Li14  1  0.63300189  0.41897192  0.86039040  1
  Li  Li15  1  0.63417416  0.91649761  0.61377171  1
