# generated using pymatgen
data_LiGaO2
_symmetry_space_group_name_H-M   'P 1'
_cell_length_a   5.08997440
_cell_length_b   5.47092118
_cell_length_c   6.47546358
_cell_angle_alpha   89.97206162
_cell_angle_beta   89.92851108
_cell_angle_gamma   90.08236442
_symmetry_Int_Tables_number   1
_chemical_formula_structural   LiGaO2
_chemical_formula_sum   'Li4 Ga4 O8'
_cell_volume   180.32090658
_cell_formula_units_Z   4
loop_
 _symmetry_equiv_pos_site_id
 _symmetry_equiv_pos_as_xyz
  1  'x, y, z'
loop_
 _atom_site_type_symbol
 _atom_site_label
 _atom_site_symmetry_multiplicity
 _atom_site_fract_x
 _atom_site_fract_y
 _atom_site_fract_z
 _atom_site_occupancy
  O  O0  1  0.00007550  0.93109562  0.10036715  1
  O  O1  1  0.50051474  0.06923326  0.87523668  1
  O  O2  1  0.02423680  0.90731962  0.62619978  1
  O  O3  1  0.02399128  0.40707945  0.84760885  1
  O  O4  1  0.52407170  0.09257323  0.35076226  1
  O  O5  1  0.52396880  0.59124737  0.12531957  1
  O  O6  1  0.00087364  0.43175915  0.37516350  1
  O  O7  1  0.50151165  0.56972829  0.59925454  1
  Ga  Ga8  1  0.13138246  0.08097976  0.86169000  1
  Ga  Ga9  1  0.62804933  0.91884735  0.11440615  1
  Ga  Ga10  1  0.13320987  0.58178618  0.61292701  1
  Ga  Ga11  1  0.63241919  0.41903180  0.36134320  1
  Li  Li12  1  0.12360795  0.58072283  0.11051100  1
  Li  Li13  1  0.12380659  0.08267246  0.36412662  1
  Li  Li14  1  0.62900978  0.41825279  0.86196183  1
  Li  Li15  1  0.62946943  0.91774540  0.61274197  1
