# generated using pymatgen
data_LiGaO2
_symmetry_space_group_name_H-M   'P 1'
_cell_length_a   5.49104108
_cell_length_b   6.51160840
_cell_length_c   5.09020384
_cell_angle_alpha   89.92382391
_cell_angle_beta   90.07092237
_cell_angle_gamma   89.99502584
_symmetry_Int_Tables_number   1
_chemical_formula_structural   LiGaO2
_chemical_formula_sum   'Li4 Ga4 O8'
_cell_volume   182.00252917
_cell_formula_units_Z   4
loop_
 _symmetry_equiv_pos_site_id
 _symmetry_equiv_pos_as_xyz
  1  'x, y, z'
loop_
 _atom_site_type_symbol
 _atom_site_label
 _atom_site_symmetry_multiplicity
 _atom_site_fract_x
 _atom_site_fract_y
 _atom_site_fract_z
 _atom_site_occupancy
  O  O0  1  -0.92867808  0.09798433  -0.13829541  1
  O  O1  1  -0.06785300  0.87665939  -0.63852462  1
  O  O2  1  -0.91470655  0.62433471  -0.11275616  1
  O  O3  1  -0.40584661  0.85608078  -0.11216857  1
  O  O4  1  -0.09254042  0.34455372  -0.61597343  1
  O  O5  1  -0.59264582  0.12518299  -0.61551141  1
  O  O6  1  -0.42704929  0.37061848  -0.13405837  1
  O  O7  1  -0.57130985  0.60282854  -0.60224319  1
  Ga  Ga8  1  -0.07947895  0.86300930  -0.00526769  1
  Ga  Ga9  1  -0.91675809  0.11268268  -0.50682770  1
  Ga  Ga10  1  -0.58154518  0.61683696  -0.06523662  1
  Ga  Ga11  1  -0.41846301  0.35979191  -0.51262789  1
  Li  Li12  1  -0.58346204  0.11363853  -0.00777621  1
  Li  Li13  1  -0.08106906  0.36028888  -0.00871666  1
  Li  Li14  1  -0.41582840  0.86613619  -0.52697774  1
  Li  Li15  1  -0.92284022  0.60899278  -0.52725775  1
