# generated using pymatgen
data_LiGaO2
_symmetry_space_group_name_H-M   'P 1'
_cell_length_a   5.50625847
_cell_length_b   6.55207161
_cell_length_c   5.09016196
_cell_angle_alpha   90.07476793
_cell_angle_beta   90.04835740
_cell_angle_gamma   89.91662632
_symmetry_Int_Tables_number   1
_chemical_formula_structural   LiGaO2
_chemical_formula_sum   'Li4 Ga4 O8'
_cell_volume   183.63939217
_cell_formula_units_Z   4
loop_
 _symmetry_equiv_pos_site_id
 _symmetry_equiv_pos_as_xyz
  1  'x, y, z'
loop_
 _atom_site_type_symbol
 _atom_site_label
 _atom_site_symmetry_multiplicity
 _atom_site_fract_x
 _atom_site_fract_y
 _atom_site_fract_z
 _atom_site_occupancy
  O  O0  1  -0.92953673  0.09688128  -0.13682254  1
  O  O1  1  -0.06910675  0.87833195  -0.63759523  1
  O  O2  1  -0.91441523  0.62642647  -0.10834547  1
  O  O3  1  -0.40582665  0.85738757  -0.10627868  1
  O  O4  1  -0.08754669  0.34642159  -0.61238734  1
  O  O5  1  -0.59568863  0.12156600  -0.61278495  1
  O  O6  1  -0.42581648  0.36967265  -0.08864082  1
  O  O7  1  -0.57176106  0.60228870  -0.53264477  1
  Ga  Ga8  1  -0.08001673  0.86184122  -0.00608272  1
  Ga  Ga9  1  -0.91954400  0.11152730  -0.50287242  1
  Ga  Ga10  1  -0.57779382  0.61461596  -0.14258006  1
  Ga  Ga11  1  -0.41800875  0.35579535  -0.55894057  1
  Li  Li12  1  -0.58446162  0.11082411  -0.01559144  1
  Li  Li13  1  -0.07704644  0.36356216  -0.01583734  1
  Li  Li14  1  -0.41222128  0.87089306  -0.52790064  1
  Li  Li15  1  -0.93128371  0.61158480  -0.52491443  1
