# generated using pymatgen
data_LiGaO2
_symmetry_space_group_name_H-M   'P 1'
_cell_length_a   5.09007306
_cell_length_b   5.50018534
_cell_length_c   6.56315070
_cell_angle_alpha   89.94126456
_cell_angle_beta   90.06650821
_cell_angle_gamma   90.02432249
_symmetry_Int_Tables_number   1
_chemical_formula_structural   LiGaO2
_chemical_formula_sum   'Li4 Ga4 O8'
_cell_volume   183.74399593
_cell_formula_units_Z   4
loop_
 _symmetry_equiv_pos_site_id
 _symmetry_equiv_pos_as_xyz
  1  'x, y, z'
loop_
 _atom_site_type_symbol
 _atom_site_label
 _atom_site_symmetry_multiplicity
 _atom_site_fract_x
 _atom_site_fract_y
 _atom_site_fract_z
 _atom_site_occupancy
  O  O0  1  0.12455211  0.93398468  0.09548112  1
  O  O1  1  0.62634544  0.06230000  0.87651385  1
  O  O2  1  0.09628433  0.91080825  0.62463369  1
  O  O3  1  0.03257761  0.41201110  0.84891411  1
  O  O4  1  0.55365113  0.09411343  0.35219590  1
  O  O5  1  0.53486539  0.58639858  0.12575806  1
  O  O6  1  0.00837983  0.43438429  0.37703443  1
  O  O7  1  0.50957090  0.56198286  0.59861024  1
  Ga  Ga8  1  0.99556406  0.07255730  0.85932225  1
  Ga  Ga9  1  0.49633058  0.92416396  0.11239127  1
  Ga  Ga10  1  0.14034565  0.57354727  0.61494364  1
  Ga  Ga11  1  0.64019082  0.42320912  0.36078348  1
  Li  Li12  1  0.12354477  0.56733452  0.11017454  1
  Li  Li13  1  0.09559158  0.08538578  0.36689238  1
  Li  Li14  1  0.62589603  0.43228310  0.86447052  1
  Li  Li15  1  0.52652917  0.92561035  0.61150071  1
