# generated using pymatgen
data_LiGaO2
_symmetry_space_group_name_H-M   'P 1'
_cell_length_a   5.50447619
_cell_length_b   6.55061551
_cell_length_c   5.09016965
_cell_angle_alpha   90.07199779
_cell_angle_beta   90.04460175
_cell_angle_gamma   89.94871155
_symmetry_Int_Tables_number   1
_chemical_formula_structural   LiGaO2
_chemical_formula_sum   'Li4 Ga4 O8'
_cell_volume   183.53957230
_cell_formula_units_Z   4
loop_
 _symmetry_equiv_pos_site_id
 _symmetry_equiv_pos_as_xyz
  1  'x, y, z'
loop_
 _atom_site_type_symbol
 _atom_site_label
 _atom_site_symmetry_multiplicity
 _atom_site_fract_x
 _atom_site_fract_y
 _atom_site_fract_z
 _atom_site_occupancy
  O  O0  1  -0.92931527  0.09699234  -0.13726720  1
  O  O1  1  -0.06890225  0.87829936  -0.63750660  1
  O  O2  1  -0.91496437  0.62591058  -0.10759044  1
  O  O3  1  -0.40566889  0.85754769  -0.10563650  1
  O  O4  1  -0.08934288  0.34578115  -0.61389384  1
  O  O5  1  -0.59503197  0.12305839  -0.61441425  1
  O  O6  1  -0.42471087  0.36759906  -0.11225367  1
  O  O7  1  -0.57219366  0.60308486  -0.53540544  1
  Ga  Ga8  1  -0.07966658  0.86220192  -0.00559395  1
  Ga  Ga9  1  -0.91875328  0.11202561  -0.50407742  1
  Ga  Ga10  1  -0.57932900  0.61671631  -0.14356077  1
  Ga  Ga11  1  -0.41647846  0.35382851  -0.52984682  1
  Li  Li12  1  -0.58401360  0.11160986  -0.01340826  1
  Li  Li13  1  -0.07804423  0.36305061  -0.01384663  1
  Li  Li14  1  -0.41265189  0.87075732  -0.52946904  1
  Li  Li15  1  -0.93100737  0.61115662  -0.52644859  1
