# generated using pymatgen
data_LiGaO2
_symmetry_space_group_name_H-M   'P 1'
_cell_length_a   5.50270458
_cell_length_b   6.54786603
_cell_length_c   5.09004909
_cell_angle_alpha   89.99345414
_cell_angle_beta   90.02167542
_cell_angle_gamma   90.21821594
_symmetry_Int_Tables_number   1
_chemical_formula_structural   LiGaO2
_chemical_formula_sum   'Li4 Ga4 O8'
_cell_volume   183.39807409
_cell_formula_units_Z   4
loop_
 _symmetry_equiv_pos_site_id
 _symmetry_equiv_pos_as_xyz
  1  'x, y, z'
loop_
 _atom_site_type_symbol
 _atom_site_label
 _atom_site_symmetry_multiplicity
 _atom_site_fract_x
 _atom_site_fract_y
 _atom_site_fract_z
 _atom_site_occupancy
  O  O0  1  -0.93198136  0.09583729  -0.12151161  1
  O  O1  1  -0.06806755  0.87917385  -0.62154282  1
  O  O2  1  -0.90423501  0.61950909  -0.03568301  1
  O  O3  1  -0.41280579  0.84853883  -0.03390614  1
  O  O4  1  -0.09566528  0.35555379  -0.53588343  1
  O  O5  1  -0.58722885  0.12628832  -0.53380557  1
  O  O6  1  -0.43087528  0.37790053  -0.00499215  1
  O  O7  1  -0.56922673  0.59698591  -0.50510823  1
  Ga  Ga8  1  -0.07568286  0.86214542  -0.99388326  1
  Ga  Ga9  1  -0.92437897  0.11284592  -0.49367551  1
  Ga  Ga10  1  -0.57891322  0.61344186  -0.13743092  1
  Ga  Ga11  1  -0.42116746  0.36141146  -0.63724000  1
  Li  Li12  1  -0.56705938  0.11065973  -0.12039709  1
  Li  Li13  1  -0.08830619  0.37223596  -0.11682211  1
  Li  Li14  1  -0.43283112  0.86424375  -0.62069468  1
  Li  Li15  1  -0.91164953  0.60284845  -0.61764289  1
