# generated using pymatgen
data_LiGaO2
_symmetry_space_group_name_H-M   'P 1'
_cell_length_a   5.50341014
_cell_length_b   6.56288246
_cell_length_c   5.09012052
_cell_angle_alpha   90.04930692
_cell_angle_beta   90.01465654
_cell_angle_gamma   89.90329720
_symmetry_Int_Tables_number   1
_chemical_formula_structural   LiGaO2
_chemical_formula_sum   'Li4 Ga4 O8'
_cell_volume   183.84582785
_cell_formula_units_Z   4
loop_
 _symmetry_equiv_pos_site_id
 _symmetry_equiv_pos_as_xyz
  1  'x, y, z'
loop_
 _atom_site_type_symbol
 _atom_site_label
 _atom_site_symmetry_multiplicity
 _atom_site_fract_x
 _atom_site_fract_y
 _atom_site_fract_z
 _atom_site_occupancy
  O  O0  1  -0.93600774  0.09818536  -0.13326882  1
  O  O1  1  -0.06716817  0.87735705  -0.63409222  1
  O  O2  1  -0.91308099  0.62611118  -0.10640269  1
  O  O3  1  -0.40428981  0.85295203  -0.09717224  1
  O  O4  1  -0.08804158  0.34885978  -0.60825166  1
  O  O5  1  -0.59146826  0.12237912  -0.56584415  1
  O  O6  1  -0.43565491  0.37773897  -0.01659705  1
  O  O7  1  -0.56701780  0.59537687  -0.51800643  1
  Ga  Ga8  1  -0.07740253  0.86098078  -0.00188679  1
  Ga  Ga9  1  -0.92487411  0.11458526  -0.50238612  1
  Ga  Ga10  1  -0.57584662  0.61239669  -0.14611171  1
  Ga  Ga11  1  -0.42665975  0.36015075  -0.64605860  1
  Li  Li12  1  -0.57950317  0.10903014  -0.08456457  1
  Li  Li13  1  -0.06757133  0.36462473  -0.01679321  1
  Li  Li14  1  -0.41264582  0.86853440  -0.53394110  1
  Li  Li15  1  -0.93284198  0.61035706  -0.51884206  1
