# generated using pymatgen
data_LiGaO2
_symmetry_space_group_name_H-M   'P 1'
_cell_length_a   5.09019519
_cell_length_b   5.49445598
_cell_length_c   6.51708396
_cell_angle_alpha   89.99216829
_cell_angle_beta   90.06849504
_cell_angle_gamma   90.06428335
_symmetry_Int_Tables_number   1
_chemical_formula_structural   LiGaO2
_chemical_formula_sum   'Li4 Ga4 O8'
_cell_volume   182.26860198
_cell_formula_units_Z   4
loop_
 _symmetry_equiv_pos_site_id
 _symmetry_equiv_pos_as_xyz
  1  'x, y, z'
loop_
 _atom_site_type_symbol
 _atom_site_label
 _atom_site_symmetry_multiplicity
 _atom_site_fract_x
 _atom_site_fract_y
 _atom_site_fract_z
 _atom_site_occupancy
  O  O0  1  0.13826669  0.92851214  0.09780781  1
  O  O1  1  0.63822168  0.06783495  0.87686757  1
  O  O2  1  0.11096691  0.91601891  0.62415298  1
  O  O3  1  0.11020565  0.40551066  0.85727818  1
  O  O4  1  0.61594450  0.09231461  0.34429271  1
  O  O5  1  0.61550162  0.59275102  0.12500795  1
  O  O6  1  0.13118746  0.42600756  0.36914098  1
  O  O7  1  0.57952738  0.57190884  0.60345936  1
  Ga  Ga8  1  0.00472490  0.07923538  0.86317138  1
  Ga  Ga9  1  0.50674528  0.91663294  0.11267285  1
  Ga  Ga10  1  0.09355842  0.58188915  0.61777865  1
  Ga  Ga11  1  0.51261107  0.41762319  0.35828827  1
  Li  Li12  1  0.00735716  0.58355827  0.11371884  1
  Li  Li13  1  0.00838561  0.08103113  0.36025020  1
  Li  Li14  1  0.52845353  0.41528631  0.86688146  1
  Li  Li15  1  0.52856156  0.92395953  0.60885097  1
