# generated using pymatgen
data_LiGaO2
_symmetry_space_group_name_H-M   'P 1'
_cell_length_a   5.50681037
_cell_length_b   6.54916750
_cell_length_c   5.09004339
_cell_angle_alpha   89.94662584
_cell_angle_beta   90.05816607
_cell_angle_gamma   90.15040202
_symmetry_Int_Tables_number   1
_chemical_formula_structural   LiGaO2
_chemical_formula_sum   'Li4 Ga4 O8'
_cell_volume   183.57172838
_cell_formula_units_Z   4
loop_
 _symmetry_equiv_pos_site_id
 _symmetry_equiv_pos_as_xyz
  1  'x, y, z'
loop_
 _atom_site_type_symbol
 _atom_site_label
 _atom_site_symmetry_multiplicity
 _atom_site_fract_x
 _atom_site_fract_y
 _atom_site_fract_z
 _atom_site_occupancy
  O  O0  1  -0.93012969  0.09918804  -0.11611968  1
  O  O1  1  -0.07142564  0.87451649  -0.60155215  1
  O  O2  1  -0.90393705  0.61987155  -0.03213185  1
  O  O3  1  -0.41403719  0.84717964  -0.03204248  1
  O  O4  1  -0.09435151  0.35675830  -0.53500990  1
  O  O5  1  -0.58622764  0.12634077  -0.53274665  1
  O  O6  1  -0.43073463  0.37808854  -0.00377680  1
  O  O7  1  -0.57015871  0.59693692  -0.50503182  1
  Ga  Ga8  1  -0.07882178  0.85987109  -0.02172715  1
  Ga  Ga9  1  -0.92368539  0.11263712  -0.49721243  1
  Ga  Ga10  1  -0.57986658  0.61177384  -0.13871389  1
  Ga  Ga11  1  -0.42014414  0.36158312  -0.63534208  1
  Li  Li12  1  -0.56831547  0.11145165  -0.11766040  1
  Li  Li13  1  -0.08803847  0.37131883  -0.11472441  1
  Li  Li14  1  -0.42619815  0.86384482  -0.62332849  1
  Li  Li15  1  -0.91400255  0.60825946  -0.62309923  1
