# generated using pymatgen
data_LiGaO2
_symmetry_space_group_name_H-M   'P 1'
_cell_length_a   5.08999657
_cell_length_b   5.49471759
_cell_length_c   6.51711071
_cell_angle_alpha   90.00883939
_cell_angle_beta   89.92626269
_cell_angle_gamma   90.06766283
_symmetry_Int_Tables_number   1
_chemical_formula_structural   LiGaO2
_chemical_formula_sum   'Li4 Ga4 O8'
_cell_volume   182.27088238
_cell_formula_units_Z   4
loop_
 _symmetry_equiv_pos_site_id
 _symmetry_equiv_pos_as_xyz
  1  'x, y, z'
loop_
 _atom_site_type_symbol
 _atom_site_label
 _atom_site_symmetry_multiplicity
 _atom_site_fract_x
 _atom_site_fract_y
 _atom_site_fract_z
 _atom_site_occupancy
  O  O0  1  0.06249866  0.92807750  0.10350105  1
  O  O1  1  0.51017980  0.07403389  0.86910481  1
  O  O2  1  0.02578934  0.90724383  0.62501814  1
  O  O3  1  0.02532741  0.40768428  0.84427835  1
  O  O4  1  0.53112242  0.09450889  0.35733328  1
  O  O5  1  0.53034636  0.58395162  0.12413738  1
  O  O6  1  0.00305393  0.43218517  0.37685652  1
  O  O7  1  0.50301037  0.57150989  0.59779953  1
  Ga  Ga8  1  0.12866988  0.08242011  0.85824237  1
  Ga  Ga9  1  0.54666986  0.91810427  0.11782475  1
  Ga  Ga10  1  0.13453126  0.58338002  0.61265836  1
  Ga  Ga11  1  0.63654109  0.42078047  0.36315390  1
  Li  Li12  1  0.11268590  0.57602802  0.10882081  1
  Li  Li13  1  0.11278432  0.08475859  0.36692179  1
  Li  Li14  1  0.63296864  0.41896635  0.86023650  1
  Li  Li15  1  0.63404018  0.91644168  0.61373265  1
