# generated using pymatgen
data_LiGaO2
_symmetry_space_group_name_H-M   'P 1'
_cell_length_a   5.48632032
_cell_length_b   6.50379164
_cell_length_c   5.08998238
_cell_angle_alpha   90.08881690
_cell_angle_beta   90.08252895
_cell_angle_gamma   90.01954594
_symmetry_Int_Tables_number   1
_chemical_formula_structural   LiGaO2
_chemical_formula_sum   'Li4 Ga4 O8'
_cell_volume   181.61974450
_cell_formula_units_Z   4
loop_
 _symmetry_equiv_pos_site_id
 _symmetry_equiv_pos_as_xyz
  1  'x, y, z'
loop_
 _atom_site_type_symbol
 _atom_site_label
 _atom_site_symmetry_multiplicity
 _atom_site_fract_x
 _atom_site_fract_y
 _atom_site_fract_z
 _atom_site_occupancy
  O  O0  1  -0.92946413  0.10200686  -0.01722056  1
  O  O1  1  -0.07162560  0.87248804  -0.50419300  1
  O  O2  1  -0.90736095  0.62564093  -0.02561087  1
  O  O3  1  -0.40714220  0.84511495  -0.02513966  1
  O  O4  1  -0.09362242  0.35445479  -0.52735670  1
  O  O5  1  -0.58723787  0.12459876  -0.52694372  1
  O  O6  1  -0.43216815  0.37632291  -0.00236608  1
  O  O7  1  -0.57111494  0.59826788  -0.50288173  1
  Ga  Ga8  1  -0.08096456  0.86094681  -0.12935426  1
  Ga  Ga9  1  -0.91883340  0.11585012  -0.60266279  1
  Ga  Ga10  1  -0.58292455  0.61263695  -0.13447931  1
  Ga  Ga11  1  -0.42010724  0.36252190  -0.63492077  1
  Li  Li12  1  -0.57813317  0.10922648  -0.11597079  1
  Li  Li13  1  -0.08372967  0.36556150  -0.11638238  1
  Li  Li14  1  -0.41883526  0.86047913  -0.63192255  1
  Li  Li15  1  -0.91681048  0.61350215  -0.63281426  1
