# generated using pymatgen
data_LiGaO2
_symmetry_space_group_name_H-M   'P 1'
_cell_length_a   5.50585354
_cell_length_b   6.52991861
_cell_length_c   5.09019039
_cell_angle_alpha   89.85509397
_cell_angle_beta   90.13592752
_cell_angle_gamma   90.07969545
_symmetry_Int_Tables_number   1
_chemical_formula_structural   LiGaO2
_chemical_formula_sum   'Li4 Ga4 O8'
_cell_volume   183.00519650
_cell_formula_units_Z   4
loop_
 _symmetry_equiv_pos_site_id
 _symmetry_equiv_pos_as_xyz
  1  'x, y, z'
loop_
 _atom_site_type_symbol
 _atom_site_label
 _atom_site_symmetry_multiplicity
 _atom_site_fract_x
 _atom_site_fract_y
 _atom_site_fract_z
 _atom_site_occupancy
  O  O0  1  -0.92811007  0.09752507  -0.13776755  1
  O  O1  1  -0.06673383  0.87698992  -0.63776497  1
  O  O2  1  -0.91687221  0.62363080  -0.10454313  1
  O  O3  1  -0.40669689  0.85991638  -0.10067003  1
  O  O4  1  -0.09218412  0.34317421  -0.61541206  1
  O  O5  1  -0.59371500  0.12578171  -0.61508047  1
  O  O6  1  -0.42469282  0.36824540  -0.12467776  1
  O  O7  1  -0.57175143  0.60345357  -0.53726957  1
  Ga  Ga8  1  -0.07926389  0.86219282  -0.00593372  1
  Ga  Ga9  1  -0.91641891  0.11182593  -0.50522969  1
  Ga  Ga10  1  -0.58287369  0.62142712  -0.14701284  1
  Ga  Ga11  1  -0.41357686  0.35182153  -0.50597490  1
  Li  Li12  1  -0.58380369  0.11527467  -0.00579184  1
  Li  Li13  1  -0.08157619  0.36063338  -0.00767108  1
  Li  Li14  1  -0.41329261  0.87010805  -0.54200132  1
  Li  Li15  1  -0.92851237  0.60761960  -0.53741848  1
