# generated using pymatgen
data_LiGaO2
_symmetry_space_group_name_H-M   'P 1'
_cell_length_a   5.49471759
_cell_length_b   6.51711071
_cell_length_c   5.08999657
_cell_angle_alpha   90.07373731
_cell_angle_beta   90.06766283
_cell_angle_gamma   89.99116061
_symmetry_Int_Tables_number   1
_chemical_formula_structural   LiGaO2
_chemical_formula_sum   'Li4 Ga4 O8'
_cell_volume   182.27088238
_cell_formula_units_Z   4
loop_
 _symmetry_equiv_pos_site_id
 _symmetry_equiv_pos_as_xyz
  1  'x, y, z'
loop_
 _atom_site_type_symbol
 _atom_site_label
 _atom_site_symmetry_multiplicity
 _atom_site_fract_x
 _atom_site_fract_y
 _atom_site_fract_z
 _atom_site_occupancy
  O  O0  1  -0.92807750  0.10350105  -0.06249866  1
  O  O1  1  -0.07403389  0.86910481  -0.51017980  1
  O  O2  1  -0.90724383  0.62501814  -0.02578934  1
  O  O3  1  -0.40768428  0.84427835  -0.02532741  1
  O  O4  1  -0.09450889  0.35733328  -0.53112242  1
  O  O5  1  -0.58395162  0.12413738  -0.53034636  1
  O  O6  1  -0.43218517  0.37685652  -0.00305393  1
  O  O7  1  -0.57150989  0.59779953  -0.50301037  1
  Ga  Ga8  1  -0.08242011  0.85824237  -0.12866988  1
  Ga  Ga9  1  -0.91810427  0.11782475  -0.54666986  1
  Ga  Ga10  1  -0.58338002  0.61265836  -0.13453126  1
  Ga  Ga11  1  -0.42078047  0.36315390  -0.63654109  1
  Li  Li12  1  -0.57602802  0.10882081  -0.11268590  1
  Li  Li13  1  -0.08475859  0.36692179  -0.11278432  1
  Li  Li14  1  -0.41896635  0.86023650  -0.63296864  1
  Li  Li15  1  -0.91644168  0.61373265  -0.63404018  1
