# generated using pymatgen
data_LiGaO2
_symmetry_space_group_name_H-M   'P 1'
_cell_length_a   5.09008874
_cell_length_b   5.48960549
_cell_length_c   6.55259315
_cell_angle_alpha   89.97505925
_cell_angle_beta   90.06581371
_cell_angle_gamma   90.01693543
_symmetry_Int_Tables_number   1
_chemical_formula_structural   LiGaO2
_chemical_formula_sum   'Li4 Ga4 O8'
_cell_volume   183.09620642
_cell_formula_units_Z   4
loop_
 _symmetry_equiv_pos_site_id
 _symmetry_equiv_pos_as_xyz
  1  'x, y, z'
loop_
 _atom_site_type_symbol
 _atom_site_label
 _atom_site_symmetry_multiplicity
 _atom_site_fract_x
 _atom_site_fract_y
 _atom_site_fract_z
 _atom_site_occupancy
  O  O0  1  0.12812534  0.93785116  0.09782856  1
  O  O1  1  0.62825135  0.06066693  0.87600686  1
  O  O2  1  0.10608566  0.91321298  0.62540246  1
  O  O3  1  0.03255596  0.41332249  0.84927203  1
  O  O4  1  0.59591224  0.08757166  0.35064875  1
  O  O5  1  0.53348165  0.58584238  0.12532300  1
  O  O6  1  0.01100932  0.43853350  0.37620389  1
  O  O7  1  0.51125977  0.56066301  0.59898341  1
  Ga  Ga8  1  0.99685234  0.07293492  0.85963578  1
  Ga  Ga9  1  0.49775055  0.92579353  0.11439277  1
  Ga  Ga10  1  0.14254588  0.57334635  0.61505972  1
  Ga  Ga11  1  0.64203778  0.42560906  0.36028090  1
  Li  Li12  1  0.12693522  0.56728949  0.11028499  1
  Li  Li13  1  0.03441517  0.07415862  0.36475580  1
  Li  Li14  1  0.62818516  0.43265209  0.86441247  1
  Li  Li15  1  0.51481601  0.93062641  0.61112880  1
