# generated using pymatgen
data_LiGaO2
_symmetry_space_group_name_H-M   'P 1'
_cell_length_a   5.46528944
_cell_length_b   6.45072541
_cell_length_c   5.09022382
_cell_angle_alpha   89.99981226
_cell_angle_beta   90.00000091
_cell_angle_gamma   89.99993194
_symmetry_Int_Tables_number   1
_chemical_formula_structural   LiGaO2
_chemical_formula_sum   'Li4 Ga4 O8'
_cell_volume   179.45625521
_cell_formula_units_Z   4
loop_
 _symmetry_equiv_pos_site_id
 _symmetry_equiv_pos_as_xyz
  1  'x, y, z'
loop_
 _atom_site_type_symbol
 _atom_site_label
 _atom_site_symmetry_multiplicity
 _atom_site_fract_x
 _atom_site_fract_y
 _atom_site_fract_z
 _atom_site_occupancy
  O  O0  1  -0.93116375  0.10017818  -0.14966885  1
  O  O1  1  -0.06883631  0.87482280  -0.64966888  1
  O  O2  1  -0.90773199  0.62555389  -0.12681286  1
  O  O3  1  -0.40773043  0.84944698  -0.12681394  1
  O  O4  1  -0.09226914  0.34944689  -0.62681380  1
  O  O5  1  -0.59226799  0.12555348  -0.62681244  1
  O  O6  1  -0.43116385  0.37482287  -0.14966873  1
  O  O7  1  -0.56883624  0.60017797  -0.64966878  1
  Ga  Ga8  1  -0.08165599  0.86142443  -0.01798152  1
  Ga  Ga9  1  -0.91834074  0.11357849  -0.51797962  1
  Ga  Ga10  1  -0.58165768  0.61357613  -0.01798126  1
  Ga  Ga11  1  -0.41834562  0.36142556  -0.51798082  1
  Li  Li12  1  -0.58242679  0.11180184  -0.02220219  1
  Li  Li13  1  -0.08242707  0.36319472  -0.02220313  1
  Li  Li14  1  -0.41757291  0.86319424  -0.52220321  1
  Li  Li15  1  -0.91757349  0.61180155  -0.52220238  1
