# generated using pymatgen
data_LiGaO2
_symmetry_space_group_name_H-M   'P 1'
_cell_length_a   5.09011285
_cell_length_b   5.50046403
_cell_length_c   6.56317734
_cell_angle_alpha   90.06150101
_cell_angle_beta   89.93321205
_cell_angle_gamma   90.02412849
_symmetry_Int_Tables_number   1
_chemical_formula_structural   LiGaO2
_chemical_formula_sum   'Li4 Ga4 O8'
_cell_volume   183.75547809
_cell_formula_units_Z   4
loop_
 _symmetry_equiv_pos_site_id
 _symmetry_equiv_pos_as_xyz
  1  'x, y, z'
loop_
 _atom_site_type_symbol
 _atom_site_label
 _atom_site_symmetry_multiplicity
 _atom_site_fract_x
 _atom_site_fract_y
 _atom_site_fract_z
 _atom_site_occupancy
  O  O0  1  0.13179294  0.93796836  0.09859191  1
  O  O1  1  0.63299627  0.06577807  0.87706734  1
  O  O2  1  0.10636869  0.91358903  0.62578072  1
  O  O3  1  0.08891894  0.40568018  0.85222703  1
  O  O4  1  0.60870366  0.08803217  0.34891041  1
  O  O5  1  0.54563458  0.58928818  0.12454571  1
  O  O6  1  0.01502395  0.43762987  0.37654880  1
  O  O7  1  0.51685222  0.56614473  0.59543367  1
  Ga  Ga8  1  0.00112865  0.07688049  0.86080889  1
  Ga  Ga9  1  0.50103142  0.92642166  0.11493048  1
  Ga  Ga10  1  0.14503426  0.57589152  0.61233731  1
  Ga  Ga11  1  0.64575753  0.42745557  0.35932806  1
  Li  Li12  1  0.11398383  0.57462321  0.11145637  1
  Li  Li13  1  0.01537191  0.06770779  0.36447678  1
  Li  Li14  1  0.54387851  0.41427689  0.86699210  1
  Li  Li15  1  0.51774207  0.93270685  0.61018458  1
