# generated using pymatgen
data_LiGaO2
_symmetry_space_group_name_H-M   'P 1'
_cell_length_a   5.50701636
_cell_length_b   6.55128989
_cell_length_c   5.09003493
_cell_angle_alpha   89.93391623
_cell_angle_beta   90.05233270
_cell_angle_gamma   90.11502251
_symmetry_Int_Tables_number   1
_chemical_formula_structural   LiGaO2
_chemical_formula_sum   'Li4 Ga4 O8'
_cell_volume   183.63802048
_cell_formula_units_Z   4
loop_
 _symmetry_equiv_pos_site_id
 _symmetry_equiv_pos_as_xyz
  1  'x, y, z'
loop_
 _atom_site_type_symbol
 _atom_site_label
 _atom_site_symmetry_multiplicity
 _atom_site_fract_x
 _atom_site_fract_y
 _atom_site_fract_z
 _atom_site_occupancy
  O  O0  1  -0.92903485  0.10096469  -0.11216696  1
  O  O1  1  -0.07292881  0.87194149  -0.57768176  1
  O  O2  1  -0.90400073  0.62053115  -0.03029577  1
  O  O3  1  -0.41356947  0.84679474  -0.03052012  1
  O  O4  1  -0.09418602  0.35718646  -0.53486938  1
  O  O5  1  -0.58589081  0.12650775  -0.53271205  1
  O  O6  1  -0.43081630  0.37826200  -0.00370663  1
  O  O7  1  -0.57034868  0.59687846  -0.50475459  1
  Ga  Ga8  1  -0.08049458  0.85777256  -0.05105266  1
  Ga  Ga9  1  -0.92312521  0.11334792  -0.49848054  1
  Ga  Ga10  1  -0.58008543  0.61145363  -0.13885923  1
  Ga  Ga11  1  -0.41994876  0.36166649  -0.63510262  1
  Li  Li12  1  -0.56851436  0.11162109  -0.11714437  1
  Li  Li13  1  -0.08797871  0.37106401  -0.11420572  1
  Li  Li14  1  -0.42419527  0.86376018  -0.62431093  1
  Li  Li15  1  -0.91495660  0.60986755  -0.62435608  1
