# generated using pymatgen
data_LiGaO2
_symmetry_space_group_name_H-M   'P 1'
_cell_length_a   5.50018534
_cell_length_b   6.56315070
_cell_length_c   5.09007306
_cell_angle_alpha   89.93349179
_cell_angle_beta   90.02432249
_cell_angle_gamma   90.05873544
_symmetry_Int_Tables_number   1
_chemical_formula_structural   LiGaO2
_chemical_formula_sum   'Li4 Ga4 O8'
_cell_volume   183.74399593
_cell_formula_units_Z   4
loop_
 _symmetry_equiv_pos_site_id
 _symmetry_equiv_pos_as_xyz
  1  'x, y, z'
loop_
 _atom_site_type_symbol
 _atom_site_label
 _atom_site_symmetry_multiplicity
 _atom_site_fract_x
 _atom_site_fract_y
 _atom_site_fract_z
 _atom_site_occupancy
  O  O0  1  -0.93398468  0.09548112  -0.12455211  1
  O  O1  1  -0.06230000  0.87651385  -0.62634544  1
  O  O2  1  -0.91080825  0.62463369  -0.09628433  1
  O  O3  1  -0.41201110  0.84891411  -0.03257761  1
  O  O4  1  -0.09411343  0.35219590  -0.55365113  1
  O  O5  1  -0.58639858  0.12575806  -0.53486539  1
  O  O6  1  -0.43438429  0.37703443  -0.00837983  1
  O  O7  1  -0.56198286  0.59861024  -0.50957090  1
  Ga  Ga8  1  -0.07255730  0.85932225  -0.99556406  1
  Ga  Ga9  1  -0.92416396  0.11239127  -0.49633058  1
  Ga  Ga10  1  -0.57354727  0.61494364  -0.14034565  1
  Ga  Ga11  1  -0.42320912  0.36078348  -0.64019082  1
  Li  Li12  1  -0.56733452  0.11017454  -0.12354477  1
  Li  Li13  1  -0.08538578  0.36689238  -0.09559158  1
  Li  Li14  1  -0.43228310  0.86447052  -0.62589603  1
  Li  Li15  1  -0.92561035  0.61150071  -0.52652917  1
