# generated using pymatgen
data_LiGaO2
_symmetry_space_group_name_H-M   'P 1'
_cell_length_a   5.50686313
_cell_length_b   6.54925594
_cell_length_c   5.09014703
_cell_angle_alpha   90.05336665
_cell_angle_beta   90.06011059
_cell_angle_gamma   89.85198327
_symmetry_Int_Tables_number   1
_chemical_formula_structural   LiGaO2
_chemical_formula_sum   'Li4 Ga4 O8'
_cell_volume   183.57971727
_cell_formula_units_Z   4
loop_
 _symmetry_equiv_pos_site_id
 _symmetry_equiv_pos_as_xyz
  1  'x, y, z'
loop_
 _atom_site_type_symbol
 _atom_site_label
 _atom_site_symmetry_multiplicity
 _atom_site_fract_x
 _atom_site_fract_y
 _atom_site_fract_z
 _atom_site_occupancy
  O  O0  1  -0.92982966  0.09693670  -0.13624280  1
  O  O1  1  -0.06925481  0.87810329  -0.63753732  1
  O  O2  1  -0.91380487  0.62634525  -0.10853727  1
  O  O3  1  -0.40568488  0.85680056  -0.10627181  1
  O  O4  1  -0.08598462  0.34714337  -0.60929878  1
  O  O5  1  -0.59608463  0.11991119  -0.60922671  1
  O  O6  1  -0.42849173  0.37436208  -0.04097165  1
  O  O7  1  -0.56995043  0.59930961  -0.52540022  1
  Ga  Ga8  1  -0.07988269  0.86158308  -0.00599827  1
  Ga  Ga9  1  -0.92012982  0.11173811  -0.50250865  1
  Ga  Ga10  1  -0.57635514  0.61267382  -0.14398985  1
  Ga  Ga11  1  -0.42108462  0.35975519  -0.61797242  1
  Li  Li12  1  -0.58594744  0.10837806  -0.01794354  1
  Li  Li13  1  -0.07395450  0.36383660  -0.01774790  1
  Li  Li14  1  -0.41198293  0.87128705  -0.52678053  1
  Li  Li15  1  -0.93165183  0.61145623  -0.52379171  1
