# generated using pymatgen
data_LiGaO2
_symmetry_space_group_name_H-M   'P 1'
_cell_length_a   5.49634713
_cell_length_b   6.55985498
_cell_length_c   5.09010487
_cell_angle_alpha   90.06812897
_cell_angle_beta   90.02346923
_cell_angle_gamma   89.96209006
_symmetry_Int_Tables_number   1
_chemical_formula_structural   LiGaO2
_chemical_formula_sum   'Li4 Ga4 O8'
_cell_volume   183.52476769
_cell_formula_units_Z   4
loop_
 _symmetry_equiv_pos_site_id
 _symmetry_equiv_pos_as_xyz
  1  'x, y, z'
loop_
 _atom_site_type_symbol
 _atom_site_label
 _atom_site_symmetry_multiplicity
 _atom_site_fract_x
 _atom_site_fract_y
 _atom_site_fract_z
 _atom_site_occupancy
  O  O0  1  -0.93872575  0.09881289  -0.13079144  1
  O  O1  1  -0.06353673  0.87664167  -0.63158688  1
  O  O2  1  -0.91383387  0.62548848  -0.10698455  1
  O  O3  1  -0.40897874  0.85162607  -0.06802330  1
  O  O4  1  -0.08754478  0.34904629  -0.60864330  1
  O  O5  1  -0.58809871  0.12535482  -0.53876890  1
  O  O6  1  -0.43862065  0.37613683  -0.01400980  1
  O  O7  1  -0.56433501  0.59636152  -0.51504981  1
  Ga  Ga8  1  -0.07563689  0.86050367  -0.00035256  1
  Ga  Ga9  1  -0.92678316  0.11507203  -0.49973390  1
  Ga  Ga10  1  -0.57510107  0.61327154  -0.14410820  1
  Ga  Ga11  1  -0.42739189  0.35935427  -0.64526050  1
  Li  Li12  1  -0.57169662  0.11163961  -0.12276717  1
  Li  Li13  1  -0.06766633  0.36441376  -0.01444680  1
  Li  Li14  1  -0.41948423  0.86575147  -0.57362540  1
  Li  Li15  1  -0.93264015  0.61014525  -0.51606691  1
