# generated using pymatgen
data_LiGaO2
_symmetry_space_group_name_H-M   'P 1'
_cell_length_a   5.48593258
_cell_length_b   6.50356721
_cell_length_c   5.09021278
_cell_angle_alpha   89.91634817
_cell_angle_beta   90.07935854
_cell_angle_gamma   89.97930680
_symmetry_Int_Tables_number   1
_chemical_formula_structural   LiGaO2
_chemical_formula_sum   'Li4 Ga4 O8'
_cell_volume   181.60889994
_cell_formula_units_Z   4
loop_
 _symmetry_equiv_pos_site_id
 _symmetry_equiv_pos_as_xyz
  1  'x, y, z'
loop_
 _atom_site_type_symbol
 _atom_site_label
 _atom_site_symmetry_multiplicity
 _atom_site_fract_x
 _atom_site_fract_y
 _atom_site_fract_z
 _atom_site_occupancy
  O  O0  1  -0.92891315  0.09828605  -0.13839922  1
  O  O1  1  -0.06784916  0.87632381  -0.63891866  1
  O  O2  1  -0.91268211  0.62462037  -0.11435850  1
  O  O3  1  -0.40641304  0.85436198  -0.11395961  1
  O  O4  1  -0.09286491  0.34515201  -0.61613605  1
  O  O5  1  -0.59264061  0.12565163  -0.61568675  1
  O  O6  1  -0.42843967  0.37255426  -0.13718253  1
  O  O7  1  -0.57050906  0.60194954  -0.62473387  1
  Ga  Ga8  1  -0.07992225  0.86251497  -0.00638964  1
  Ga  Ga9  1  -0.91710377  0.11264816  -0.50678857  1
  Ga  Ga10  1  -0.58116055  0.61580138  -0.03767052  1
  Ga  Ga11  1  -0.41906143  0.36097123  -0.51186357  1
  Li  Li12  1  -0.58317775  0.11348579  -0.00860590  1
  Li  Li13  1  -0.08116902  0.36050574  -0.00944508  1
  Li  Li14  1  -0.41631110  0.86552966  -0.52483488  1
  Li  Li15  1  -0.92185701  0.60926362  -0.52524608  1
