# generated using pymatgen
data_LiGaO2
_symmetry_space_group_name_H-M   'P 1'
_cell_length_a   5.50699919
_cell_length_b   6.55127777
_cell_length_c   5.09015447
_cell_angle_alpha   90.06576563
_cell_angle_beta   90.05428153
_cell_angle_gamma   89.88695349
_symmetry_Int_Tables_number   1
_chemical_formula_structural   LiGaO2
_chemical_formula_sum   'Li4 Ga4 O8'
_cell_volume   183.64142856
_cell_formula_units_Z   4
loop_
 _symmetry_equiv_pos_site_id
 _symmetry_equiv_pos_as_xyz
  1  'x, y, z'
loop_
 _atom_site_type_symbol
 _atom_site_label
 _atom_site_symmetry_multiplicity
 _atom_site_fract_x
 _atom_site_fract_y
 _atom_site_fract_z
 _atom_site_occupancy
  O  O0  1  -0.92964520  0.09688210  -0.13652061  1
  O  O1  1  -0.06917203  0.87826973  -0.63759640  1
  O  O2  1  -0.91413801  0.62649777  -0.10855218  1
  O  O3  1  -0.40583824  0.85721461  -0.10638946  1
  O  O4  1  -0.08648895  0.34676636  -0.61082503  1
  O  O5  1  -0.59600473  0.12058737  -0.61105369  1
  O  O6  1  -0.42701798  0.37182812  -0.06489238  1
  O  O7  1  -0.57102207  0.60104999  -0.52931434  1
  Ga  Ga8  1  -0.08006160  0.86166961  -0.00621051  1
  Ga  Ga9  1  -0.91990656  0.11144259  -0.50239389  1
  Ga  Ga10  1  -0.57692856  0.61341085  -0.14278744  1
  Ga  Ga11  1  -0.41942941  0.35766910  -0.58856578  1
  Li  Li12  1  -0.58501997  0.10993333  -0.01671429  1
  Li  Li13  1  -0.07589722  0.36374668  -0.01678398  1
  Li  Li14  1  -0.41204773  0.87104091  -0.52729901  1
  Li  Li15  1  -0.93145631  0.61161105  -0.52432042  1
