# generated using pymatgen
data_LiGaO2
_symmetry_space_group_name_H-M   'P 1'
_cell_length_a   5.09002044
_cell_length_b   5.50421356
_cell_length_c   6.53986785
_cell_angle_alpha   90.05139656
_cell_angle_beta   89.95276848
_cell_angle_gamma   90.12186112
_symmetry_Int_Tables_number   1
_chemical_formula_structural   LiGaO2
_chemical_formula_sum   'Li4 Ga4 O8'
_cell_volume   183.22404697
_cell_formula_units_Z   4
loop_
 _symmetry_equiv_pos_site_id
 _symmetry_equiv_pos_as_xyz
  1  'x, y, z'
loop_
 _atom_site_type_symbol
 _atom_site_label
 _atom_site_symmetry_multiplicity
 _atom_site_fract_x
 _atom_site_fract_y
 _atom_site_fract_z
 _atom_site_occupancy
  O  O0  1  0.10471851  0.92837362  0.10305613  1
  O  O1  1  0.51686544  0.07538026  0.86795935  1
  O  O2  1  0.02613322  0.90607839  0.62546878  1
  O  O3  1  0.02618844  0.40817211  0.84346558  1
  O  O4  1  0.54107368  0.09335571  0.35939692  1
  O  O5  1  0.53654820  0.58351253  0.12410921  1
  O  O6  1  0.00362841  0.43304082  0.37741036  1
  O  O7  1  0.50363864  0.57160291  0.59746200  1
  Ga  Ga8  1  0.13418094  0.08618445  0.85148972  1
  Ga  Ga9  1  0.49381338  0.91777766  0.12099583  1
  Ga  Ga10  1  0.13621089  0.58319100  0.61203278  1
  Ga  Ga11  1  0.63537688  0.42095042  0.36235678  1
  Li  Li12  1  0.10537468  0.57062735  0.10830896  1
  Li  Li13  1  0.09907246  0.08633188  0.37001672  1
  Li  Li14  1  0.63301806  0.41919804  0.86129288  1
  Li  Li15  1  0.63437757  0.91629744  0.61479816  1
