# generated using pymatgen
data_LiGaO2
_symmetry_space_group_name_H-M   'P 1'
_cell_length_a   5.50283229
_cell_length_b   6.56025554
_cell_length_c   5.09005673
_cell_angle_alpha   89.96292858
_cell_angle_beta   90.00741254
_cell_angle_gamma   90.13157622
_symmetry_Int_Tables_number   1
_chemical_formula_structural   LiGaO2
_chemical_formula_sum   'Li4 Ga4 O8'
_cell_volume   183.75045209
_cell_formula_units_Z   4
loop_
 _symmetry_equiv_pos_site_id
 _symmetry_equiv_pos_as_xyz
  1  'x, y, z'
loop_
 _atom_site_type_symbol
 _atom_site_label
 _atom_site_symmetry_multiplicity
 _atom_site_fract_x
 _atom_site_fract_y
 _atom_site_fract_z
 _atom_site_occupancy
  O  O0  1  -0.93244526  0.09540340  -0.12261458  1
  O  O1  1  -0.06613315  0.87872201  -0.62322150  1
  O  O2  1  -0.90627281  0.62063205  -0.05462728  1
  O  O3  1  -0.41216259  0.84870665  -0.03358902  1
  O  O4  1  -0.09602012  0.35399616  -0.54030479  1
  O  O5  1  -0.58720416  0.12630702  -0.53467539  1
  O  O6  1  -0.43195334  0.37753684  -0.00637158  1
  O  O7  1  -0.56634089  0.59778564  -0.50666223  1
  Ga  Ga8  1  -0.07422182  0.86104028  -0.99472223  1
  Ga  Ga9  1  -0.92439373  0.11269770  -0.49453638  1
  Ga  Ga10  1  -0.57674697  0.61414201  -0.13809802  1
  Ga  Ga11  1  -0.42226046  0.36120164  -0.63861347  1
  Li  Li12  1  -0.56693612  0.11046418  -0.12186386  1
  Li  Li13  1  -0.08751245  0.36988211  -0.11081584  1
  Li  Li14  1  -0.43272937  0.86461863  -0.62314625  1
  Li  Li15  1  -0.91674134  0.60648385  -0.58635699  1
