# generated using pymatgen
data_LiGaO2
_symmetry_space_group_name_H-M   'P 1'
_cell_length_a   5.49046248
_cell_length_b   6.55328835
_cell_length_c   5.09009674
_cell_angle_alpha   90.06120756
_cell_angle_beta   90.01822008
_cell_angle_gamma   89.97545919
_symmetry_Int_Tables_number   1
_chemical_formula_structural   LiGaO2
_chemical_formula_sum   'Li4 Ga4 O8'
_cell_volume   183.14452177
_cell_formula_units_Z   4
loop_
 _symmetry_equiv_pos_site_id
 _symmetry_equiv_pos_as_xyz
  1  'x, y, z'
loop_
 _atom_site_type_symbol
 _atom_site_label
 _atom_site_symmetry_multiplicity
 _atom_site_fract_x
 _atom_site_fract_y
 _atom_site_fract_z
 _atom_site_occupancy
  O  O0  1  -0.93926782  0.09894548  -0.13004912  1
  O  O1  1  -0.06160337  0.87624244  -0.63032456  1
  O  O2  1  -0.91410537  0.62533681  -0.10769384  1
  O  O3  1  -0.41218436  0.85070448  -0.04674135  1
  O  O4  1  -0.08679153  0.34928074  -0.60851792  1
  O  O5  1  -0.58689972  0.12541285  -0.53540585  1
  O  O6  1  -0.43927594  0.37601903  -0.01307126  1
  O  O7  1  -0.56231483  0.59771840  -0.51325833  1
  Ga  Ga8  1  -0.07445672  0.86027652  -0.99930062  1
  Ga  Ga9  1  -0.92666166  0.11506243  -0.49879743  1
  Ga  Ga10  1  -0.57426536  0.61432585  -0.14354461  1
  Ga  Ga11  1  -0.42708092  0.35962083  -0.64445367  1
  Li  Li12  1  -0.56954515  0.11115743  -0.12618481  1
  Li  Li13  1  -0.06756475  0.36441055  -0.01362744  1
  Li  Li14  1  -0.42539094  0.86481966  -0.60477003  1
  Li  Li15  1  -0.93266614  0.61028668  -0.51447858  1
