# generated using pymatgen
data_LiGaO2
_symmetry_space_group_name_H-M   'P 1'
_cell_length_a   5.49743529
_cell_length_b   6.52195135
_cell_length_c   5.09018684
_cell_angle_alpha   89.93713830
_cell_angle_beta   90.06024256
_cell_angle_gamma   90.01948883
_symmetry_Int_Tables_number   1
_chemical_formula_structural   LiGaO2
_chemical_formula_sum   'Li4 Ga4 O8'
_cell_volume   182.50336588
_cell_formula_units_Z   4
loop_
 _symmetry_equiv_pos_site_id
 _symmetry_equiv_pos_as_xyz
  1  'x, y, z'
loop_
 _atom_site_type_symbol
 _atom_site_label
 _atom_site_symmetry_multiplicity
 _atom_site_fract_x
 _atom_site_fract_y
 _atom_site_fract_z
 _atom_site_occupancy
  O  O0  1  -0.92832223  0.09769807  -0.13825866  1
  O  O1  1  -0.06777666  0.87705878  -0.63792043  1
  O  O2  1  -0.91680650  0.62403208  -0.10889196  1
  O  O3  1  -0.40541561  0.85820590  -0.10788763  1
  O  O4  1  -0.09210748  0.34424521  -0.61602215  1
  O  O5  1  -0.59302841  0.12508823  -0.61566253  1
  O  O6  1  -0.42514830  0.36792201  -0.12860979  1
  O  O7  1  -0.57243940  0.60399305  -0.55658983  1
  Ga  Ga8  1  -0.07918103  0.86299213  -0.00475163  1
  Ga  Ga9  1  -0.91667219  0.11257021  -0.50641127  1
  Ga  Ga10  1  -0.58217115  0.61873883  -0.12213272  1
  Ga  Ga11  1  -0.41628241  0.35596965  -0.51161067  1
  Li  Li12  1  -0.58350799  0.11375694  -0.00721655  1
  Li  Li13  1  -0.08102531  0.36039454  -0.00834505  1
  Li  Li14  1  -0.41441903  0.86813894  -0.53005369  1
  Li  Li15  1  -0.92577087  0.60881562  -0.52985485  1
