# generated using pymatgen
data_LiGaO2
_symmetry_space_group_name_H-M   'P 1'
_cell_length_a   5.09004339
_cell_length_b   5.50681037
_cell_length_c   6.54916750
_cell_angle_alpha   89.84959798
_cell_angle_beta   90.05337416
_cell_angle_gamma   90.05816607
_symmetry_Int_Tables_number   1
_chemical_formula_structural   LiGaO2
_chemical_formula_sum   'Li4 Ga4 O8'
_cell_volume   183.57172838
_cell_formula_units_Z   4
loop_
 _symmetry_equiv_pos_site_id
 _symmetry_equiv_pos_as_xyz
  1  'x, y, z'
loop_
 _atom_site_type_symbol
 _atom_site_label
 _atom_site_symmetry_multiplicity
 _atom_site_fract_x
 _atom_site_fract_y
 _atom_site_fract_z
 _atom_site_occupancy
  O  O0  1  0.11611968  0.93012969  0.09918804  1
  O  O1  1  0.60155215  0.07142564  0.87451649  1
  O  O2  1  0.03213185  0.90393705  0.61987155  1
  O  O3  1  0.03204248  0.41403719  0.84717964  1
  O  O4  1  0.53500990  0.09435151  0.35675830  1
  O  O5  1  0.53274665  0.58622764  0.12634077  1
  O  O6  1  0.00377680  0.43073463  0.37808854  1
  O  O7  1  0.50503182  0.57015871  0.59693692  1
  Ga  Ga8  1  0.02172715  0.07882178  0.85987109  1
  Ga  Ga9  1  0.49721243  0.92368539  0.11263712  1
  Ga  Ga10  1  0.13871389  0.57986658  0.61177384  1
  Ga  Ga11  1  0.63534208  0.42014414  0.36158312  1
  Li  Li12  1  0.11766040  0.56831547  0.11145165  1
  Li  Li13  1  0.11472441  0.08803847  0.37131883  1
  Li  Li14  1  0.62332849  0.42619815  0.86384482  1
  Li  Li15  1  0.62309923  0.91400255  0.60825946  1
