# generated using pymatgen
data_LiGaO2
_symmetry_space_group_name_H-M   'P 1'
_cell_length_a   5.50372260
_cell_length_b   6.54637851
_cell_length_c   5.09013793
_cell_angle_alpha   90.01882998
_cell_angle_beta   90.04621701
_cell_angle_gamma   89.79008398
_symmetry_Int_Tables_number   1
_chemical_formula_structural   LiGaO2
_chemical_formula_sum   'Li4 Ga4 O8'
_cell_volume   183.39357643
_cell_formula_units_Z   4
loop_
 _symmetry_equiv_pos_site_id
 _symmetry_equiv_pos_as_xyz
  1  'x, y, z'
loop_
 _atom_site_type_symbol
 _atom_site_label
 _atom_site_symmetry_multiplicity
 _atom_site_fract_x
 _atom_site_fract_y
 _atom_site_fract_z
 _atom_site_occupancy
  O  O0  1  -0.93059399  0.09697583  -0.13617400  1
  O  O1  1  -0.06914002  0.87784489  -0.63659756  1
  O  O2  1  -0.91296704  0.62618986  -0.10770286  1
  O  O3  1  -0.40462424  0.85578869  -0.10548246  1
  O  O4  1  -0.08693381  0.34832558  -0.60748011  1
  O  O5  1  -0.59577754  0.11950975  -0.60615603  1
  O  O6  1  -0.43167661  0.37900191  -0.02008701  1
  O  O7  1  -0.56809640  0.59605621  -0.51996305  1
  Ga  Ga8  1  -0.07903248  0.86141732  -0.00444226  1
  Ga  Ga9  1  -0.92081950  0.11319246  -0.50371989  1
  Ga  Ga10  1  -0.57580786  0.61283073  -0.14729167  1
  Ga  Ga11  1  -0.42393007  0.36210136  -0.64613011  1
  Li  Li12  1  -0.58831613  0.10344286  -0.02217471  1
  Li  Li13  1  -0.06801657  0.36413017  -0.02030019  1
  Li  Li14  1  -0.41172598  0.87211394  -0.52493959  1
  Li  Li15  1  -0.93261636  0.61069858  -0.52157794  1
