# generated using pymatgen
data_Gd2Al7N9
_symmetry_space_group_name_H-M   'P 1'
_cell_length_a   9.89603108
_cell_length_b   9.82033941
_cell_length_c   10.79372262
_cell_angle_alpha   90.19502623
_cell_angle_beta   89.77671287
_cell_angle_gamma   60.32312923
_symmetry_Int_Tables_number   1
_chemical_formula_structural   Gd2Al7N9
_chemical_formula_sum   'Gd8 Al28 N36'
_cell_volume   911.34508292
_cell_formula_units_Z   4
loop_
 _symmetry_equiv_pos_site_id
 _symmetry_equiv_pos_as_xyz
  1  'x, y, z'
loop_
 _atom_site_type_symbol
 _atom_site_label
 _atom_site_symmetry_multiplicity
 _atom_site_fract_x
 _atom_site_fract_y
 _atom_site_fract_z
 _atom_site_occupancy
  Al  Al0  1  0.12356217  0.08860293  0.38705003  1
  Al  Al1  1  0.21890108  0.20594723  0.14549109  1
  Al  Al2  1  0.53932076  0.21879917  0.13768221  1
  Al  Al3  1  0.11081166  0.10155527  0.90277817  1
  Al  Al4  1  0.22561799  0.19507196  0.65617564  1
  Al  Al5  1  0.79401749  0.08853353  0.29642793  1
  Al  Al6  1  0.89842088  0.20387708  0.08363546  1
  Al  Al7  1  0.41474592  0.11651054  0.89761551  1
  Al  Al8  1  0.52369734  0.21969578  0.66182614  1
  Al  Al9  1  0.11824604  0.43275385  0.31680676  1
  Al  Al10  1  0.21093011  0.54131915  0.07052426  1
  Al  Al11  1  0.46590787  0.42124938  0.40321903  1
  Al  Al12  1  0.11448091  0.43529984  0.82727208  1
  Al  Al13  1  0.22884057  0.53468111  0.57479643  1
  Al  Al14  1  0.80565340  0.41682309  0.31072363  1
  Al  Al15  1  0.91516217  0.53096416  0.07577395  1
  Al  Al16  1  0.41623496  0.44102344  0.89225334  1
  Al  Al17  1  0.52486779  0.55304925  0.65317352  1
  Al  Al18  1  0.12525250  0.75623336  0.32007251  1
  Al  Al19  1  0.20726764  0.87477396  0.06826355  1
  Al  Al20  1  0.79027673  0.75522639  0.83937391  1
  Al  Al21  1  0.47351942  0.74364050  0.41002260  1
  Al  Al22  1  0.11827209  0.75556047  0.82463731  1
  Al  Al23  1  0.23048051  0.86662935  0.57356519  1
  Al  Al24  1  0.80252003  0.74494157  0.30679681  1
  Al  Al25  1  0.91174897  0.85414863  0.07509351  1
  Al  Al26  1  0.41705095  0.77299524  0.88882418  1
  Al  Al27  1  0.54109767  0.87905257  0.67162972  1
  Gd  Gd28  1  0.75859455  0.09669222  0.86386557  1
  Gd  Gd29  1  0.85845837  0.21874489  0.56840213  1
  Gd  Gd30  1  0.45671372  0.08850438  0.40039612  1
  Gd  Gd31  1  0.75316515  0.45025153  0.86157418  1
  Gd  Gd32  1  0.88628480  0.53775821  0.57780891  1
  Gd  Gd33  1  0.53663511  0.54307078  0.15287316  1
  Gd  Gd34  1  0.88751035  0.87163350  0.57433058  1
  Gd  Gd35  1  0.55950292  0.87227319  0.11363587  1
  N  N36  1  0.21239957  0.20654121  0.32393401  1
  N  N37  1  0.12002553  0.09460021  0.08801786  1
  N  N38  1  0.89837139  0.20529962  0.90537580  1
  N  N39  1  0.74223525  0.10355242  0.65053864  1
  N  N40  1  0.56899373  0.22402274  0.31433601  1
  N  N41  1  0.42289329  0.12722578  0.07751592  1
  N  N42  1  0.20920695  0.20485168  0.83651217  1
  N  N43  1  0.12859252  0.09258406  0.57367866  1
  N  N44  1  0.90091478  0.19628226  0.35071013  1
  N  N45  1  0.78305324  0.08677284  0.11504514  1
  N  N46  1  0.49461183  0.23871171  0.83339068  1
  N  N47  1  0.44005556  0.08970172  0.61169680  1
  N  N48  1  0.22555245  0.53832861  0.38734155  1
  N  N49  1  0.11922703  0.42989741  0.13736635  1
  N  N50  1  0.90860592  0.54688752  0.89604139  1
  N  N51  1  0.74399979  0.44698195  0.65412365  1
  N  N52  1  0.57756134  0.52766119  0.36267776  1
  N  N53  1  0.43249964  0.41682563  0.06871429  1
  N  N54  1  0.20081225  0.55210375  0.89317805  1
  N  N55  1  0.13792285  0.42164216  0.64785343  1
  N  N56  1  0.90394606  0.53256814  0.36450669  1
  N  N57  1  0.80368600  0.42192954  0.12826485  1
  N  N58  1  0.48849721  0.57047947  0.82724207  1
  N  N59  1  0.45159051  0.41883012  0.58035145  1
  N  N60  1  0.23654102  0.85684360  0.38753445  1
  N  N61  1  0.12309981  0.75561531  0.13858507  1
  N  N62  1  0.90928550  0.84347208  0.89526749  1
  N  N63  1  0.75909478  0.77004540  0.66581215  1
  N  N64  1  0.58088767  0.83732623  0.33256662  1
  N  N65  1  0.42019214  0.76709166  0.06348729  1
  N  N66  1  0.19770688  0.88407856  0.88331084  1
  N  N67  1  0.14336047  0.74499272  0.64391204  1
  N  N68  1  0.89509230  0.87318319  0.35729835  1
  N  N69  1  0.82156069  0.73874576  0.13145064  1
  N  N70  1  0.54045421  0.88085470  0.85696641  1
  N  N71  1  0.45158177  0.76355312  0.59175118  1
