# generated using pymatgen
data_Gd2Al7N9
_symmetry_space_group_name_H-M   'P 1'
_cell_length_a   9.89873182
_cell_length_b   9.83190082
_cell_length_c   10.72116655
_cell_angle_alpha   90.30988262
_cell_angle_beta   90.02663817
_cell_angle_gamma   60.29100158
_symmetry_Int_Tables_number   1
_chemical_formula_structural   Gd2Al7N9
_chemical_formula_sum   'Gd8 Al28 N36'
_cell_volume   906.24994995
_cell_formula_units_Z   4
loop_
 _symmetry_equiv_pos_site_id
 _symmetry_equiv_pos_as_xyz
  1  'x, y, z'
loop_
 _atom_site_type_symbol
 _atom_site_label
 _atom_site_symmetry_multiplicity
 _atom_site_fract_x
 _atom_site_fract_y
 _atom_site_fract_z
 _atom_site_occupancy
  Al  Al0  1  0.12655780  0.08477056  0.38750966  1
  Al  Al1  1  0.21913792  0.20709289  0.14471460  1
  Al  Al2  1  0.54020589  0.21951927  0.13840587  1
  Al  Al3  1  0.11877707  0.09064298  0.90299174  1
  Al  Al4  1  0.22628368  0.19410807  0.65558833  1
  Al  Al5  1  0.79381408  0.08901172  0.29704708  1
  Al  Al6  1  0.90128005  0.20128787  0.08268607  1
  Al  Al7  1  0.41511013  0.11757624  0.89715140  1
  Al  Al8  1  0.52396200  0.21975423  0.66126230  1
  Al  Al9  1  0.11683551  0.43265900  0.31666520  1
  Al  Al10  1  0.21103274  0.54319458  0.07138111  1
  Al  Al11  1  0.46558955  0.42192560  0.40158927  1
  Al  Al12  1  0.11579024  0.43366285  0.82730757  1
  Al  Al13  1  0.22827400  0.53303256  0.57370065  1
  Al  Al14  1  0.80369190  0.41741524  0.31038306  1
  Al  Al15  1  0.91570574  0.53104329  0.07504382  1
  Al  Al16  1  0.41730234  0.44110116  0.89276781  1
  Al  Al17  1  0.52471056  0.55272311  0.65193014  1
  Al  Al18  1  0.11977718  0.75193945  0.32019818  1
  Al  Al19  1  0.21941913  0.88050854  0.14763628  1
  Al  Al20  1  0.79025871  0.75525335  0.83966115  1
  Al  Al21  1  0.46142293  0.75067696  0.40545158  1
  Al  Al22  1  0.11687710  0.75311347  0.82312287  1
  Al  Al23  1  0.22798888  0.87628743  0.64424065  1
  Al  Al24  1  0.79907555  0.74571066  0.30562672  1
  Al  Al25  1  0.91413052  0.85368269  0.07504853  1
  Al  Al26  1  0.41064962  0.77598049  0.88995583  1
  Al  Al27  1  0.54007848  0.87821550  0.67108152  1
  Gd  Gd28  1  0.75900490  0.09630087  0.86518121  1
  Gd  Gd29  1  0.86194471  0.21570398  0.56950765  1
  Gd  Gd30  1  0.45698273  0.08800964  0.39881372  1
  Gd  Gd31  1  0.75765320  0.44548854  0.86030338  1
  Gd  Gd32  1  0.88564922  0.53802048  0.57732307  1
  Gd  Gd33  1  0.53758182  0.54665591  0.14759607  1
  Gd  Gd34  1  0.88521427  0.87168394  0.57450684  1
  Gd  Gd35  1  0.55958677  0.87249197  0.10726902  1
  N  N36  1  0.21082983  0.20803167  0.32470387  1
  N  N37  1  0.12346408  0.08923422  0.08801132  1
  N  N38  1  0.90477933  0.19905014  0.90374598  1
  N  N39  1  0.74223715  0.10421238  0.65053610  1
  N  N40  1  0.56995596  0.22329705  0.31547351  1
  N  N41  1  0.42373872  0.12793233  0.07864150  1
  N  N42  1  0.20934869  0.20471393  0.83804191  1
  N  N43  1  0.13359398  0.08362618  0.57264263  1
  N  N44  1  0.90096149  0.19669704  0.35137276  1
  N  N45  1  0.78377527  0.08675600  0.11462843  1
  N  N46  1  0.49504902  0.23936876  0.83377463  1
  N  N47  1  0.44052018  0.08881443  0.61176411  1
  N  N48  1  0.22440449  0.53828785  0.38716568  1
  N  N49  1  0.11977739  0.42991669  0.13622720  1
  N  N50  1  0.90928925  0.54652044  0.89437286  1
  N  N51  1  0.74348049  0.44650473  0.65144548  1
  N  N52  1  0.57267896  0.53138700  0.35908033  1
  N  N53  1  0.43270199  0.41782294  0.07062017  1
  N  N54  1  0.20206728  0.55191567  0.89290839  1
  N  N55  1  0.13823534  0.41884777  0.64651667  1
  N  N56  1  0.90227783  0.53345779  0.36317220  1
  N  N57  1  0.80527567  0.42044107  0.12597923  1
  N  N58  1  0.49169419  0.56967303  0.83005465  1
  N  N59  1  0.45097026  0.41872157  0.58000003  1
  N  N60  1  0.23992119  0.86494107  0.33263552  1
  N  N61  1  0.12082243  0.75384308  0.13955569  1
  N  N62  1  0.91167757  0.84319470  0.89435258  1
  N  N63  1  0.75685401  0.76978226  0.66530436  1
  N  N64  1  0.57839511  0.83775245  0.33000849  1
  N  N65  1  0.40555232  0.77703940  0.06257346  1
  N  N66  1  0.20822905  0.89130989  0.82589371  1
  N  N67  1  0.13852053  0.73983392  0.64196778  1
  N  N68  1  0.89322909  0.87332711  0.35758414  1
  N  N69  1  0.82098804  0.73937604  0.12940164  1
  N  N70  1  0.54239496  0.88021012  0.85946516  1
  N  N71  1  0.44284286  0.76588076  0.59012394  1
