# generated using pymatgen
data_Gd2Al7N9
_symmetry_space_group_name_H-M   'P 1'
_cell_length_a   10.01013025
_cell_length_b   9.86624442
_cell_length_c   10.44823357
_cell_angle_alpha   90.19053041
_cell_angle_beta   90.56893301
_cell_angle_gamma   60.67493878
_symmetry_Int_Tables_number   1
_chemical_formula_structural   Gd2Al7N9
_chemical_formula_sum   'Gd8 Al28 N36'
_cell_volume   899.61505174
_cell_formula_units_Z   4
loop_
 _symmetry_equiv_pos_site_id
 _symmetry_equiv_pos_as_xyz
  1  'x, y, z'
loop_
 _atom_site_type_symbol
 _atom_site_label
 _atom_site_symmetry_multiplicity
 _atom_site_fract_x
 _atom_site_fract_y
 _atom_site_fract_z
 _atom_site_occupancy
  Al  Al0  1  0.12639057  0.08657784  0.39105576  1
  Al  Al1  1  0.21328724  0.21439225  0.14391731  1
  Al  Al2  1  0.53546561  0.22204432  0.14164921  1
  Al  Al3  1  0.11406425  0.09400827  0.89486650  1
  Al  Al4  1  0.22884371  0.19908957  0.65144449  1
  Al  Al5  1  0.78593715  0.08799935  0.30851637  1
  Al  Al6  1  0.90952989  0.19807121  0.14337356  1
  Al  Al7  1  0.41849554  0.11672458  0.89869865  1
  Al  Al8  1  0.52696845  0.22055078  0.66483169  1
  Al  Al9  1  0.12553467  0.41926504  0.39572690  1
  Al  Al10  1  0.22012295  0.53012944  0.14975232  1
  Al  Al11  1  0.45485784  0.42719053  0.40489348  1
  Al  Al12  1  0.11821249  0.42551443  0.89670139  1
  Al  Al13  1  0.23187172  0.52657266  0.64403704  1
  Al  Al14  1  0.79415970  0.42768740  0.32554874  1
  Al  Al15  1  0.90901714  0.53394863  0.08032570  1
  Al  Al16  1  0.40791959  0.44332333  0.89764918  1
  Al  Al17  1  0.52250440  0.55480335  0.65835672  1
  Al  Al18  1  0.11906832  0.75868029  0.32736233  1
  Al  Al19  1  0.21781798  0.88272120  0.14790528  1
  Al  Al20  1  0.78672342  0.75820371  0.84484874  1
  Al  Al21  1  0.46171064  0.75147921  0.40900933  1
  Al  Al22  1  0.11489203  0.75823857  0.82238739  1
  Al  Al23  1  0.23081297  0.87651535  0.64285449  1
  Al  Al24  1  0.80117295  0.74241407  0.31522476  1
  Al  Al25  1  0.91871493  0.84888478  0.08068007  1
  Al  Al26  1  0.41226544  0.77588734  0.89508254  1
  Al  Al27  1  0.53833567  0.88058862  0.67445295  1
  Gd  Gd28  1  0.76593928  0.09564034  0.87432830  1
  Gd  Gd29  1  0.87874864  0.20994392  0.60757351  1
  Gd  Gd30  1  0.45259220  0.08804141  0.40011048  1
  Gd  Gd31  1  0.75818739  0.43522614  0.87258303  1
  Gd  Gd32  1  0.88275209  0.54034303  0.60132936  1
  Gd  Gd33  1  0.53776522  0.54615342  0.14401069  1
  Gd  Gd34  1  0.88083373  0.87543410  0.57899785  1
  Gd  Gd35  1  0.56223984  0.87322818  0.11088493  1
  N  N36  1  0.20376377  0.21506282  0.32486083  1
  N  N37  1  0.11329856  0.09478878  0.08491199  1
  N  N38  1  0.91694733  0.19077548  0.83318027  1
  N  N39  1  0.73658393  0.10794410  0.64745710  1
  N  N40  1  0.56898734  0.22257426  0.32304574  1
  N  N41  1  0.42151149  0.12684853  0.08738407  1
  N  N42  1  0.21160988  0.21046861  0.83883598  1
  N  N43  1  0.14440810  0.08059124  0.57288586  1
  N  N44  1  0.90318783  0.19588546  0.33904306  1
  N  N45  1  0.78442856  0.09004786  0.11798700  1
  N  N46  1  0.50470642  0.23643881  0.84436649  1
  N  N47  1  0.44212954  0.09009054  0.61776897  1
  N  N48  1  0.23441377  0.52884613  0.33765270  1
  N  N49  1  0.12188409  0.42206181  0.08375326  1
  N  N50  1  0.90001777  0.54800566  0.89062931  1
  N  N51  1  0.73324865  0.45228410  0.65449439  1
  N  N52  1  0.56713034  0.53387557  0.36071462  1
  N  N53  1  0.41794115  0.42417889  0.07894611  1
  N  N54  1  0.20932328  0.53703108  0.83021549  1
  N  N55  1  0.14905067  0.40284405  0.57979321  1
  N  N56  1  0.90203567  0.53329391  0.37752538  1
  N  N57  1  0.80490716  0.42055654  0.13001707  1
  N  N58  1  0.49385634  0.56733010  0.84427621  1
  N  N59  1  0.43948247  0.42783419  0.58823485  1
  N  N60  1  0.23879440  0.86936703  0.33667578  1
  N  N61  1  0.12051622  0.75708426  0.14058548  1
  N  N62  1  0.91596286  0.83964745  0.89629309  1
  N  N63  1  0.75019813  0.77747707  0.66821861  1
  N  N64  1  0.58246414  0.83638533  0.33793117  1
  N  N65  1  0.40520908  0.78270314  0.07220183  1
  N  N66  1  0.21366168  0.88754106  0.82988185  1
  N  N67  1  0.13372271  0.75008400  0.63406073  1
  N  N68  1  0.89491884  0.87203981  0.35997678  1
  N  N69  1  0.82317986  0.73726541  0.13512067  1
  N  N70  1  0.54232953  0.88161305  0.86622398  1
  N  N71  1  0.44271143  0.76661768  0.59587119  1
