# generated using pymatgen
data_Gd2Al7N9
_symmetry_space_group_name_H-M   'P 1'
_cell_length_a   9.99204404
_cell_length_b   9.84576016
_cell_length_c   10.34252614
_cell_angle_alpha   90.00597259
_cell_angle_beta   89.96689474
_cell_angle_gamma   60.23448095
_symmetry_Int_Tables_number   1
_chemical_formula_structural   Gd2Al7N9
_chemical_formula_sum   'Gd8 Al28 N36'
_cell_volume   883.24672778
_cell_formula_units_Z   4
loop_
 _symmetry_equiv_pos_site_id
 _symmetry_equiv_pos_as_xyz
  1  'x, y, z'
loop_
 _atom_site_type_symbol
 _atom_site_label
 _atom_site_symmetry_multiplicity
 _atom_site_fract_x
 _atom_site_fract_y
 _atom_site_fract_z
 _atom_site_occupancy
  Al  Al0  1  0.10736407  0.09524112  0.30045629  1
  Al  Al1  1  0.21768836  0.20952161  0.05616086  1
  Al  Al2  1  0.52582135  0.21747010  0.05915335  1
  Al  Al3  1  0.12674596  0.08611683  0.81744980  1
  Al  Al4  1  0.22444284  0.20550091  0.57111088  1
  Al  Al5  1  0.77163166  0.09937023  0.28600025  1
  Al  Al6  1  0.90356398  0.20228008  0.06935248  1
  Al  Al7  1  0.42719629  0.11339864  0.80548154  1
  Al  Al8  1  0.55568104  0.21601401  0.56009422  1
  Al  Al9  1  0.10702695  0.42839572  0.30168227  1
  Al  Al10  1  0.21627080  0.53643422  0.06154722  1
  Al  Al11  1  0.43735429  0.42779811  0.31743196  1
  Al  Al12  1  0.12546599  0.42679439  0.81636836  1
  Al  Al13  1  0.23427027  0.53456473  0.56286196  1
  Al  Al14  1  0.78121794  0.43048282  0.29081396  1
  Al  Al15  1  0.90826892  0.53342503  0.05876583  1
  Al  Al16  1  0.42569818  0.43868643  0.80301660  1
  Al  Al17  1  0.54863078  0.54253594  0.54944251  1
  Al  Al18  1  0.11298653  0.76157813  0.30221855  1
  Al  Al19  1  0.21225805  0.87655797  0.05975411  1
  Al  Al20  1  0.79683974  0.75327581  0.81616468  1
  Al  Al21  1  0.43945400  0.76103205  0.31341637  1
  Al  Al22  1  0.12503230  0.75217402  0.81574402  1
  Al  Al23  1  0.23445412  0.86746177  0.56286130  1
  Al  Al24  1  0.78459429  0.75429844  0.28784674  1
  Al  Al25  1  0.90311947  0.85930162  0.06171780  1
  Al  Al26  1  0.42680369  0.76134100  0.80053424  1
  Al  Al27  1  0.55150022  0.87456208  0.62657161  1
  Gd  Gd28  1  0.77031100  0.09645936  0.83887483  1
  Gd  Gd29  1  0.90170048  0.19739189  0.54167382  1
  Gd  Gd30  1  0.43760793  0.09392010  0.33505541  1
  Gd  Gd31  1  0.77567471  0.43369325  0.81991312  1
  Gd  Gd32  1  0.90129871  0.53537497  0.55077390  1
  Gd  Gd33  1  0.53936778  0.53506300  0.07370555  1
  Gd  Gd34  1  0.89545474  0.87033758  0.55491120  1
  Gd  Gd35  1  0.55104958  0.87066777  0.05922646  1
  N  N36  1  0.17477649  0.22681060  0.38650714  1
  N  N37  1  0.11826457  0.09201810  0.11682577  1
  N  N38  1  0.92587424  0.18917384  0.88428340  1
  N  N39  1  0.75613521  0.10968344  0.62209806  1
  N  N40  1  0.57357899  0.21733158  0.37414863  1
  N  N41  1  0.42246701  0.11600662  0.11494155  1
  N  N42  1  0.22179381  0.20675359  0.86983751  1
  N  N43  1  0.14565986  0.07617952  0.63407103  1
  N  N44  1  0.88522936  0.20497445  0.32016414  1
  N  N45  1  0.76412423  0.09903148  0.09592746  1
  N  N46  1  0.51111451  0.23267815  0.87414934  1
  N  N47  1  0.44440533  0.10094639  0.60845930  1
  N  N48  1  0.21404467  0.54152436  0.37273734  1
  N  N49  1  0.11562327  0.42290888  0.11585707  1
  N  N50  1  0.91457784  0.54433171  0.87084899  1
  N  N51  1  0.75487745  0.43820006  0.60164916  1
  N  N52  1  0.55114336  0.53823626  0.35479734  1
  N  N53  1  0.41531310  0.41549284  0.13675246  1
  N  N54  1  0.22374536  0.54034135  0.87535490  1
  N  N55  1  0.14717274  0.41404944  0.63359653  1
  N  N56  1  0.89092121  0.53902275  0.33475502  1
  N  N57  1  0.79980180  0.42370076  0.10284743  1
  N  N58  1  0.51955892  0.55499367  0.85754544  1
  N  N59  1  0.44495373  0.43100989  0.61280613  1
  N  N60  1  0.21364466  0.87856405  0.37406819  1
  N  N61  1  0.11490221  0.75855469  0.11641862  1
  N  N62  1  0.91501108  0.84263852  0.87307245  1
  N  N63  1  0.76392021  0.76850277  0.63630495  1
  N  N64  1  0.57715732  0.83825854  0.33383559  1
  N  N65  1  0.40497850  0.77800215  0.13431664  1
  N  N66  1  0.22431409  0.87089906  0.87340794  1
  N  N67  1  0.14565629  0.74554515  0.62979984  1
  N  N68  1  0.88780798  0.87606888  0.33340459  1
  N  N69  1  0.80649813  0.74578287  0.10598826  1
  N  N70  1  0.54619368  0.87871311  0.82851496  1
  N  N71  1  0.44558016  0.75837895  0.61221169  1
