# generated using pymatgen
data_Gd2Al7N9
_symmetry_space_group_name_H-M   'P 1'
_cell_length_a   10.03987589
_cell_length_b   9.82574990
_cell_length_c   10.49574245
_cell_angle_alpha   90.07813926
_cell_angle_beta   90.07439369
_cell_angle_gamma   60.21301734
_symmetry_Int_Tables_number   1
_chemical_formula_structural   Gd2Al7N9
_chemical_formula_sum   'Gd8 Al28 N36'
_cell_volume   898.59821217
_cell_formula_units_Z   4
loop_
 _symmetry_equiv_pos_site_id
 _symmetry_equiv_pos_as_xyz
  1  'x, y, z'
loop_
 _atom_site_type_symbol
 _atom_site_label
 _atom_site_symmetry_multiplicity
 _atom_site_fract_x
 _atom_site_fract_y
 _atom_site_fract_z
 _atom_site_occupancy
  Al  Al0  1  0.11210248  0.09422787  0.30285601  1
  Al  Al1  1  0.21166609  0.21214816  0.05846123  1
  Al  Al2  1  0.54073956  0.21212053  0.11925636  1
  Al  Al3  1  0.12268377  0.08883823  0.81356580  1
  Al  Al4  1  0.22420122  0.20329829  0.56663260  1
  Al  Al5  1  0.78858448  0.09332973  0.27801553  1
  Al  Al6  1  0.91052919  0.19917574  0.06162637  1
  Al  Al7  1  0.42370171  0.11258124  0.87631666  1
  Al  Al8  1  0.52739490  0.22217641  0.63359811  1
  Al  Al9  1  0.11216639  0.42724094  0.30370696  1
  Al  Al10  1  0.20540412  0.54249415  0.05783190  1
  Al  Al11  1  0.45367406  0.42461305  0.37122053  1
  Al  Al12  1  0.12329246  0.42649202  0.81023604  1
  Al  Al13  1  0.22969334  0.53733531  0.55724258  1
  Al  Al14  1  0.79217818  0.42639671  0.29060510  1
  Al  Al15  1  0.91542453  0.52917073  0.05641266  1
  Al  Al16  1  0.41678912  0.43649701  0.87891947  1
  Al  Al17  1  0.54698983  0.54884346  0.56325860  1
  Al  Al18  1  0.11721986  0.75973436  0.30190468  1
  Al  Al19  1  0.21137404  0.87642006  0.05758095  1
  Al  Al20  1  0.79639934  0.75363557  0.81847792  1
  Al  Al21  1  0.44044220  0.76208802  0.30825626  1
  Al  Al22  1  0.11972410  0.75581707  0.80949457  1
  Al  Al23  1  0.23309592  0.86879014  0.56304515  1
  Al  Al24  1  0.79599327  0.75011953  0.28441055  1
  Al  Al25  1  0.90959903  0.85710488  0.05550199  1
  Al  Al26  1  0.42242121  0.76075930  0.81081879  1
  Al  Al27  1  0.54144701  0.88559689  0.64756337  1
  Gd  Gd28  1  0.76113866  0.10146451  0.84628515  1
  Gd  Gd29  1  0.88957880  0.20115790  0.54898164  1
  Gd  Gd30  1  0.45438849  0.08545278  0.36011239  1
  Gd  Gd31  1  0.76944767  0.43815630  0.82719655  1
  Gd  Gd32  1  0.89422399  0.53954826  0.55526274  1
  Gd  Gd33  1  0.54578287  0.52942081  0.09438368  1
  Gd  Gd34  1  0.88447835  0.87596784  0.55763025  1
  Gd  Gd35  1  0.56254814  0.85627043  0.07271713  1
  N  N36  1  0.18750957  0.22155390  0.37898764  1
  N  N37  1  0.11864805  0.09126183  0.11914237  1
  N  N38  1  0.92278987  0.18950406  0.87980655  1
  N  N39  1  0.74429003  0.11362570  0.62547017  1
  N  N40  1  0.57034435  0.22252445  0.29673427  1
  N  N41  1  0.43144674  0.11320169  0.06867992  1
  N  N42  1  0.20856024  0.21325957  0.87413594  1
  N  N43  1  0.13893257  0.08039117  0.63118907  1
  N  N44  1  0.89094700  0.20335103  0.32932981  1
  N  N45  1  0.78098501  0.09143976  0.09071491  1
  N  N46  1  0.49847621  0.23681126  0.81155246  1
  N  N47  1  0.44435204  0.09115258  0.57953685  1
  N  N48  1  0.21747885  0.54142410  0.36569956  1
  N  N49  1  0.11878895  0.42124652  0.12077899  1
  N  N50  1  0.91372165  0.54440081  0.87094363  1
  N  N51  1  0.75013184  0.44255267  0.61241918  1
  N  N52  1  0.56217672  0.53906979  0.34660312  1
  N  N53  1  0.41781540  0.41099515  0.06105336  1
  N  N54  1  0.20393792  0.55091486  0.87333407  1
  N  N55  1  0.14555440  0.41426826  0.62849574  1
  N  N56  1  0.89609354  0.53787417  0.34060324  1
  N  N57  1  0.80990541  0.41818661  0.10345423  1
  N  N58  1  0.51667269  0.55549337  0.86934392  1
  N  N59  1  0.44822561  0.42517795  0.55577113  1
  N  N60  1  0.22205101  0.87498447  0.37464089  1
  N  N61  1  0.11529972  0.75972369  0.11719301  1
  N  N62  1  0.91133127  0.84711151  0.86941768  1
  N  N63  1  0.75523344  0.77249611  0.64241456  1
  N  N64  1  0.58275002  0.83690229  0.30791237  1
  N  N65  1  0.40045942  0.77780104  0.13204939  1
  N  N66  1  0.21772429  0.87390882  0.87254588  1
  N  N67  1  0.14052322  0.74777935  0.62545643  1
  N  N68  1  0.89131308  0.87624591  0.33667940  1
  N  N69  1  0.82073785  0.73969615  0.10562174  1
  N  N70  1  0.54100874  0.88207789  0.83894815  1
  N  N71  1  0.44077546  0.76197465  0.62379630  1
