# generated using pymatgen
data_Gd2Al7N9
_symmetry_space_group_name_H-M   'P 1'
_cell_length_a   9.94599794
_cell_length_b   9.83318789
_cell_length_c   10.35076204
_cell_angle_alpha   90.21479239
_cell_angle_beta   89.86567382
_cell_angle_gamma   60.27692425
_symmetry_Int_Tables_number   1
_chemical_formula_structural   Gd2Al7N9
_chemical_formula_sum   'Gd8 Al28 N36'
_cell_volume   879.10885878
_cell_formula_units_Z   4
loop_
 _symmetry_equiv_pos_site_id
 _symmetry_equiv_pos_as_xyz
  1  'x, y, z'
loop_
 _atom_site_type_symbol
 _atom_site_label
 _atom_site_symmetry_multiplicity
 _atom_site_fract_x
 _atom_site_fract_y
 _atom_site_fract_z
 _atom_site_occupancy
  Al  Al0  1  0.10634129  0.09599145  0.30030723  1
  Al  Al1  1  0.21801560  0.20994206  0.05425247  1
  Al  Al2  1  0.52655553  0.21832575  0.05673425  1
  Al  Al3  1  0.12858961  0.08470871  0.81819292  1
  Al  Al4  1  0.22545721  0.20409800  0.57166560  1
  Al  Al5  1  0.77053122  0.09974270  0.28595470  1
  Al  Al6  1  0.90302514  0.20202579  0.06966985  1
  Al  Al7  1  0.43440944  0.10264181  0.79872392  1
  Al  Al8  1  0.55510531  0.21454136  0.55934792  1
  Al  Al9  1  0.10445193  0.43046982  0.30102321  1
  Al  Al10  1  0.21630225  0.53669447  0.06128504  1
  Al  Al11  1  0.43685165  0.42915004  0.31647458  1
  Al  Al12  1  0.12628767  0.42586797  0.81727869  1
  Al  Al13  1  0.23470094  0.53368828  0.56397782  1
  Al  Al14  1  0.77954667  0.43003143  0.29108074  1
  Al  Al15  1  0.90512522  0.53598414  0.05925127  1
  Al  Al16  1  0.42725773  0.43786050  0.80300249  1
  Al  Al17  1  0.54884716  0.54023988  0.55033183  1
  Al  Al18  1  0.11147071  0.76256729  0.30260016  1
  Al  Al19  1  0.21502583  0.87749108  0.06132801  1
  Al  Al20  1  0.78732319  0.75713865  0.81149337  1
  Al  Al21  1  0.43723855  0.76231498  0.32183781  1
  Al  Al22  1  0.12658835  0.75133558  0.81789874  1
  Al  Al23  1  0.23320327  0.86683962  0.56487398  1
  Al  Al24  1  0.78215816  0.75607038  0.29629352  1
  Al  Al25  1  0.90136934  0.85910950  0.06198265  1
  Al  Al26  1  0.43487659  0.76448064  0.79578672  1
  Al  Al27  1  0.55744432  0.86570910  0.56833144  1
  Gd  Gd28  1  0.77181680  0.09464399  0.83821588  1
  Gd  Gd29  1  0.90205189  0.19615532  0.54097219  1
  Gd  Gd30  1  0.43282801  0.10002239  0.33173659  1
  Gd  Gd31  1  0.77698603  0.43164885  0.82003662  1
  Gd  Gd32  1  0.90390256  0.53219335  0.55202169  1
  Gd  Gd33  1  0.53672764  0.54129103  0.07306893  1
  Gd  Gd34  1  0.89778082  0.86897928  0.55691819  1
  Gd  Gd35  1  0.55132533  0.87367566  0.05454817  1
  N  N36  1  0.17296940  0.22907862  0.38669113  1
  N  N37  1  0.11860786  0.09299091  0.11732150  1
  N  N38  1  0.92723974  0.18770908  0.88573621  1
  N  N39  1  0.75574158  0.10939457  0.62177582  1
  N  N40  1  0.57128829  0.21904284  0.37329646  1
  N  N41  1  0.42284463  0.11765836  0.11535060  1
  N  N42  1  0.22549500  0.20421264  0.86836330  1
  N  N43  1  0.14506279  0.07576803  0.63469504  1
  N  N44  1  0.88408962  0.20550231  0.31962397  1
  N  N45  1  0.76413611  0.09803676  0.09618286  1
  N  N46  1  0.51196669  0.23048511  0.87176837  1
  N  N47  1  0.44631815  0.09610586  0.60210750  1
  N  N48  1  0.21263213  0.54247893  0.37301459  1
  N  N49  1  0.11410281  0.42415004  0.11537096  1
  N  N50  1  0.91211422  0.54717574  0.87114132  1
  N  N51  1  0.75531428  0.43670977  0.60198264  1
  N  N52  1  0.55100511  0.53856435  0.35522032  1
  N  N53  1  0.41630218  0.41677715  0.13563728  1
  N  N54  1  0.22476198  0.53968033  0.87630524  1
  N  N55  1  0.14897619  0.41227678  0.63487326  1
  N  N56  1  0.88803947  0.53984124  0.33607963  1
  N  N57  1  0.79769412  0.42414541  0.10327355  1
  N  N58  1  0.52010341  0.55723319  0.85639824  1
  N  N59  1  0.44541500  0.42941430  0.61287964  1
  N  N60  1  0.21014403  0.88026352  0.37619837  1
  N  N61  1  0.11538397  0.75931569  0.11673313  1
  N  N62  1  0.91329246  0.84049946  0.87348705  1
  N  N63  1  0.76090026  0.76882205  0.63108558  1
  N  N64  1  0.57536727  0.84042275  0.37432117  1
  N  N65  1  0.40766394  0.78446671  0.14303060  1
  N  N66  1  0.22941953  0.86943951  0.87445938  1
  N  N67  1  0.14690418  0.74384891  0.63229550  1
  N  N68  1  0.88606939  0.87762402  0.33593776  1
  N  N69  1  0.80186027  0.74817030  0.11437731  1
  N  N70  1  0.55190984  0.87548046  0.83700080  1
  N  N71  1  0.44601360  0.75737360  0.60792938  1
