# generated using pymatgen
data_Gd2Al7N9
_symmetry_space_group_name_H-M   'P 1'
_cell_length_a   10.06282850
_cell_length_b   9.84996244
_cell_length_c   10.36084393
_cell_angle_alpha   90.06467856
_cell_angle_beta   90.13768249
_cell_angle_gamma   60.46182927
_symmetry_Int_Tables_number   1
_chemical_formula_structural   Gd2Al7N9
_chemical_formula_sum   'Gd8 Al28 N36'
_cell_volume   893.47308970
_cell_formula_units_Z   4
loop_
 _symmetry_equiv_pos_site_id
 _symmetry_equiv_pos_as_xyz
  1  'x, y, z'
loop_
 _atom_site_type_symbol
 _atom_site_label
 _atom_site_symmetry_multiplicity
 _atom_site_fract_x
 _atom_site_fract_y
 _atom_site_fract_z
 _atom_site_occupancy
  Al  Al0  1  0.11234478  0.09495198  0.30237919  1
  Al  Al1  1  0.22089788  0.21011661  0.05988217  1
  Al  Al2  1  0.53864208  0.21633912  0.13454981  1
  Al  Al3  1  0.12250819  0.08656429  0.81600270  1
  Al  Al4  1  0.21991774  0.20459993  0.56795007  1
  Al  Al5  1  0.79166445  0.08976035  0.28281457  1
  Al  Al6  1  0.91019954  0.20066088  0.06346081  1
  Al  Al7  1  0.41629253  0.10953573  0.80351744  1
  Al  Al8  1  0.53563475  0.22681741  0.62588124  1
  Al  Al9  1  0.10986835  0.42726829  0.30122230  1
  Al  Al10  1  0.20916562  0.54234270  0.06670183  1
  Al  Al11  1  0.44569724  0.42777214  0.34970322  1
  Al  Al12  1  0.12327750  0.42540705  0.81508504  1
  Al  Al13  1  0.23261665  0.53494842  0.55549499  1
  Al  Al14  1  0.79112629  0.42527282  0.29088549  1
  Al  Al15  1  0.91095381  0.53086439  0.05701552  1
  Al  Al16  1  0.41394687  0.44334093  0.85618162  1
  Al  Al17  1  0.55190735  0.54456072  0.54145600  1
  Al  Al18  1  0.11511661  0.76069817  0.30274407  1
  Al  Al19  1  0.21132090  0.87832080  0.05922643  1
  Al  Al20  1  0.79694823  0.75121796  0.81713215  1
  Al  Al21  1  0.44062221  0.76533620  0.30937122  1
  Al  Al22  1  0.12027521  0.75454250  0.81292672  1
  Al  Al23  1  0.23455659  0.86544200  0.56220954  1
  Al  Al24  1  0.79175013  0.75094489  0.28574519  1
  Al  Al25  1  0.90777363  0.85644220  0.05833422  1
  Al  Al26  1  0.42186519  0.76015690  0.80491965  1
  Al  Al27  1  0.54998133  0.86944856  0.63418192  1
  Gd  Gd28  1  0.75944887  0.10051131  0.85140340  1
  Gd  Gd29  1  0.89374023  0.19757702  0.54950419  1
  Gd  Gd30  1  0.45022722  0.08799713  0.35573461  1
  Gd  Gd31  1  0.76764357  0.43730792  0.82138519  1
  Gd  Gd32  1  0.90193957  0.53411778  0.55289371  1
  Gd  Gd33  1  0.54528784  0.53900859  0.08826160  1
  Gd  Gd34  1  0.88977048  0.87298803  0.55989961  1
  Gd  Gd35  1  0.55195643  0.87728608  0.06690345  1
  N  N36  1  0.18234808  0.22513477  0.38368960  1
  N  N37  1  0.11867409  0.09298779  0.11685529  1
  N  N38  1  0.92140982  0.19068733  0.87754561  1
  N  N39  1  0.74782294  0.11052261  0.62608028  1
  N  N40  1  0.58168867  0.21278535  0.31444726  1
  N  N41  1  0.42155155  0.12083480  0.12143575  1
  N  N42  1  0.21802548  0.20657853  0.87235361  1
  N  N43  1  0.14194349  0.07564239  0.63249383  1
  N  N44  1  0.89347259  0.20189851  0.32845845  1
  N  N45  1  0.77930244  0.09168051  0.09282950  1
  N  N46  1  0.50027843  0.24010513  0.81006006  1
  N  N47  1  0.43833430  0.09249769  0.60406041  1
  N  N48  1  0.21095093  0.54357857  0.36525801  1
  N  N49  1  0.11473063  0.42327277  0.11636635  1
  N  N50  1  0.91304925  0.54189787  0.86836401  1
  N  N51  1  0.75204751  0.44110107  0.60364074  1
  N  N52  1  0.56064367  0.54168856  0.34689168  1
  N  N53  1  0.41221851  0.42605321  0.11462497  1
  N  N54  1  0.20799807  0.54762196  0.88020988  1
  N  N55  1  0.14974389  0.41218123  0.63238852  1
  N  N56  1  0.89497670  0.53761597  0.33698602  1
  N  N57  1  0.80779600  0.41761644  0.10303367  1
  N  N58  1  0.51418722  0.55555159  0.86631904  1
  N  N59  1  0.44767275  0.42668059  0.55069444  1
  N  N60  1  0.22053723  0.87560520  0.37353495  1
  N  N61  1  0.11347379  0.76248474  0.11704637  1
  N  N62  1  0.91158852  0.84531762  0.86852108  1
  N  N63  1  0.76034568  0.76695007  0.63778112  1
  N  N64  1  0.58308446  0.83711362  0.32168024  1
  N  N65  1  0.40220548  0.78544405  0.13115577  1
  N  N66  1  0.21939629  0.87179223  0.87221978  1
  N  N67  1  0.14452460  0.74333813  0.62767874  1
  N  N68  1  0.89346646  0.87289834  0.33725794  1
  N  N69  1  0.81177959  0.74340933  0.10347980  1
  N  N70  1  0.54133688  0.87888788  0.83134057  1
  N  N71  1  0.44426158  0.75472408  0.61537534  1
