# generated using pymatgen
data_Gd2Al7N9
_symmetry_space_group_name_H-M   'P 1'
_cell_length_a   10.03952865
_cell_length_b   9.87247147
_cell_length_c   10.32071209
_cell_angle_alpha   90.14571849
_cell_angle_beta   90.15422852
_cell_angle_gamma   60.30754506
_symmetry_Int_Tables_number   1
_chemical_formula_structural   Gd2Al7N9
_chemical_formula_sum   'Gd8 Al28 N36'
_cell_volume   888.61793992
_cell_formula_units_Z   4
loop_
 _symmetry_equiv_pos_site_id
 _symmetry_equiv_pos_as_xyz
  1  'x, y, z'
loop_
 _atom_site_type_symbol
 _atom_site_label
 _atom_site_symmetry_multiplicity
 _atom_site_fract_x
 _atom_site_fract_y
 _atom_site_fract_z
 _atom_site_occupancy
  Al  Al0  1  0.11097007  0.09504280  0.30148553  1
  Al  Al1  1  0.21962477  0.20986664  0.05822832  1
  Al  Al2  1  0.53821265  0.21216101  0.10681289  1
  Al  Al3  1  0.12356944  0.08746663  0.81703473  1
  Al  Al4  1  0.22024749  0.20599752  0.56968006  1
  Al  Al5  1  0.78149808  0.09458561  0.28512408  1
  Al  Al6  1  0.90785038  0.20343985  0.06838056  1
  Al  Al7  1  0.42156615  0.11024701  0.80925673  1
  Al  Al8  1  0.54309476  0.21757646  0.61382643  1
  Al  Al9  1  0.11008628  0.42714483  0.30178772  1
  Al  Al10  1  0.21606054  0.53789698  0.05993468  1
  Al  Al11  1  0.43883232  0.42928818  0.31655639  1
  Al  Al12  1  0.12610209  0.42587584  0.81551568  1
  Al  Al13  1  0.23185510  0.53645124  0.55993727  1
  Al  Al14  1  0.78451891  0.42924661  0.29149987  1
  Al  Al15  1  0.91111603  0.53143120  0.05757534  1
  Al  Al16  1  0.41926879  0.44660500  0.80248318  1
  Al  Al17  1  0.54716938  0.54417392  0.54808563  1
  Al  Al18  1  0.11553055  0.76066115  0.30266167  1
  Al  Al19  1  0.21164280  0.87713398  0.05902973  1
  Al  Al20  1  0.79747563  0.75174648  0.81825220  1
  Al  Al21  1  0.44039982  0.76078186  0.31087877  1
  Al  Al22  1  0.12202758  0.75405688  0.81365948  1
  Al  Al23  1  0.23288211  0.86816413  0.56218346  1
  Al  Al24  1  0.78985212  0.75126381  0.28580692  1
  Al  Al25  1  0.90731295  0.85534690  0.06018237  1
  Al  Al26  1  0.42327729  0.76240877  0.80335112  1
  Al  Al27  1  0.54954820  0.87184658  0.63384671  1
  Gd  Gd28  1  0.76672080  0.09799300  0.84778942  1
  Gd  Gd29  1  0.89621553  0.19821746  0.54396368  1
  Gd  Gd30  1  0.44577002  0.08859716  0.34878049  1
  Gd  Gd31  1  0.77264054  0.43536594  0.81959019  1
  Gd  Gd32  1  0.90019469  0.53576195  0.55254644  1
  Gd  Gd33  1  0.54206079  0.53593381  0.07400496  1
  Gd  Gd34  1  0.89005207  0.87260167  0.55700887  1
  Gd  Gd35  1  0.55211219  0.87170760  0.06634386  1
  N  N36  1  0.17886031  0.22624196  0.38469070  1
  N  N37  1  0.11980555  0.09204367  0.11681754  1
  N  N38  1  0.92386183  0.19189806  0.88291202  1
  N  N39  1  0.75296156  0.11030175  0.62464976  1
  N  N40  1  0.57682755  0.21405969  0.33769168  1
  N  N41  1  0.42208932  0.11743756  0.11829191  1
  N  N42  1  0.21905932  0.20706955  0.87147432  1
  N  N43  1  0.14153956  0.07768164  0.63282496  1
  N  N44  1  0.89007876  0.20350686  0.32191560  1
  N  N45  1  0.77041119  0.09570613  0.09426307  1
  N  N46  1  0.50954138  0.23319862  0.83405207  1
  N  N47  1  0.43938758  0.09538186  0.60670866  1
  N  N48  1  0.21651037  0.54079010  0.37065946  1
  N  N49  1  0.11708037  0.42333316  0.11535518  1
  N  N50  1  0.91528765  0.54228396  0.86897929  1
  N  N51  1  0.75262222  0.43993530  0.60114760  1
  N  N52  1  0.55258717  0.53907181  0.35425695  1
  N  N53  1  0.41285852  0.42338323  0.13274294  1
  N  N54  1  0.22014487  0.54318632  0.87421126  1
  N  N55  1  0.14746746  0.41359353  0.63208209  1
  N  N56  1  0.89425366  0.53799915  0.33592285  1
  N  N57  1  0.80276988  0.42277039  0.10339552  1
  N  N58  1  0.51728078  0.55648576  0.85827034  1
  N  N59  1  0.44032424  0.43771134  0.60939062  1
  N  N60  1  0.21746671  0.87744499  0.37294852  1
  N  N61  1  0.11551300  0.75908673  0.11612414  1
  N  N62  1  0.91418173  0.84274942  0.87133028  1
  N  N63  1  0.76052068  0.76861862  0.63823399  1
  N  N64  1  0.58147689  0.83457717  0.32226370  1
  N  N65  1  0.40388845  0.77799899  0.13143226  1
  N  N66  1  0.22041235  0.87251370  0.87213612  1
  N  N67  1  0.14169037  0.74760996  0.62710698  1
  N  N68  1  0.89201535  0.87364157  0.33417951  1
  N  N69  1  0.81056847  0.74346440  0.10345915  1
  N  N70  1  0.54249497  0.87861455  0.83193526  1
  N  N71  1  0.44295720  0.75880744  0.61379467  1
