# generated using pymatgen
data_Gd2Al7N9
_symmetry_space_group_name_H-M   'P 1'
_cell_length_a   9.94467921
_cell_length_b   9.83871673
_cell_length_c   10.66907564
_cell_angle_alpha   90.27777904
_cell_angle_beta   90.24702393
_cell_angle_gamma   60.44986751
_symmetry_Int_Tables_number   1
_chemical_formula_structural   Gd2Al7N9
_chemical_formula_sum   'Gd8 Al28 N36'
_cell_volume   908.09530716
_cell_formula_units_Z   4
loop_
 _symmetry_equiv_pos_site_id
 _symmetry_equiv_pos_as_xyz
  1  'x, y, z'
loop_
 _atom_site_type_symbol
 _atom_site_label
 _atom_site_symmetry_multiplicity
 _atom_site_fract_x
 _atom_site_fract_y
 _atom_site_fract_z
 _atom_site_occupancy
  Al  Al0  1  0.12740625  0.08362611  0.38600550  1
  Al  Al1  1  0.21558972  0.21342036  0.14471552  1
  Al  Al2  1  0.53981904  0.21949978  0.13813331  1
  Al  Al3  1  0.11888697  0.09213177  0.90064388  1
  Al  Al4  1  0.22514500  0.20016653  0.64744169  1
  Al  Al5  1  0.79519953  0.08838307  0.29699260  1
  Al  Al6  1  0.90361461  0.20008062  0.08356503  1
  Al  Al7  1  0.41572986  0.11775936  0.89556408  1
  Al  Al8  1  0.52693979  0.21911875  0.66062818  1
  Al  Al9  1  0.12500811  0.41710479  0.38983192  1
  Al  Al10  1  0.21207325  0.54470765  0.07141831  1
  Al  Al11  1  0.46810712  0.42153231  0.40172180  1
  Al  Al12  1  0.11161583  0.42357198  0.89555102  1
  Al  Al13  1  0.23318995  0.53523433  0.56971466  1
  Al  Al14  1  0.80484049  0.41741100  0.31277514  1
  Al  Al15  1  0.90505602  0.53425615  0.07786698  1
  Al  Al16  1  0.41539915  0.44128620  0.89096656  1
  Al  Al17  1  0.52374679  0.55390870  0.65269909  1
  Al  Al18  1  0.12271343  0.74996570  0.31843325  1
  Al  Al19  1  0.22034741  0.88089420  0.14633465  1
  Al  Al20  1  0.78543020  0.75991297  0.83925085  1
  Al  Al21  1  0.46301544  0.75057289  0.40592667  1
  Al  Al22  1  0.11578659  0.75220976  0.82128311  1
  Al  Al23  1  0.22842630  0.87641462  0.64308169  1
  Al  Al24  1  0.80257722  0.74303243  0.30821715  1
  Al  Al25  1  0.91432178  0.85299073  0.07553573  1
  Al  Al26  1  0.40843134  0.77736487  0.89017697  1
  Al  Al27  1  0.53721912  0.88159506  0.67104041  1
  Gd  Gd28  1  0.76181908  0.09552544  0.86495203  1
  Gd  Gd29  1  0.86558680  0.21672665  0.57091619  1
  Gd  Gd30  1  0.45860043  0.08718321  0.39762145  1
  Gd  Gd31  1  0.75038062  0.44578239  0.86397321  1
  Gd  Gd32  1  0.87773716  0.54376008  0.58722088  1
  Gd  Gd33  1  0.53610261  0.54664735  0.14956190  1
  Gd  Gd34  1  0.88531820  0.87336683  0.57321763  1
  Gd  Gd35  1  0.55993409  0.87271773  0.10783025  1
  N  N36  1  0.20977683  0.21135669  0.32329991  1
  N  N37  1  0.12473508  0.08923091  0.08739528  1
  N  N38  1  0.90654868  0.19968925  0.90318223  1
  N  N39  1  0.74393758  0.10605326  0.64846660  1
  N  N40  1  0.57277471  0.22220622  0.31609542  1
  N  N41  1  0.42358780  0.12730678  0.08020858  1
  N  N42  1  0.20712049  0.21154746  0.83232212  1
  N  N43  1  0.13585164  0.08149051  0.57111694  1
  N  N44  1  0.90255168  0.19591422  0.35098763  1
  N  N45  1  0.78464508  0.08626814  0.11376297  1
  N  N46  1  0.49903555  0.23773525  0.83464585  1
  N  N47  1  0.44137138  0.08987890  0.61162627  1
  N  N48  1  0.23344384  0.53957986  0.38200756  1
  N  N49  1  0.11874899  0.41726011  0.08178820  1
  N  N50  1  0.89488058  0.55299200  0.89177960  1
  N  N51  1  0.74024370  0.44617505  0.65479729  1
  N  N52  1  0.57528254  0.53099523  0.36124326  1
  N  N53  1  0.43084454  0.41846398  0.07099671  1
  N  N54  1  0.20215315  0.55173809  0.88762236  1
  N  N55  1  0.14417746  0.40289620  0.57585523  1
  N  N56  1  0.90371572  0.53214167  0.36859021  1
  N  N57  1  0.80230433  0.42013024  0.12798243  1
  N  N58  1  0.48760692  0.57216082  0.83053090  1
  N  N59  1  0.45216818  0.41947177  0.58170249  1
  N  N60  1  0.24179400  0.86485499  0.33129823  1
  N  N61  1  0.12105754  0.75376686  0.13748193  1
  N  N62  1  0.91161141  0.84231826  0.89407029  1
  N  N63  1  0.75189613  0.77875194  0.66526309  1
  N  N64  1  0.58148009  0.83661457  0.33166789  1
  N  N65  1  0.40644527  0.77685141  0.06358295  1
  N  N66  1  0.20699734  0.89235170  0.82519361  1
  N  N67  1  0.13811696  0.73964978  0.63993333  1
  N  N68  1  0.89679099  0.87171650  0.35637302  1
  N  N69  1  0.82165910  0.73877368  0.13186130  1
  N  N70  1  0.53869777  0.88329542  0.85975916  1
  N  N71  1  0.44263139  0.76655645  0.59056546  1
