# generated using pymatgen
data_Gd2Al7N9
_symmetry_space_group_name_H-M   'P 1'
_cell_length_a   9.94011875
_cell_length_b   9.83069285
_cell_length_c   10.35871399
_cell_angle_alpha   90.29187923
_cell_angle_beta   89.81375344
_cell_angle_gamma   60.26518196
_symmetry_Int_Tables_number   1
_chemical_formula_structural   Gd2Al7N9
_chemical_formula_sum   'Gd8 Al28 N36'
_cell_volume   878.92381849
_cell_formula_units_Z   4
loop_
 _symmetry_equiv_pos_site_id
 _symmetry_equiv_pos_as_xyz
  1  'x, y, z'
loop_
 _atom_site_type_symbol
 _atom_site_label
 _atom_site_symmetry_multiplicity
 _atom_site_fract_x
 _atom_site_fract_y
 _atom_site_fract_z
 _atom_site_occupancy
  Al  Al0  1  0.10597372  0.09649576  0.29506236  1
  Al  Al1  1  0.21799849  0.21021850  0.04900920  1
  Al  Al2  1  0.52681661  0.21850824  0.05145286  1
  Al  Al3  1  0.12896322  0.08439225  0.81349541  1
  Al  Al4  1  0.22576525  0.20360161  0.56713181  1
  Al  Al5  1  0.77009309  0.09975173  0.28080113  1
  Al  Al6  1  0.90269123  0.20222898  0.06532878  1
  Al  Al7  1  0.43531804  0.10176078  0.79356623  1
  Al  Al8  1  0.55542495  0.21388188  0.55411188  1
  Al  Al9  1  0.10374696  0.43108681  0.29592310  1
  Al  Al10  1  0.21631409  0.53690652  0.05643614  1
  Al  Al11  1  0.43670704  0.42960646  0.31127820  1
  Al  Al12  1  0.12679102  0.42564882  0.81248393  1
  Al  Al13  1  0.23518680  0.53325477  0.55912953  1
  Al  Al14  1  0.77859897  0.43074618  0.28608394  1
  Al  Al15  1  0.90480269  0.53622217  0.05408453  1
  Al  Al16  1  0.42787495  0.43743471  0.79773140  1
  Al  Al17  1  0.54924653  0.53970792  0.54537725  1
  Al  Al18  1  0.11089517  0.76316828  0.29760670  1
  Al  Al19  1  0.21504981  0.87785598  0.05632940  1
  Al  Al20  1  0.78692524  0.75682332  0.80598332  1
  Al  Al21  1  0.43656229  0.76267944  0.31693154  1
  Al  Al22  1  0.12725331  0.75092807  0.81309115  1
  Al  Al23  1  0.23341704  0.86661484  0.56024320  1
  Al  Al24  1  0.78207606  0.75641126  0.29158177  1
  Al  Al25  1  0.90129385  0.85910380  0.05649066  1
  Al  Al26  1  0.43596881  0.76436453  0.79047037  1
  Al  Al27  1  0.55790274  0.86509574  0.56106517  1
  Gd  Gd28  1  0.77251305  0.09410628  0.83290651  1
  Gd  Gd29  1  0.90260501  0.19477431  0.53489900  1
  Gd  Gd30  1  0.43177431  0.10114493  0.32633944  1
  Gd  Gd31  1  0.77801559  0.43044220  0.81450025  1
  Gd  Gd32  1  0.90499594  0.53055989  0.54696757  1
  Gd  Gd33  1  0.53636988  0.54203721  0.06715648  1
  Gd  Gd34  1  0.89852615  0.86762651  0.55229264  1
  Gd  Gd35  1  0.55157445  0.87395101  0.05027349  1
  N  N36  1  0.17184326  0.22989647  0.38228228  1
  N  N37  1  0.11869968  0.09338901  0.11237218  1
  N  N38  1  0.92767935  0.18713655  0.88160412  1
  N  N39  1  0.75610497  0.10843757  0.61654382  1
  N  N40  1  0.57080617  0.21945985  0.36818095  1
  N  N41  1  0.42260650  0.11842798  0.11028015  1
  N  N42  1  0.22603553  0.20392037  0.86330567  1
  N  N43  1  0.14487670  0.07571381  0.63008825  1
  N  N44  1  0.88348487  0.20595051  0.31367365  1
  N  N45  1  0.76398685  0.09773207  0.09113825  1
  N  N46  1  0.51255676  0.23015817  0.86654691  1
  N  N47  1  0.44682222  0.09518167  0.59678731  1
  N  N48  1  0.21215950  0.54287701  0.36812971  1
  N  N49  1  0.11381435  0.42451926  0.11038658  1
  N  N50  1  0.91213182  0.54697884  0.86608638  1
  N  N51  1  0.75600165  0.43526636  0.59650421  1
  N  N52  1  0.55058614  0.53905855  0.35048431  1
  N  N53  1  0.41647723  0.41723142  0.13053084  1
  N  N54  1  0.22534748  0.53944515  0.87164073  1
  N  N55  1  0.14980248  0.41179865  0.63031941  1
  N  N56  1  0.88731968  0.54038128  0.33141147  1
  N  N57  1  0.79709138  0.42472736  0.09841960  1
  N  N58  1  0.52096778  0.55693624  0.85054431  1
  N  N59  1  0.44588423  0.42883164  0.60784005  1
  N  N60  1  0.20933291  0.88095343  0.37160708  1
  N  N61  1  0.11515547  0.75981039  0.11177082  1
  N  N62  1  0.91343738  0.83990950  0.86811319  1
  N  N63  1  0.76079252  0.76772005  0.62545833  1
  N  N64  1  0.57455916  0.84134225  0.36851924  1
  N  N65  1  0.40738165  0.78496575  0.13838738  1
  N  N66  1  0.23022191  0.86909835  0.86958473  1
  N  N67  1  0.14767289  0.74331753  0.62773766  1
  N  N68  1  0.88566076  0.87812588  0.33161400  1
  N  N69  1  0.80215269  0.74824821  0.10987298  1
  N  N70  1  0.55267359  0.87511338  0.83295973  1
  N  N71  1  0.44652107  0.75722379  0.60257234  1
