# generated using pymatgen
data_Gd2Al7N9
_symmetry_space_group_name_H-M   'P 1'
_cell_length_a   10.01012611
_cell_length_b   9.86624410
_cell_length_c   10.44823922
_cell_angle_alpha   90.19054548
_cell_angle_beta   90.56889695
_cell_angle_gamma   60.67492743
_symmetry_Int_Tables_number   1
_chemical_formula_structural   Gd2Al7N9
_chemical_formula_sum   'Gd8 Al28 N36'
_cell_volume   899.61504347
_cell_formula_units_Z   4
loop_
 _symmetry_equiv_pos_site_id
 _symmetry_equiv_pos_as_xyz
  1  'x, y, z'
loop_
 _atom_site_type_symbol
 _atom_site_label
 _atom_site_symmetry_multiplicity
 _atom_site_fract_x
 _atom_site_fract_y
 _atom_site_fract_z
 _atom_site_occupancy
  Al  Al0  1  0.12640772  0.08656246  0.38998118  1
  Al  Al1  1  0.21330469  0.21437644  0.14284137  1
  Al  Al2  1  0.53548374  0.22202800  0.14057454  1
  Al  Al3  1  0.11408126  0.09399283  0.89379296  1
  Al  Al4  1  0.22886166  0.19907333  0.65036979  1
  Al  Al5  1  0.78595328  0.08798452  0.30744466  1
  Al  Al6  1  0.90954654  0.19805609  0.14230138  1
  Al  Al7  1  0.41851307  0.11670863  0.89762240  1
  Al  Al8  1  0.52698644  0.22053486  0.66375780  1
  Al  Al9  1  0.12555179  0.41924967  0.39465299  1
  Al  Al10  1  0.22014039  0.53011366  0.14867665  1
  Al  Al11  1  0.45487397  0.42717504  0.40382012  1
  Al  Al12  1  0.11822931  0.42549893  0.89562878  1
  Al  Al13  1  0.23188948  0.52655664  0.64296371  1
  Al  Al14  1  0.79417581  0.42767230  0.32447762  1
  Al  Al15  1  0.90903362  0.53393301  0.07925303  1
  Al  Al16  1  0.40793706  0.44330795  0.89657588  1
  Al  Al17  1  0.52252218  0.55478735  0.65728014  1
  Al  Al18  1  0.11908532  0.75866455  0.32628572  1
  Al  Al19  1  0.21783548  0.88270558  0.14682972  1
  Al  Al20  1  0.78674057  0.75818828  0.84377609  1
  Al  Al21  1  0.46172674  0.75146433  0.40793384  1
  Al  Al22  1  0.11490910  0.75822314  0.82131443  1
  Al  Al23  1  0.23083023  0.87649924  0.64177873  1
  Al  Al24  1  0.80118899  0.74239871  0.31415237  1
  Al  Al25  1  0.91873078  0.84887020  0.07960869  1
  Al  Al26  1  0.41228278  0.77587171  0.89400551  1
  Al  Al27  1  0.53835406  0.88057218  0.67337751  1
  Gd  Gd28  1  0.76595699  0.09562436  0.87325464  1
  Gd  Gd29  1  0.87876713  0.20992742  0.60650023  1
  Gd  Gd30  1  0.45260808  0.08802645  0.39903611  1
  Gd  Gd31  1  0.75820345  0.43521098  0.87150887  1
  Gd  Gd32  1  0.88277151  0.54032628  0.60025742  1
  Gd  Gd33  1  0.53778225  0.54613862  0.14293776  1
  Gd  Gd34  1  0.88085170  0.87541776  0.57792367  1
  Gd  Gd35  1  0.56225663  0.87321266  0.10980990  1
  N  N36  1  0.20378022  0.21504774  0.32378528  1
  N  N37  1  0.11331504  0.09477347  0.08383784  1
  N  N38  1  0.91696428  0.19076035  0.83210652  1
  N  N39  1  0.73660204  0.10792784  0.64638319  1
  N  N40  1  0.56900334  0.22255899  0.32197167  1
  N  N41  1  0.42152890  0.12683299  0.08630816  1
  N  N42  1  0.21162669  0.21045331  0.83776139  1
  N  N43  1  0.14442633  0.08057520  0.57181066  1
  N  N44  1  0.90320442  0.19587014  0.33797051  1
  N  N45  1  0.78444530  0.09003256  0.11691453  1
  N  N46  1  0.50472411  0.23642342  0.84329238  1
  N  N47  1  0.44214772  0.09007444  0.61669488  1
  N  N48  1  0.23443045  0.52883085  0.33657737  1
  N  N49  1  0.12190091  0.42204638  0.08267930  1
  N  N50  1  0.90003421  0.54799006  0.88955646  1
  N  N51  1  0.73326661  0.45226802  0.65341950  1
  N  N52  1  0.56714660  0.53386018  0.35964142  1
  N  N53  1  0.41795941  0.42416311  0.07787231  1
  N  N54  1  0.20934030  0.53701533  0.82914224  1
  N  N55  1  0.14906976  0.40282731  0.57871875  1
  N  N56  1  0.90205216  0.53327882  0.37645337  1
  N  N57  1  0.80492394  0.42054117  0.12894503  1
  N  N58  1  0.49387297  0.56731458  0.84319973  1
  N  N59  1  0.43949985  0.42781805  0.58716074  1
  N  N60  1  0.23881133  0.86935153  0.33560032  1
  N  N61  1  0.12053368  0.75706859  0.13951002  1
  N  N62  1  0.91597987  0.83963183  0.89522118  1
  N  N63  1  0.75021677  0.77746067  0.66714548  1
  N  N64  1  0.58247997  0.83637043  0.33685626  1
  N  N65  1  0.40522625  0.78268722  0.07112518  1
  N  N66  1  0.21367841  0.88752626  0.82880640  1
  N  N67  1  0.13374001  0.75006778  0.63298733  1
  N  N68  1  0.89493598  0.87202424  0.35890258  1
  N  N69  1  0.82319660  0.73724963  0.13404833  1
  N  N70  1  0.54234685  0.88159739  0.86514860  1
  N  N71  1  0.44272883  0.76660205  0.59479557  1
