# generated using pymatgen
data_Gd2Al7N9
_symmetry_space_group_name_H-M   'P 1'
_cell_length_a   9.98418615
_cell_length_b   9.86223185
_cell_length_c   10.30513575
_cell_angle_alpha   90.05628588
_cell_angle_beta   89.89539639
_cell_angle_gamma   60.52408539
_symmetry_Int_Tables_number   1
_chemical_formula_structural   Gd2Al7N9
_chemical_formula_sum   'Gd8 Al28 N36'
_cell_volume   883.36435925
_cell_formula_units_Z   4
loop_
 _symmetry_equiv_pos_site_id
 _symmetry_equiv_pos_as_xyz
  1  'x, y, z'
loop_
 _atom_site_type_symbol
 _atom_site_label
 _atom_site_symmetry_multiplicity
 _atom_site_fract_x
 _atom_site_fract_y
 _atom_site_fract_z
 _atom_site_occupancy
  Al  Al0  1  0.12228107  0.08976223  0.39722014  1
  Al  Al1  1  0.21489164  0.21224204  0.14524770  1
  Al  Al2  1  0.53392998  0.22339482  0.15465117  1
  Al  Al3  1  0.11353192  0.09113213  0.90669354  1
  Al  Al4  1  0.23029802  0.19991763  0.66101016  1
  Al  Al5  1  0.76602265  0.10794532  0.38088138  1
  Al  Al6  1  0.90202506  0.20192988  0.17291141  1
  Al  Al7  1  0.42647276  0.11438033  0.89433428  1
  Al  Al8  1  0.53782794  0.21734059  0.65810976  1
  Al  Al9  1  0.12744803  0.41899106  0.39815514  1
  Al  Al10  1  0.21613569  0.53973970  0.14941404  1
  Al  Al11  1  0.43963321  0.43409779  0.41393790  1
  Al  Al12  1  0.11053925  0.43446348  0.90720439  1
  Al  Al13  1  0.23437930  0.53317656  0.65207504  1
  Al  Al14  1  0.76843096  0.43202052  0.40588744  1
  Al  Al15  1  0.91309690  0.52191616  0.17032184  1
  Al  Al16  1  0.42201414  0.43853737  0.89677960  1
  Al  Al17  1  0.53676875  0.54754176  0.64979695  1
  Al  Al18  1  0.13258924  0.75212916  0.39994233  1
  Al  Al19  1  0.21552612  0.87687105  0.15069895  1
  Al  Al20  1  0.78038023  0.76076901  0.83753167  1
  Al  Al21  1  0.44643618  0.76109292  0.41623021  1
  Al  Al22  1  0.10973835  0.75881825  0.90293802  1
  Al  Al23  1  0.23161347  0.86788508  0.65040597  1
  Al  Al24  1  0.78527698  0.75129898  0.34839288  1
  Al  Al25  1  0.90918772  0.86429403  0.17296531  1
  Al  Al26  1  0.42084868  0.76630392  0.89509163  1
  Al  Al27  1  0.53732588  0.87795698  0.66930311  1
  Gd  Gd28  1  0.77035464  0.09075858  0.92033760  1
  Gd  Gd29  1  0.89166504  0.19562275  0.62879679  1
  Gd  Gd30  1  0.44497062  0.09387392  0.41299575  1
  Gd  Gd31  1  0.77270359  0.43632521  0.90496464  1
  Gd  Gd32  1  0.90298625  0.53082023  0.62431176  1
  Gd  Gd33  1  0.54446893  0.54014133  0.16060968  1
  Gd  Gd34  1  0.88975236  0.87543909  0.61631801  1
  Gd  Gd35  1  0.56443159  0.87033329  0.11844567  1
  N  N36  1  0.20224981  0.21515363  0.32837403  1
  N  N37  1  0.10909916  0.09375875  0.09740379  1
  N  N38  1  0.91020844  0.19064172  0.84746723  1
  N  N39  1  0.72583464  0.11886518  0.56824125  1
  N  N40  1  0.55218166  0.23460729  0.33386650  1
  N  N41  1  0.42560925  0.12599571  0.08651839  1
  N  N42  1  0.21061881  0.21226031  0.84990646  1
  N  N43  1  0.15091880  0.07686554  0.58081476  1
  N  N44  1  0.89628793  0.20413120  0.36362547  1
  N  N45  1  0.78091896  0.09233576  0.14241131  1
  N  N46  1  0.52643815  0.22724755  0.84100628  1
  N  N47  1  0.44190613  0.09129587  0.63319867  1
  N  N48  1  0.22715909  0.53788273  0.33777529  1
  N  N49  1  0.11225161  0.42824518  0.09539721  1
  N  N50  1  0.90598190  0.54689617  0.84907297  1
  N  N51  1  0.74377795  0.44281442  0.59357647  1
  N  N52  1  0.54724647  0.54467569  0.37563771  1
  N  N53  1  0.42131563  0.42395973  0.08099139  1
  N  N54  1  0.21306532  0.54413643  0.84174771  1
  N  N55  1  0.16236128  0.39925168  0.58057930  1
  N  N56  1  0.90182739  0.52699063  0.36961086  1
  N  N57  1  0.80448838  0.41576129  0.12730905  1
  N  N58  1  0.51890565  0.55533006  0.83870149  1
  N  N59  1  0.44052663  0.42828452  0.59832238  1
  N  N60  1  0.23037267  0.87014554  0.33972413  1
  N  N61  1  0.11156472  0.76287954  0.09658909  1
  N  N62  1  0.90293533  0.85290566  0.84669707  1
  N  N63  1  0.74242804  0.77663441  0.63437375  1
  N  N64  1  0.56790352  0.84379101  0.34809285  1
  N  N65  1  0.40984111  0.77451498  0.07568530  1
  N  N66  1  0.21118769  0.87846126  0.83897754  1
  N  N67  1  0.15275984  0.73970732  0.58280851  1
  N  N68  1  0.90222880  0.86983608  0.36581333  1
  N  N69  1  0.81997028  0.73821838  0.15892340  1
  N  N70  1  0.55210304  0.87262507  0.86375100  1
  N  N71  1  0.44113759  0.76629137  0.60394900  1
