# generated using pymatgen
data_Gd2Al7N9
_symmetry_space_group_name_H-M   'P 1'
_cell_length_a   10.09460118
_cell_length_b   9.88255170
_cell_length_c   10.20839782
_cell_angle_alpha   90.09251717
_cell_angle_beta   90.64695001
_cell_angle_gamma   60.85348623
_symmetry_Int_Tables_number   1
_chemical_formula_structural   Gd2Al7N9
_chemical_formula_sum   'Gd8 Al28 N36'
_cell_volume   889.37655018
_cell_formula_units_Z   4
loop_
 _symmetry_equiv_pos_site_id
 _symmetry_equiv_pos_as_xyz
  1  'x, y, z'
loop_
 _atom_site_type_symbol
 _atom_site_label
 _atom_site_symmetry_multiplicity
 _atom_site_fract_x
 _atom_site_fract_y
 _atom_site_fract_z
 _atom_site_occupancy
  Al  Al0  1  0.12743990  0.08569961  0.40114145  1
  Al  Al1  1  0.21462956  0.21187605  0.14925296  1
  Al  Al2  1  0.52883860  0.22550502  0.15501526  1
  Al  Al3  1  0.11380906  0.09083466  0.90445604  1
  Al  Al4  1  0.22615760  0.20234540  0.66053888  1
  Al  Al5  1  0.77810323  0.09873990  0.34532445  1
  Al  Al6  1  0.91091578  0.19468263  0.16003112  1
  Al  Al7  1  0.41875560  0.11757002  0.90158255  1
  Al  Al8  1  0.52925559  0.22125564  0.66717530  1
  Al  Al9  1  0.13041513  0.41779899  0.40338767  1
  Al  Al10  1  0.21619265  0.53864495  0.15392673  1
  Al  Al11  1  0.45187400  0.42975014  0.41553827  1
  Al  Al12  1  0.10949274  0.43425604  0.90346813  1
  Al  Al13  1  0.22956512  0.53511604  0.65268275  1
  Al  Al14  1  0.78466779  0.42444237  0.34458722  1
  Al  Al15  1  0.91940886  0.52331849  0.15902291  1
  Al  Al16  1  0.41223366  0.44101392  0.90299677  1
  Al  Al17  1  0.52765065  0.55126869  0.66757112  1
  Al  Al18  1  0.13861560  0.74906950  0.40262883  1
  Al  Al19  1  0.21651222  0.87779080  0.15512349  1
  Al  Al20  1  0.78352833  0.75912451  0.83703202  1
  Al  Al21  1  0.45945670  0.75142688  0.41752660  1
  Al  Al22  1  0.11057340  0.75886578  0.90220459  1
  Al  Al23  1  0.23003777  0.86941464  0.65034173  1
  Al  Al24  1  0.79110712  0.74970059  0.33742707  1
  Al  Al25  1  0.91580816  0.85870046  0.16094946  1
  Al  Al26  1  0.41296535  0.77382171  0.90070683  1
  Al  Al27  1  0.53123110  0.88313333  0.67600719  1
  Gd  Gd28  1  0.76669919  0.09272949  0.90431125  1
  Gd  Gd29  1  0.88454818  0.20603542  0.62309415  1
  Gd  Gd30  1  0.45081249  0.08797971  0.40930280  1
  Gd  Gd31  1  0.77032527  0.43728693  0.88864595  1
  Gd  Gd32  1  0.88454113  0.53941882  0.61449475  1
  Gd  Gd33  1  0.53933855  0.54448346  0.14620970  1
  Gd  Gd34  1  0.88704835  0.87494297  0.61410954  1
  Gd  Gd35  1  0.56697013  0.87054242  0.11382205  1
  N  N36  1  0.20388381  0.21449280  0.33398893  1
  N  N37  1  0.11261151  0.09269670  0.09769783  1
  N  N38  1  0.91350047  0.18826285  0.85085461  1
  N  N39  1  0.72713983  0.11755359  0.61338774  1
  N  N40  1  0.56322886  0.22718425  0.33664957  1
  N  N41  1  0.42246280  0.12507068  0.09646276  1
  N  N42  1  0.20961331  0.21197449  0.85148397  1
  N  N43  1  0.14809967  0.07697998  0.58493752  1
  N  N44  1  0.90251374  0.19763663  0.35818707  1
  N  N45  1  0.78617237  0.08881878  0.13995246  1
  N  N46  1  0.51229324  0.23271922  0.85102387  1
  N  N47  1  0.43553349  0.09525283  0.62943244  1
  N  N48  1  0.23270939  0.53404164  0.34278479  1
  N  N49  1  0.11567087  0.42571493  0.09511063  1
  N  N50  1  0.90744576  0.54675550  0.85132547  1
  N  N51  1  0.73517327  0.44872631  0.65679784  1
  N  N52  1  0.56347408  0.53523359  0.36944511  1
  N  N53  1  0.41493586  0.42493171  0.08843387  1
  N  N54  1  0.20985005  0.54581219  0.84308058  1
  N  N55  1  0.14964546  0.40632901  0.58808499  1
  N  N56  1  0.90710844  0.52744671  0.36520263  1
  N  N57  1  0.80523789  0.41588326  0.14374313  1
  N  N58  1  0.50541302  0.56188801  0.85897632  1
  N  N59  1  0.43642793  0.43142715  0.60126220  1
  N  N60  1  0.23618767  0.86678658  0.34393452  1
  N  N61  1  0.11741131  0.75958639  0.09864558  1
  N  N62  1  0.90577433  0.85048187  0.85236416  1
  N  N63  1  0.73573863  0.78295981  0.65208487  1
  N  N64  1  0.57872683  0.83671191  0.34864337  1
  N  N65  1  0.40568686  0.78425753  0.08272583  1
  N  N66  1  0.20970953  0.87948990  0.84033898  1
  N  N67  1  0.15040391  0.74181105  0.58606481  1
  N  N68  1  0.90417570  0.86879772  0.36087372  1
  N  N69  1  0.82314660  0.73720710  0.15024434  1
  N  N70  1  0.54318956  0.87925033  0.87020407  1
  N  N71  1  0.44022483  0.76526043  0.60694341  1
