# generated using pymatgen
data_Gd2Al7N9
_symmetry_space_group_name_H-M   'P 1'
_cell_length_a   10.03522895
_cell_length_b   9.86363259
_cell_length_c   10.37128523
_cell_angle_alpha   90.19950467
_cell_angle_beta   90.14563500
_cell_angle_gamma   60.32911816
_symmetry_Int_Tables_number   1
_chemical_formula_structural   Gd2Al7N9
_chemical_formula_sum   'Gd8 Al28 N36'
_cell_volume   891.98042652
_cell_formula_units_Z   4
loop_
 _symmetry_equiv_pos_site_id
 _symmetry_equiv_pos_as_xyz
  1  'x, y, z'
loop_
 _atom_site_type_symbol
 _atom_site_label
 _atom_site_symmetry_multiplicity
 _atom_site_fract_x
 _atom_site_fract_y
 _atom_site_fract_z
 _atom_site_occupancy
  Al  Al0  1  0.11184780  0.09504041  0.30158294  1
  Al  Al1  1  0.22078157  0.20995758  0.05906927  1
  Al  Al2  1  0.54070302  0.21225506  0.13127058  1
  Al  Al3  1  0.12281338  0.08744232  0.81676140  1
  Al  Al4  1  0.21968403  0.20563890  0.56910448  1
  Al  Al5  1  0.78898693  0.09070060  0.28349228  1
  Al  Al6  1  0.90898202  0.20244513  0.06635971  1
  Al  Al7  1  0.41925068  0.10878729  0.80908884  1
  Al  Al8  1  0.53909018  0.21870243  0.62986843  1
  Al  Al9  1  0.11074267  0.42648391  0.30094082  1
  Al  Al10  1  0.21571772  0.53832208  0.05918293  1
  Al  Al11  1  0.43725232  0.43325946  0.31551430  1
  Al  Al12  1  0.12576673  0.42591281  0.81509396  1
  Al  Al13  1  0.23162822  0.53661418  0.55910204  1
  Al  Al14  1  0.78532644  0.42805745  0.29110470  1
  Al  Al15  1  0.91094913  0.53125704  0.05752789  1
  Al  Al16  1  0.41645350  0.45036084  0.80029715  1
  Al  Al17  1  0.54713191  0.54423384  0.54761259  1
  Al  Al18  1  0.11581228  0.76028650  0.30234350  1
  Al  Al19  1  0.21186623  0.87701172  0.05911646  1
  Al  Al20  1  0.79746304  0.75153302  0.81786681  1
  Al  Al21  1  0.44065000  0.76038373  0.30984621  1
  Al  Al22  1  0.12098020  0.75507344  0.81311214  1
  Al  Al23  1  0.23293277  0.86795521  0.56199008  1
  Al  Al24  1  0.79066092  0.75060165  0.28516772  1
  Al  Al25  1  0.90795623  0.85522401  0.05917182  1
  Al  Al26  1  0.42286546  0.76270998  0.80328514  1
  Al  Al27  1  0.54954002  0.87095680  0.63418864  1
  Gd  Gd28  1  0.76300497  0.09951564  0.85148957  1
  Gd  Gd29  1  0.89500848  0.19796785  0.54566213  1
  Gd  Gd30  1  0.44891044  0.08671696  0.35462171  1
  Gd  Gd31  1  0.77254659  0.43581802  0.81816027  1
  Gd  Gd32  1  0.90040466  0.53570640  0.55122341  1
  Gd  Gd33  1  0.54264595  0.53556622  0.07231354  1
  Gd  Gd34  1  0.88893203  0.87340606  0.55804982  1
  Gd  Gd35  1  0.55164699  0.87363636  0.06733806  1
  N  N36  1  0.18093068  0.22545614  0.38421027  1
  N  N37  1  0.11992978  0.09213253  0.11706596  1
  N  N38  1  0.92262743  0.19186680  0.88150176  1
  N  N39  1  0.75067233  0.11091424  0.62502174  1
  N  N40  1  0.57856069  0.21347396  0.31806519  1
  N  N41  1  0.42227279  0.11858690  0.12012890  1
  N  N42  1  0.21821139  0.20728891  0.87243514  1
  N  N43  1  0.14104917  0.07763707  0.63313432  1
  N  N44  1  0.89157486  0.20308054  0.32474909  1
  N  N45  1  0.77614212  0.09275356  0.09368906  1
  N  N46  1  0.50598554  0.23451137  0.81719902  1
  N  N47  1  0.43877749  0.09293881  0.60405783  1
  N  N48  1  0.21656339  0.54066389  0.37049589  1
  N  N49  1  0.11681927  0.42374501  0.11523449  1
  N  N50  1  0.91503970  0.54245915  0.86968391  1
  N  N51  1  0.75256592  0.44065663  0.60110014  1
  N  N52  1  0.55338361  0.53886438  0.35456910  1
  N  N53  1  0.41109755  0.42666907  0.13193379  1
  N  N54  1  0.21912624  0.54396567  0.87392290  1
  N  N55  1  0.14724902  0.41330242  0.63209778  1
  N  N56  1  0.89464906  0.53745014  0.33550502  1
  N  N57  1  0.80357055  0.42131326  0.10388314  1
  N  N58  1  0.51725539  0.55630666  0.85746206  1
  N  N59  1  0.43980444  0.43883301  0.60663523  1
  N  N60  1  0.21838624  0.87682292  0.37296750  1
  N  N61  1  0.11535128  0.75927029  0.11617615  1
  N  N62  1  0.91314775  0.84384737  0.87065942  1
  N  N63  1  0.76052315  0.76775545  0.63880239  1
  N  N64  1  0.58178960  0.83435524  0.32160593  1
  N  N65  1  0.40436289  0.77762440  0.13115519  1
  N  N66  1  0.22013817  0.87264310  0.87246376  1
  N  N67  1  0.14108204  0.74798437  0.62725252  1
  N  N68  1  0.89306237  0.87247047  0.33551640  1
  N  N69  1  0.81080486  0.74370321  0.10364826  1
  N  N70  1  0.54206190  0.87886368  0.83221810  1
  N  N71  1  0.44268766  0.75850144  0.61442692  1
