# generated using pymatgen
data_Gd2Al7N9
_symmetry_space_group_name_H-M   'P 1'
_cell_length_a   10.00314761
_cell_length_b   9.87284842
_cell_length_c   10.45237771
_cell_angle_alpha   90.19104600
_cell_angle_beta   90.46628753
_cell_angle_gamma   60.66800724
_symmetry_Int_Tables_number   1
_chemical_formula_structural   Gd2Al7N9
_chemical_formula_sum   'Gd8 Al28 N36'
_cell_volume   899.90061413
_cell_formula_units_Z   4
loop_
 _symmetry_equiv_pos_site_id
 _symmetry_equiv_pos_as_xyz
  1  'x, y, z'
loop_
 _atom_site_type_symbol
 _atom_site_label
 _atom_site_symmetry_multiplicity
 _atom_site_fract_x
 _atom_site_fract_y
 _atom_site_fract_z
 _atom_site_occupancy
  Al  Al0  1  0.12502944  0.08737537  0.38750814  1
  Al  Al1  1  0.21402800  0.21386176  0.14213333  1
  Al  Al2  1  0.53568261  0.22203941  0.13807141  1
  Al  Al3  1  0.11696622  0.09271352  0.89472062  1
  Al  Al4  1  0.22857858  0.19928673  0.64756158  1
  Al  Al5  1  0.78959003  0.09020078  0.30272692  1
  Al  Al6  1  0.90583111  0.19843933  0.10853766  1
  Al  Al7  1  0.41731907  0.11716438  0.89530498  1
  Al  Al8  1  0.52688879  0.22066210  0.66088116  1
  Al  Al9  1  0.12645757  0.41887299  0.39188810  1
  Al  Al10  1  0.22057756  0.52963230  0.14601296  1
  Al  Al11  1  0.45570616  0.42680072  0.40070865  1
  Al  Al12  1  0.11781977  0.42517503  0.89299667  1
  Al  Al13  1  0.23184070  0.52627103  0.64055625  1
  Al  Al14  1  0.79896453  0.42180064  0.31877196  1
  Al  Al15  1  0.90947778  0.53348197  0.07659923  1
  Al  Al16  1  0.40676678  0.44399743  0.89372674  1
  Al  Al17  1  0.52209286  0.55493129  0.65364299  1
  Al  Al18  1  0.11943321  0.75829766  0.32387412  1
  Al  Al19  1  0.21939467  0.88190002  0.14608793  1
  Al  Al20  1  0.78847355  0.75733093  0.84064673  1
  Al  Al21  1  0.46252232  0.75105326  0.40522668  1
  Al  Al22  1  0.11489033  0.75784851  0.81869628  1
  Al  Al23  1  0.23060430  0.87673222  0.63923400  1
  Al  Al24  1  0.80189700  0.74208002  0.31078104  1
  Al  Al25  1  0.91998083  0.84764878  0.07669988  1
  Al  Al26  1  0.41066372  0.77660674  0.89124370  1
  Al  Al27  1  0.53856007  0.88086752  0.67060941  1
  Gd  Gd28  1  0.76218425  0.09374848  0.87014642  1
  Gd  Gd29  1  0.87481299  0.21233354  0.59324282  1
  Gd  Gd30  1  0.45485862  0.08740306  0.39545794  1
  Gd  Gd31  1  0.75311926  0.44223512  0.86802825  1
  Gd  Gd32  1  0.88174655  0.54118598  0.59457546  1
  Gd  Gd33  1  0.53783773  0.54575789  0.14204156  1
  Gd  Gd34  1  0.88168271  0.87579448  0.57444627  1
  Gd  Gd35  1  0.56283079  0.87267153  0.10663034  1
  N  N36  1  0.20541900  0.21423239  0.32292155  1
  N  N37  1  0.11917044  0.09186090  0.08405351  1
  N  N38  1  0.91081205  0.19492971  0.86450681  1
  N  N39  1  0.73856467  0.10844821  0.64579303  1
  N  N40  1  0.57055283  0.22275659  0.31855779  1
  N  N41  1  0.42222712  0.12652330  0.08388906  1
  N  N42  1  0.21070319  0.21031393  0.83452743  1
  N  N43  1  0.14151376  0.08189480  0.57180225  1
  N  N44  1  0.90168070  0.19690611  0.34672179  1
  N  N45  1  0.78468724  0.08871012  0.11343339  1
  N  N46  1  0.50183640  0.23767300  0.83984421  1
  N  N47  1  0.44251603  0.09004867  0.61303654  1
  N  N48  1  0.23520027  0.52837434  0.33386997  1
  N  N49  1  0.12251910  0.42100854  0.08039903  1
  N  N50  1  0.90040544  0.54857705  0.88755534  1
  N  N51  1  0.73471980  0.45051342  0.65162308  1
  N  N52  1  0.56822688  0.53338239  0.35771510  1
  N  N53  1  0.41864303  0.42384228  0.07477973  1
  N  N54  1  0.20844281  0.53701855  0.82633950  1
  N  N55  1  0.14802081  0.40348400  0.57636461  1
  N  N56  1  0.90311740  0.53224337  0.37170321  1
  N  N57  1  0.80491858  0.41973110  0.12551698  1
  N  N58  1  0.48982576  0.56955903  0.83850325  1
  N  N59  1  0.44009057  0.42707966  0.58405206  1
  N  N60  1  0.23924669  0.86896997  0.33437572  1
  N  N61  1  0.12162478  0.75651196  0.13718172  1
  N  N62  1  0.91681996  0.83857881  0.89284669  1
  N  N63  1  0.75094412  0.77769157  0.66417192  1
  N  N64  1  0.58303333  0.83584787  0.33363524  1
  N  N65  1  0.40628092  0.78128873  0.06830381  1
  N  N66  1  0.21183310  0.88904852  0.82577023  1
  N  N67  1  0.13412686  0.74966520  0.63027318  1
  N  N68  1  0.89522687  0.87249831  0.35568262  1
  N  N69  1  0.82368025  0.73683518  0.13100165  1
  N  N70  1  0.54173371  0.88199949  0.86199201  1
  N  N71  1  0.44317329  0.76682080  0.59199984  1
