# generated using pymatgen
data_Gd2Al7N9
_symmetry_space_group_name_H-M   'P 1'
_cell_length_a   9.96111425
_cell_length_b   9.85647915
_cell_length_c   10.28864519
_cell_angle_alpha   90.05125805
_cell_angle_beta   89.86402753
_cell_angle_gamma   60.51114591
_symmetry_Int_Tables_number   1
_chemical_formula_structural   Gd2Al7N9
_chemical_formula_sum   'Gd8 Al28 N36'
_cell_volume   879.28576301
_cell_formula_units_Z   4
loop_
 _symmetry_equiv_pos_site_id
 _symmetry_equiv_pos_as_xyz
  1  'x, y, z'
loop_
 _atom_site_type_symbol
 _atom_site_label
 _atom_site_symmetry_multiplicity
 _atom_site_fract_x
 _atom_site_fract_y
 _atom_site_fract_z
 _atom_site_occupancy
  Al  Al0  1  0.12263777  0.08946680  0.39677424  1
  Al  Al1  1  0.21435890  0.21323725  0.14512661  1
  Al  Al2  1  0.53414200  0.22333015  0.15447099  1
  Al  Al3  1  0.11411653  0.09067308  0.90700975  1
  Al  Al4  1  0.23110325  0.19886654  0.66134670  1
  Al  Al5  1  0.76659275  0.10637204  0.38022878  1
  Al  Al6  1  0.90168083  0.20234153  0.17302766  1
  Al  Al7  1  0.42864065  0.11287365  0.89272404  1
  Al  Al8  1  0.53884279  0.21749202  0.65817458  1
  Al  Al9  1  0.12527419  0.42033125  0.39726190  1
  Al  Al10  1  0.21631386  0.53969071  0.14943921  1
  Al  Al11  1  0.43947222  0.43390697  0.41330598  1
  Al  Al12  1  0.11234532  0.43270655  0.90792431  1
  Al  Al13  1  0.23364025  0.53352615  0.65166411  1
  Al  Al14  1  0.76947548  0.43299099  0.40549010  1
  Al  Al15  1  0.90882652  0.52805536  0.16934452  1
  Al  Al16  1  0.42231984  0.43854762  0.89686036  1
  Al  Al17  1  0.53743663  0.54697063  0.64920069  1
  Al  Al18  1  0.12981719  0.75265398  0.39908620  1
  Al  Al19  1  0.21472991  0.87671062  0.15035874  1
  Al  Al20  1  0.79347880  0.75342406  0.90067929  1
  Al  Al21  1  0.44479184  0.76089416  0.41626787  1
  Al  Al22  1  0.11148950  0.75846609  0.90341820  1
  Al  Al23  1  0.23248558  0.86804745  0.65027418  1
  Al  Al24  1  0.77391605  0.75660971  0.39025095  1
  Al  Al25  1  0.90539695  0.86230943  0.17164354  1
  Al  Al26  1  0.42322860  0.76579824  0.89338919  1
  Al  Al27  1  0.55003911  0.87158724  0.66571170  1
  Gd  Gd28  1  0.77041558  0.09110038  0.92088073  1
  Gd  Gd29  1  0.89321414  0.19579374  0.62800662  1
  Gd  Gd30  1  0.44445110  0.09395698  0.41478054  1
  Gd  Gd31  1  0.77251214  0.43512220  0.90495171  1
  Gd  Gd32  1  0.90091704  0.53714112  0.63072006  1
  Gd  Gd33  1  0.54414507  0.54119215  0.16059053  1
  Gd  Gd34  1  0.88779418  0.87454506  0.62392400  1
  Gd  Gd35  1  0.55791318  0.87381433  0.12562458  1
  N  N36  1  0.20242430  0.21537136  0.32857937  1
  N  N37  1  0.10916202  0.09377621  0.09757752  1
  N  N38  1  0.91063561  0.18983987  0.84714613  1
  N  N39  1  0.72804871  0.11765671  0.56879550  1
  N  N40  1  0.55181705  0.23388751  0.33426809  1
  N  N41  1  0.42479676  0.12758570  0.08455218  1
  N  N42  1  0.21115888  0.21165361  0.84988273  1
  N  N43  1  0.15270892  0.07598197  0.58027480  1
  N  N44  1  0.89651169  0.20412307  0.36398167  1
  N  N45  1  0.78020434  0.09320737  0.14253663  1
  N  N46  1  0.52727232  0.22782267  0.84092424  1
  N  N47  1  0.44457373  0.08934956  0.63572121  1
  N  N48  1  0.22709904  0.53783346  0.33799173  1
  N  N49  1  0.11153528  0.42890720  0.09608637  1
  N  N50  1  0.90609487  0.54726927  0.85029784  1
  N  N51  1  0.74602435  0.44388571  0.59421331  1
  N  N52  1  0.54761697  0.54426480  0.37615234  1
  N  N53  1  0.42158876  0.42424645  0.08112572  1
  N  N54  1  0.21308514  0.54398403  0.84140984  1
  N  N55  1  0.15933207  0.39975504  0.58063629  1
  N  N56  1  0.89979149  0.53201334  0.36379004  1
  N  N57  1  0.80409299  0.41593554  0.12693564  1
  N  N58  1  0.51928427  0.55455623  0.83806409  1
  N  N59  1  0.44010023  0.42827329  0.59787819  1
  N  N60  1  0.22943415  0.86976648  0.33970675  1
  N  N61  1  0.11116342  0.76282774  0.09695141  1
  N  N62  1  0.90262976  0.85085429  0.84778551  1
  N  N63  1  0.73970553  0.77857240  0.57670862  1
  N  N64  1  0.56291399  0.84513292  0.34381119  1
  N  N65  1  0.40887170  0.77467975  0.07363535  1
  N  N66  1  0.21178840  0.87832607  0.83862342  1
  N  N67  1  0.14990696  0.74167334  0.58260527  1
  N  N68  1  0.89945496  0.86674219  0.36124836  1
  N  N69  1  0.81685180  0.74047089  0.11705575  1
  N  N70  1  0.56286926  0.86620187  0.86023501  1
  N  N71  1  0.44308938  0.76568669  0.60473154  1
