# generated using pymatgen
data_Gd2Al7N9
_symmetry_space_group_name_H-M   'P 1'
_cell_length_a   9.89099098
_cell_length_b   9.82543595
_cell_length_c   10.80743742
_cell_angle_alpha   90.01544530
_cell_angle_beta   89.47609463
_cell_angle_gamma   60.17138697
_symmetry_Int_Tables_number   1
_chemical_formula_structural   Gd2Al7N9
_chemical_formula_sum   'Gd8 Al28 N36'
_cell_volume   911.10322701
_cell_formula_units_Z   4
loop_
 _symmetry_equiv_pos_site_id
 _symmetry_equiv_pos_as_xyz
  1  'x, y, z'
loop_
 _atom_site_type_symbol
 _atom_site_label
 _atom_site_symmetry_multiplicity
 _atom_site_fract_x
 _atom_site_fract_y
 _atom_site_fract_z
 _atom_site_occupancy
  Al  Al0  1  0.12163259  0.08413923  0.35827841  1
  Al  Al1  1  0.22031423  0.20801694  0.14266370  1
  Al  Al2  1  0.53969942  0.21767338  0.13704272  1
  Al  Al3  1  0.11192501  0.10090702  0.90448294  1
  Al  Al4  1  0.22562061  0.19450082  0.66093895  1
  Al  Al5  1  0.79026435  0.08756670  0.29584745  1
  Al  Al6  1  0.89766702  0.20410176  0.08877129  1
  Al  Al7  1  0.41806622  0.11550008  0.89756531  1
  Al  Al8  1  0.52654629  0.21907797  0.66144276  1
  Al  Al9  1  0.11710024  0.43356005  0.31570034  1
  Al  Al10  1  0.21072776  0.54176448  0.06964182  1
  Al  Al11  1  0.46512025  0.42096668  0.40372639  1
  Al  Al12  1  0.11431520  0.43679510  0.82929733  1
  Al  Al13  1  0.22902572  0.53495758  0.57688985  1
  Al  Al14  1  0.80301175  0.41985916  0.30996484  1
  Al  Al15  1  0.91321974  0.53245448  0.07557889  1
  Al  Al16  1  0.41777558  0.44051093  0.89162743  1
  Al  Al17  1  0.52662601  0.55219784  0.65176089  1
  Al  Al18  1  0.12370601  0.75485784  0.31993645  1
  Al  Al19  1  0.20762041  0.87249707  0.06992852  1
  Al  Al20  1  0.78824178  0.75697959  0.83929423  1
  Al  Al21  1  0.47372862  0.74337661  0.40948136  1
  Al  Al22  1  0.11854447  0.75648795  0.82454328  1
  Al  Al23  1  0.22862606  0.87140054  0.57283341  1
  Al  Al24  1  0.80129908  0.74575849  0.30752994  1
  Al  Al25  1  0.90997891  0.85494786  0.07463684  1
  Al  Al26  1  0.41806563  0.77221875  0.88985598  1
  Al  Al27  1  0.54060820  0.87858033  0.67112144  1
  Gd  Gd28  1  0.76318157  0.09773280  0.86142259  1
  Gd  Gd29  1  0.86572059  0.21574618  0.56274791  1
  Gd  Gd30  1  0.45262871  0.08988200  0.40279851  1
  Gd  Gd31  1  0.75590797  0.44852820  0.85936355  1
  Gd  Gd32  1  0.88854020  0.53692824  0.57823162  1
  Gd  Gd33  1  0.53597854  0.54129994  0.15249598  1
  Gd  Gd34  1  0.88833822  0.87111253  0.57469683  1
  Gd  Gd35  1  0.55822687  0.87203109  0.11566702  1
  N  N36  1  0.21195737  0.20776605  0.32084214  1
  N  N37  1  0.12058644  0.09105867  0.09863066  1
  N  N38  1  0.90049594  0.20604949  0.91232711  1
  N  N39  1  0.74584310  0.10451514  0.64856817  1
  N  N40  1  0.56600795  0.22401770  0.31462206  1
  N  N41  1  0.42445924  0.12631932  0.07642519  1
  N  N42  1  0.21014731  0.20659050  0.84228101  1
  N  N43  1  0.12745364  0.09196159  0.58630900  1
  N  N44  1  0.89902861  0.19600565  0.34292796  1
  N  N45  1  0.78099091  0.08639009  0.11549450  1
  N  N46  1  0.49868537  0.23744262  0.83325846  1
  N  N47  1  0.44057971  0.09038099  0.61399985  1
  N  N48  1  0.22416328  0.53821405  0.38824739  1
  N  N49  1  0.11799956  0.43138334  0.13619507  1
  N  N50  1  0.90718628  0.54872792  0.89666823  1
  N  N51  1  0.74693337  0.44377011  0.65195961  1
  N  N52  1  0.57635109  0.52771876  0.36210068  1
  N  N53  1  0.43233733  0.41582832  0.06780249  1
  N  N54  1  0.20164044  0.55296530  0.89289462  1
  N  N55  1  0.13882117  0.42143812  0.65070788  1
  N  N56  1  0.90287448  0.53279470  0.36480115  1
  N  N57  1  0.80258986  0.42395378  0.12909962  1
  N  N58  1  0.49038159  0.57020731  0.82646685  1
  N  N59  1  0.45168506  0.41905559  0.58047754  1
  N  N60  1  0.23421402  0.85874362  0.38437011  1
  N  N61  1  0.12180419  0.75468977  0.13897433  1
  N  N62  1  0.90818883  0.84428132  0.89510964  1
  N  N63  1  0.75904579  0.76975192  0.66584532  1
  N  N64  1  0.57935796  0.83911621  0.33348237  1
  N  N65  1  0.42093681  0.76549897  0.06415227  1
  N  N66  1  0.19755292  0.88389177  0.88687771  1
  N  N67  1  0.14424479  0.74588391  0.64404249  1
  N  N68  1  0.89387254  0.87312994  0.35784610  1
  N  N69  1  0.82024602  0.73971701  0.13233829  1
  N  N70  1  0.54002929  0.88039230  0.85666341  1
  N  N71  1  0.45159891  0.76339577  0.58959839  1
