# generated using pymatgen
data_Gd2Al7N9
_symmetry_space_group_name_H-M   'P 1'
_cell_length_a   10.03910133
_cell_length_b   9.85338076
_cell_length_c   10.49202086
_cell_angle_alpha   90.01021644
_cell_angle_beta   90.06263148
_cell_angle_gamma   60.22658356
_symmetry_Int_Tables_number   1
_chemical_formula_structural   Gd2Al7N9
_chemical_formula_sum   'Gd8 Al28 N36'
_cell_volume   900.85863372
_cell_formula_units_Z   4
loop_
 _symmetry_equiv_pos_site_id
 _symmetry_equiv_pos_as_xyz
  1  'x, y, z'
loop_
 _atom_site_type_symbol
 _atom_site_label
 _atom_site_symmetry_multiplicity
 _atom_site_fract_x
 _atom_site_fract_y
 _atom_site_fract_z
 _atom_site_occupancy
  Al  Al0  1  0.11481457  0.09271671  0.30331434  1
  Al  Al1  1  0.21117268  0.21259738  0.05896359  1
  Al  Al2  1  0.53901070  0.21633415  0.12050242  1
  Al  Al3  1  0.11954005  0.09014961  0.81033615  1
  Al  Al4  1  0.22070207  0.20456242  0.56459252  1
  Al  Al5  1  0.78951168  0.09301412  0.27825423  1
  Al  Al6  1  0.91308857  0.19542710  0.06222645  1
  Al  Al7  1  0.42174884  0.11351741  0.87764333  1
  Al  Al8  1  0.52525653  0.21999184  0.63374231  1
  Al  Al9  1  0.11426878  0.42697199  0.30476482  1
  Al  Al10  1  0.20723191  0.54264479  0.05667089  1
  Al  Al11  1  0.46228054  0.42772863  0.37674171  1
  Al  Al12  1  0.12215272  0.42666075  0.80840756  1
  Al  Al13  1  0.22763686  0.53712149  0.55561481  1
  Al  Al14  1  0.79449661  0.42458678  0.28676970  1
  Al  Al15  1  0.91955195  0.52939391  0.05620632  1
  Al  Al16  1  0.41368827  0.43450779  0.87434520  1
  Al  Al17  1  0.53087998  0.54507878  0.63850671  1
  Al  Al18  1  0.12071116  0.75778266  0.30200026  1
  Al  Al19  1  0.21083393  0.87800719  0.05392919  1
  Al  Al20  1  0.79513522  0.75490669  0.81797083  1
  Al  Al21  1  0.44803252  0.75651290  0.30770425  1
  Al  Al22  1  0.11819809  0.75568659  0.80728144  1
  Al  Al23  1  0.23394717  0.86859215  0.56327700  1
  Al  Al24  1  0.79963268  0.74754279  0.28548851  1
  Al  Al25  1  0.91266607  0.85625903  0.05562148  1
  Al  Al26  1  0.41762759  0.77125075  0.82087144  1
  Al  Al27  1  0.53859234  0.88623152  0.64950508  1
  Gd  Gd28  1  0.75934147  0.10110814  0.84617251  1
  Gd  Gd29  1  0.88002472  0.20805427  0.54999076  1
  Gd  Gd30  1  0.45588651  0.08582536  0.36147512  1
  Gd  Gd31  1  0.77484852  0.43488292  0.83917145  1
  Gd  Gd32  1  0.88479737  0.54087484  0.55810342  1
  Gd  Gd33  1  0.54992504  0.52668723  0.09790815  1
  Gd  Gd34  1  0.88441818  0.87544320  0.55735454  1
  Gd  Gd35  1  0.56836933  0.86216795  0.07520985  1
  N  N36  1  0.19037462  0.22046271  0.37683735  1
  N  N37  1  0.12072654  0.08955241  0.11957746  1
  N  N38  1  0.92295140  0.18588553  0.88032988  1
  N  N39  1  0.74189798  0.11228080  0.62513496  1
  N  N40  1  0.57093878  0.22404528  0.29846216  1
  N  N41  1  0.42958091  0.11827880  0.06942563  1
  N  N42  1  0.20641381  0.21319752  0.87348355  1
  N  N43  1  0.13266648  0.08328607  0.62737805  1
  N  N44  1  0.89309379  0.20245821  0.32854345  1
  N  N45  1  0.78192280  0.09054209  0.09129563  1
  N  N46  1  0.49666927  0.23480924  0.81073007  1
  N  N47  1  0.44112535  0.09116690  0.58025638  1
  N  N48  1  0.22059896  0.54067208  0.36619062  1
  N  N49  1  0.12160533  0.42106163  0.12112760  1
  N  N50  1  0.91419022  0.54653501  0.87021540  1
  N  N51  1  0.74495233  0.44354290  0.62507590  1
  N  N52  1  0.56634799  0.53370175  0.32019953  1
  N  N53  1  0.42057201  0.41269294  0.05462716  1
  N  N54  1  0.20151157  0.55138100  0.87206991  1
  N  N55  1  0.14093740  0.41562971  0.62634296  1
  N  N56  1  0.89724278  0.53573037  0.34150662  1
  N  N57  1  0.81460014  0.41620452  0.09777709  1
  N  N58  1  0.51027614  0.55057151  0.83162046  1
  N  N59  1  0.44749947  0.42668515  0.56135039  1
  N  N60  1  0.23019021  0.87047590  0.37122703  1
  N  N61  1  0.11894757  0.75910265  0.11709621  1
  N  N62  1  0.91025266  0.84761988  0.86929468  1
  N  N63  1  0.75248981  0.77483925  0.64240114  1
  N  N64  1  0.58406125  0.83688436  0.30668667  1
  N  N65  1  0.40964849  0.77552392  0.10765935  1
  N  N66  1  0.21080645  0.87727368  0.87039447  1
  N  N67  1  0.14020490  0.74716936  0.62355591  1
  N  N68  1  0.89347408  0.87555769  0.33682017  1
  N  N69  1  0.82699382  0.73706955  0.10727274  1
  N  N70  1  0.54226295  0.88335046  0.84230084  1
  N  N71  1  0.43525080  0.76899416  0.63169174  1
