# generated using pymatgen
data_Gd2Al7N9
_symmetry_space_group_name_H-M   'P 1'
_cell_length_a   10.09027781
_cell_length_b   9.85978279
_cell_length_c   10.27197252
_cell_angle_alpha   90.01985273
_cell_angle_beta   90.79580728
_cell_angle_gamma   60.74769827
_symmetry_Int_Tables_number   1
_chemical_formula_structural   Gd2Al7N9
_chemical_formula_sum   'Gd8 Al28 N36'
_cell_volume   891.50599754
_cell_formula_units_Z   4
loop_
 _symmetry_equiv_pos_site_id
 _symmetry_equiv_pos_as_xyz
  1  'x, y, z'
loop_
 _atom_site_type_symbol
 _atom_site_label
 _atom_site_symmetry_multiplicity
 _atom_site_fract_x
 _atom_site_fract_y
 _atom_site_fract_z
 _atom_site_occupancy
  Al  Al0  1  0.12681744  0.08611611  0.39878648  1
  Al  Al1  1  0.21242450  0.21467085  0.15067736  1
  Al  Al2  1  0.53101087  0.22442468  0.15129644  1
  Al  Al3  1  0.11413727  0.09099363  0.90159676  1
  Al  Al4  1  0.22858028  0.19923823  0.65799219  1
  Al  Al5  1  0.78621848  0.08914404  0.32297142  1
  Al  Al6  1  0.91180243  0.19765041  0.15312324  1
  Al  Al7  1  0.41688713  0.11612810  0.90600727  1
  Al  Al8  1  0.52464171  0.22159378  0.67089231  1
  Al  Al9  1  0.12518005  0.42077505  0.40320436  1
  Al  Al10  1  0.21682849  0.53828226  0.15619020  1
  Al  Al11  1  0.45564738  0.42775226  0.41210188  1
  Al  Al12  1  0.11871847  0.42754852  0.90181016  1
  Al  Al13  1  0.23097998  0.53473895  0.64899365  1
  Al  Al14  1  0.79392336  0.42935229  0.33508723  1
  Al  Al15  1  0.91138123  0.53453120  0.08893003  1
  Al  Al16  1  0.40751489  0.44366812  0.90388100  1
  Al  Al17  1  0.52591754  0.55244031  0.66531795  1
  Al  Al18  1  0.13343689  0.75214400  0.39971881  1
  Al  Al19  1  0.21603642  0.87736726  0.15527929  1
  Al  Al20  1  0.78059516  0.76053213  0.85139665  1
  Al  Al21  1  0.46320802  0.75026743  0.41617620  1
  Al  Al22  1  0.11693926  0.75662630  0.90283665  1
  Al  Al23  1  0.22916835  0.87051512  0.64860136  1
  Al  Al24  1  0.80197653  0.74307324  0.32866690  1
  Al  Al25  1  0.90991280  0.85786340  0.10129631  1
  Al  Al26  1  0.41208484  0.77434670  0.90120538  1
  Al  Al27  1  0.53526792  0.88063267  0.67897457  1
  Gd  Gd28  1  0.76115081  0.10121277  0.88548956  1
  Gd  Gd29  1  0.87907540  0.20847367  0.61311696  1
  Gd  Gd30  1  0.45184967  0.08836299  0.40538534  1
  Gd  Gd31  1  0.76240168  0.43277027  0.88161686  1
  Gd  Gd32  1  0.88667708  0.53774004  0.61399117  1
  Gd  Gd33  1  0.54105759  0.54309846  0.14685259  1
  Gd  Gd34  1  0.88205276  0.87519285  0.60165161  1
  Gd  Gd35  1  0.56246647  0.87112279  0.11915948  1
  N  N36  1  0.20267133  0.21597354  0.33395373  1
  N  N37  1  0.11379450  0.09299808  0.09412974  1
  N  N38  1  0.91771402  0.18861037  0.84181380  1
  N  N39  1  0.73209642  0.11196873  0.65268863  1
  N  N40  1  0.56975469  0.22302258  0.33357808  1
  N  N41  1  0.42101043  0.12541401  0.09839801  1
  N  N42  1  0.21082999  0.20987026  0.84765897  1
  N  N43  1  0.14469858  0.07876487  0.58303936  1
  N  N44  1  0.90303582  0.19750232  0.35029434  1
  N  N45  1  0.78567716  0.09071442  0.12961062  1
  N  N46  1  0.50118270  0.23711176  0.85282078  1
  N  N47  1  0.43956092  0.09127804  0.62492371  1
  N  N48  1  0.23294632  0.53365054  0.34368317  1
  N  N49  1  0.12243259  0.42395690  0.09140257  1
  N  N50  1  0.90148085  0.54853620  0.89422780  1
  N  N51  1  0.73475228  0.45068333  0.65914971  1
  N  N52  1  0.56768117  0.53384137  0.36738946  1
  N  N53  1  0.41517374  0.42576044  0.08800790  1
  N  N54  1  0.20602323  0.54804573  0.83753541  1
  N  N55  1  0.15105986  0.40511892  0.58977500  1
  N  N56  1  0.90341494  0.53225886  0.38673905  1
  N  N57  1  0.80760276  0.42024399  0.13681783  1
  N  N58  1  0.49950447  0.56329595  0.85523250  1
  N  N59  1  0.43935859  0.42882443  0.59751046  1
  N  N60  1  0.23647642  0.86696731  0.34319638  1
  N  N61  1  0.12426210  0.75550435  0.09719737  1
  N  N62  1  0.90223331  0.84806682  0.89757080  1
  N  N63  1  0.74439683  0.77709244  0.67108550  1
  N  N64  1  0.58373505  0.83552274  0.34836983  1
  N  N65  1  0.40490929  0.78242474  0.08186844  1
  N  N66  1  0.20957933  0.87923006  0.83794781  1
  N  N67  1  0.14642042  0.74428296  0.58602169  1
  N  N68  1  0.89952696  0.87054783  0.37066885  1
  N  N69  1  0.82225975  0.73764457  0.14520329  1
  N  N70  1  0.53947169  0.88104923  0.87308076  1
  N  N71  1  0.44144235  0.76599877  0.60533031  1
