# generated using pymatgen
data_Gd2Al7N9
_symmetry_space_group_name_H-M   'P 1'
_cell_length_a   10.11441744
_cell_length_b   9.88514989
_cell_length_c   10.20554286
_cell_angle_alpha   90.10506201
_cell_angle_beta   90.74176135
_cell_angle_gamma   60.81334920
_symmetry_Int_Tables_number   1
_chemical_formula_structural   Gd2Al7N9
_chemical_formula_sum   'Gd8 Al28 N36'
_cell_volume   890.73833436
_cell_formula_units_Z   4
loop_
 _symmetry_equiv_pos_site_id
 _symmetry_equiv_pos_as_xyz
  1  'x, y, z'
loop_
 _atom_site_type_symbol
 _atom_site_label
 _atom_site_symmetry_multiplicity
 _atom_site_fract_x
 _atom_site_fract_y
 _atom_site_fract_z
 _atom_site_occupancy
  Al  Al0  1  0.12678572  0.08553938  0.39971476  1
  Al  Al1  1  0.21401774  0.21186148  0.14825999  1
  Al  Al2  1  0.52910512  0.22501992  0.15214644  1
  Al  Al3  1  0.11461708  0.09086446  0.90242471  1
  Al  Al4  1  0.22673557  0.20180756  0.65869971  1
  Al  Al5  1  0.78049271  0.09732321  0.33153556  1
  Al  Al6  1  0.91161463  0.19517019  0.15438116  1
  Al  Al7  1  0.41711321  0.11749896  0.90283420  1
  Al  Al8  1  0.52614226  0.22202509  0.67051197  1
  Al  Al9  1  0.13021571  0.41777963  0.40232991  1
  Al  Al10  1  0.21610236  0.53856644  0.15307776  1
  Al  Al11  1  0.45270000  0.42873478  0.41364749  1
  Al  Al12  1  0.10997262  0.43400122  0.90136327  1
  Al  Al13  1  0.22976001  0.53496532  0.65118269  1
  Al  Al14  1  0.78511888  0.42405695  0.34215293  1
  Al  Al15  1  0.92012384  0.52297700  0.15750587  1
  Al  Al16  1  0.41060714  0.44206184  0.90312761  1
  Al  Al17  1  0.52761744  0.55089621  0.66648739  1
  Al  Al18  1  0.13851607  0.74907613  0.40109797  1
  Al  Al19  1  0.21685078  0.87737180  0.15370967  1
  Al  Al20  1  0.78477847  0.75910012  0.83536845  1
  Al  Al21  1  0.45999299  0.75063851  0.41599267  1
  Al  Al22  1  0.11104563  0.75876141  0.90048438  1
  Al  Al23  1  0.22972789  0.86950873  0.64887308  1
  Al  Al24  1  0.79129051  0.75006329  0.33504309  1
  Al  Al25  1  0.91567769  0.85820090  0.15407124  1
  Al  Al26  1  0.41285516  0.77355137  0.89897533  1
  Al  Al27  1  0.53147282  0.88318182  0.67436944  1
  Gd  Gd28  1  0.76536599  0.09514894  0.89196247  1
  Gd  Gd29  1  0.88309256  0.20762979  0.62081849  1
  Gd  Gd30  1  0.44983000  0.08783011  0.40532139  1
  Gd  Gd31  1  0.77074063  0.43856051  0.88674166  1
  Gd  Gd32  1  0.88478695  0.53986842  0.61273098  1
  Gd  Gd33  1  0.53997471  0.54416286  0.14387010  1
  Gd  Gd34  1  0.88556389  0.87679376  0.61152418  1
  Gd  Gd35  1  0.56734345  0.86941804  0.11174390  1
  N  N36  1  0.20250519  0.21481318  0.33283439  1
  N  N37  1  0.11364601  0.09208253  0.09587425  1
  N  N38  1  0.91544189  0.19128110  0.84953726  1
  N  N39  1  0.73070971  0.11632172  0.64548939  1
  N  N40  1  0.56617798  0.22463200  0.33560648  1
  N  N41  1  0.42197506  0.12407703  0.09776796  1
  N  N42  1  0.21018042  0.21130702  0.84975301  1
  N  N43  1  0.14722602  0.07731633  0.58381066  1
  N  N44  1  0.90209951  0.19697245  0.35539822  1
  N  N45  1  0.78657198  0.08904134  0.13517529  1
  N  N46  1  0.50608910  0.23481191  0.85381003  1
  N  N47  1  0.43621270  0.09510161  0.62565034  1
  N  N48  1  0.23272584  0.53349711  0.34190260  1
  N  N49  1  0.11592177  0.42553653  0.09342699  1
  N  N50  1  0.90832831  0.54662004  0.84871518  1
  N  N51  1  0.73463478  0.45038406  0.65435775  1
  N  N52  1  0.56381020  0.53437457  0.36732182  1
  N  N53  1  0.41442137  0.42561510  0.08882912  1
  N  N54  1  0.20962876  0.54625861  0.84149100  1
  N  N55  1  0.14984075  0.40624327  0.58690640  1
  N  N56  1  0.90732509  0.52750608  0.36322616  1
  N  N57  1  0.80577987  0.41617682  0.14158332  1
  N  N58  1  0.50522791  0.56117912  0.85788918  1
  N  N59  1  0.43735963  0.43002690  0.59961515  1
  N  N60  1  0.23624833  0.86648708  0.34265932  1
  N  N61  1  0.11830610  0.75894612  0.09718557  1
  N  N62  1  0.90710885  0.84899514  0.85270446  1
  N  N63  1  0.73589724  0.78359114  0.65033787  1
  N  N64  1  0.57921879  0.83576841  0.34676588  1
  N  N65  1  0.40560860  0.78405039  0.08122053  1
  N  N66  1  0.20990988  0.87927823  0.83875490  1
  N  N67  1  0.14938812  0.74215013  0.58489835  1
  N  N68  1  0.90283651  0.87039679  0.35850782  1
  N  N69  1  0.82332497  0.73685262  0.14801766  1
  N  N70  1  0.54260377  0.87937672  0.86864723  1
  N  N71  1  0.43997791  0.76519322  0.60545751  1
