# generated using pymatgen
data_Gd2Al7N9
_symmetry_space_group_name_H-M   'P 1'
_cell_length_a   10.00807949
_cell_length_b   9.87044713
_cell_length_c   10.44793786
_cell_angle_alpha   90.18641307
_cell_angle_beta   90.52692462
_cell_angle_gamma   60.66017548
_symmetry_Int_Tables_number   1
_chemical_formula_structural   Gd2Al7N9
_chemical_formula_sum   'Gd8 Al28 N36'
_cell_volume   899.66492183
_cell_formula_units_Z   4
loop_
 _symmetry_equiv_pos_site_id
 _symmetry_equiv_pos_as_xyz
  1  'x, y, z'
loop_
 _atom_site_type_symbol
 _atom_site_label
 _atom_site_symmetry_multiplicity
 _atom_site_fract_x
 _atom_site_fract_y
 _atom_site_fract_z
 _atom_site_occupancy
  Al  Al0  1  0.12623157  0.08663205  0.38748347  1
  Al  Al1  1  0.21375179  0.21405636  0.14073145  1
  Al  Al2  1  0.53567215  0.22193891  0.13795931  1
  Al  Al3  1  0.11370009  0.09426844  0.89199401  1
  Al  Al4  1  0.22874183  0.19915177  0.64758723  1
  Al  Al5  1  0.78686112  0.08801832  0.30443105  1
  Al  Al6  1  0.90926830  0.19781266  0.13682170  1
  Al  Al7  1  0.41793178  0.11684901  0.89503264  1
  Al  Al8  1  0.52683671  0.22057749  0.66099611  1
  Al  Al9  1  0.12612174  0.41889779  0.39196595  1
  Al  Al10  1  0.22042011  0.52976050  0.14598912  1
  Al  Al11  1  0.45539352  0.42686149  0.40119913  1
  Al  Al12  1  0.11800741  0.42532850  0.89287091  1
  Al  Al13  1  0.23173377  0.52648507  0.64035945  1
  Al  Al14  1  0.79531665  0.42642133  0.32106883  1
  Al  Al15  1  0.90930669  0.53368925  0.07667544  1
  Al  Al16  1  0.40735841  0.44360080  0.89373114  1
  Al  Al17  1  0.52213510  0.55498516  0.65428380  1
  Al  Al18  1  0.11950845  0.75831929  0.32377030  1
  Al  Al19  1  0.21844176  0.88239403  0.14467770  1
  Al  Al20  1  0.78747153  0.75787146  0.84082908  1
  Al  Al21  1  0.46215768  0.75128768  0.40532137  1
  Al  Al22  1  0.11492540  0.75818826  0.81857952  1
  Al  Al23  1  0.23083542  0.87660003  0.63913827  1
  Al  Al24  1  0.80165705  0.74214256  0.31115359  1
  Al  Al25  1  0.91945380  0.84828994  0.07677634  1
  Al  Al26  1  0.41149035  0.77629725  0.89123923  1
  Al  Al27  1  0.53843578  0.88073711  0.67067052  1
  Gd  Gd28  1  0.76459127  0.09549255  0.87124743  1
  Gd  Gd29  1  0.87868905  0.21021897  0.60520896  1
  Gd  Gd30  1  0.45365228  0.08749712  0.39600222  1
  Gd  Gd31  1  0.75634636  0.43745904  0.86927439  1
  Gd  Gd32  1  0.88204963  0.54078681  0.59632516  1
  Gd  Gd33  1  0.53757765  0.54610544  0.14101669  1
  Gd  Gd34  1  0.88117619  0.87571594  0.57518332  1
  Gd  Gd35  1  0.56277901  0.87280215  0.10665682  1
  N  N36  1  0.20462215  0.21452446  0.32169362  1
  N  N37  1  0.11446079  0.09418056  0.08178748  1
  N  N38  1  0.91482759  0.19225367  0.83427516  1
  N  N39  1  0.73681070  0.10803549  0.64437426  1
  N  N40  1  0.56966795  0.22254672  0.31911224  1
  N  N41  1  0.42195884  0.12652679  0.08381736  1
  N  N42  1  0.21113367  0.21040232  0.83498236  1
  N  N43  1  0.14378401  0.08083725  0.56962547  1
  N  N44  1  0.90361022  0.19568879  0.33527960  1
  N  N45  1  0.78481899  0.08946701  0.11404259  1
  N  N46  1  0.50354459  0.23684283  0.84033247  1
  N  N47  1  0.44215825  0.09009810  0.61357411  1
  N  N48  1  0.23494904  0.52847944  0.33388430  1
  N  N49  1  0.12224598  0.42153366  0.08015330  1
  N  N50  1  0.90003031  0.54819221  0.88721726  1
  N  N51  1  0.73317142  0.45247296  0.65116357  1
  N  N52  1  0.56777508  0.53353751  0.35741291  1
  N  N53  1  0.41834049  0.42390138  0.07500221  1
  N  N54  1  0.20880115  0.53710650  0.82642631  1
  N  N55  1  0.14850670  0.40311559  0.57618831  1
  N  N56  1  0.90268971  0.53270707  0.37277822  1
  N  N57  1  0.80471741  0.42042718  0.12583809  1
  N  N58  1  0.49216553  0.56826558  0.83974937  1
  N  N59  1  0.43950654  0.42762517  0.58436926  1
  N  N60  1  0.23915276  0.86908030  0.33333205  1
  N  N61  1  0.12117123  0.75668814  0.13696991  1
  N  N62  1  0.91618716  0.83950689  0.89253482  1
  N  N63  1  0.75049536  0.77762604  0.66427587  1
  N  N64  1  0.58295120  0.83587324  0.33385971  1
  N  N65  1  0.40568293  0.78224249  0.06840001  1
  N  N66  1  0.21280949  0.88826265  0.82612576  1
  N  N67  1  0.13406668  0.74991969  0.63024887  1
  N  N68  1  0.89521351  0.87194351  0.35615778  1
  N  N69  1  0.82369320  0.73701126  0.13122632  1
  N  N70  1  0.54203563  0.88179576  0.86225315  1
  N  N71  1  0.44286460  0.76681165  0.59204632  1
