# generated using pymatgen
data_Gd2Al7N9
_symmetry_space_group_name_H-M   'P 1'
_cell_length_a   10.10812874
_cell_length_b   9.87243155
_cell_length_c   10.22672175
_cell_angle_alpha   89.93752956
_cell_angle_beta   90.71120691
_cell_angle_gamma   60.83665120
_symmetry_Int_Tables_number   1
_chemical_formula_structural   Gd2Al7N9
_chemical_formula_sum   'Gd8 Al28 N36'
_cell_volume   891.07443702
_cell_formula_units_Z   4
loop_
 _symmetry_equiv_pos_site_id
 _symmetry_equiv_pos_as_xyz
  1  'x, y, z'
loop_
 _atom_site_type_symbol
 _atom_site_label
 _atom_site_symmetry_multiplicity
 _atom_site_fract_x
 _atom_site_fract_y
 _atom_site_fract_z
 _atom_site_occupancy
  Al  Al0  1  0.12687453  0.08614640  0.39930144  1
  Al  Al1  1  0.21284688  0.21410377  0.15021226  1
  Al  Al2  1  0.52964221  0.22547348  0.15180198  1
  Al  Al3  1  0.11441405  0.09060883  0.90205841  1
  Al  Al4  1  0.22794300  0.20045544  0.65798417  1
  Al  Al5  1  0.78109041  0.09792880  0.33002707  1
  Al  Al6  1  0.91168146  0.19749843  0.15385391  1
  Al  Al7  1  0.41753636  0.11701291  0.90393088  1
  Al  Al8  1  0.52631107  0.22168252  0.67054931  1
  Al  Al9  1  0.12519415  0.42065826  0.40246909  1
  Al  Al10  1  0.21652301  0.53851041  0.15473787  1
  Al  Al11  1  0.45388536  0.42890730  0.41302516  1
  Al  Al12  1  0.11775412  0.42896533  0.90188708  1
  Al  Al13  1  0.23072612  0.53495409  0.65005310  1
  Al  Al14  1  0.79184031  0.42872137  0.33683291  1
  Al  Al15  1  0.91160603  0.53461993  0.09288953  1
  Al  Al16  1  0.40966671  0.44243355  0.90349882  1
  Al  Al17  1  0.52662517  0.55205449  0.66547511  1
  Al  Al18  1  0.13808360  0.74984767  0.40101531  1
  Al  Al19  1  0.21620772  0.87798276  0.15391823  1
  Al  Al20  1  0.78249064  0.75942561  0.84296583  1
  Al  Al21  1  0.46177226  0.75045667  0.41587456  1
  Al  Al22  1  0.11145078  0.75871359  0.90051355  1
  Al  Al23  1  0.22926376  0.86995388  0.64891288  1
  Al  Al24  1  0.79633058  0.74055874  0.33128177  1
  Al  Al25  1  0.91589040  0.85906589  0.15556503  1
  Al  Al26  1  0.41205813  0.77438201  0.90011541  1
  Al  Al27  1  0.53267948  0.88182989  0.67653366  1
  Gd  Gd28  1  0.76694637  0.09132840  0.89103418  1
  Gd  Gd29  1  0.88151731  0.20685752  0.61690598  1
  Gd  Gd30  1  0.45058978  0.08817256  0.40539131  1
  Gd  Gd31  1  0.76294670  0.43246152  0.88296304  1
  Gd  Gd32  1  0.88663638  0.53640128  0.61344872  1
  Gd  Gd33  1  0.54061051  0.54428863  0.14581747  1
  Gd  Gd34  1  0.88387200  0.87332864  0.61043518  1
  Gd  Gd35  1  0.56441486  0.87132487  0.11510966  1
  N  N36  1  0.20248895  0.21592484  0.33413107  1
  N  N37  1  0.11361738  0.09327951  0.09522614  1
  N  N38  1  0.91643931  0.18734305  0.84609784  1
  N  N39  1  0.73093195  0.11340190  0.64472818  1
  N  N40  1  0.56674546  0.22499294  0.33498128  1
  N  N41  1  0.42127879  0.12538760  0.09824078  1
  N  N42  1  0.21047198  0.21081756  0.84841236  1
  N  N43  1  0.14612939  0.07795587  0.58358909  1
  N  N44  1  0.90237866  0.19890831  0.35310676  1
  N  N45  1  0.78651887  0.09043947  0.13415165  1
  N  N46  1  0.50637789  0.23502049  0.85369065  1
  N  N47  1  0.43786050  0.09338562  0.62560092  1
  N  N48  1  0.23271542  0.53393739  0.34291831  1
  N  N49  1  0.12178520  0.42395181  0.09229360  1
  N  N50  1  0.90155133  0.54951706  0.89218561  1
  N  N51  1  0.73503595  0.44923242  0.65866559  1
  N  N52  1  0.56625941  0.53424533  0.36743748  1
  N  N53  1  0.41490237  0.42646370  0.08861206  1
  N  N54  1  0.20873591  0.54627585  0.83960116  1
  N  N55  1  0.15053748  0.40602369  0.58941199  1
  N  N56  1  0.90341696  0.53052744  0.38465827  1
  N  N57  1  0.80701955  0.41971676  0.13765641  1
  N  N58  1  0.50121712  0.56318085  0.85641782  1
  N  N59  1  0.43838469  0.42978612  0.59879844  1
  N  N60  1  0.23648523  0.86713893  0.34259161  1
  N  N61  1  0.11800495  0.75925517  0.09689213  1
  N  N62  1  0.90841677  0.84599392  0.85136496  1
  N  N63  1  0.73876587  0.77603923  0.66065791  1
  N  N64  1  0.58142143  0.83581122  0.34722497  1
  N  N65  1  0.40492507  0.78367572  0.08164777  1
  N  N66  1  0.21004900  0.87935746  0.83861424  1
  N  N67  1  0.14817530  0.74322935  0.58495441  1
  N  N68  1  0.90364699  0.86958495  0.35683976  1
  N  N69  1  0.82252087  0.73818298  0.14621113  1
  N  N70  1  0.54077414  0.88136706  0.87102377  1
  N  N71  1  0.44016313  0.76576263  0.60522733  1
