# generated using pymatgen
data_Gd2Al7N9
_symmetry_space_group_name_H-M   'P 1'
_cell_length_a   10.11488161
_cell_length_b   9.88200760
_cell_length_c   10.20461996
_cell_angle_alpha   90.00660545
_cell_angle_beta   90.72345300
_cell_angle_gamma   60.84826146
_symmetry_Int_Tables_number   1
_chemical_formula_structural   Gd2Al7N9
_chemical_formula_sum   'Gd8 Al28 N36'
_cell_volume   890.71251072
_cell_formula_units_Z   4
loop_
 _symmetry_equiv_pos_site_id
 _symmetry_equiv_pos_as_xyz
  1  'x, y, z'
loop_
 _atom_site_type_symbol
 _atom_site_label
 _atom_site_symmetry_multiplicity
 _atom_site_fract_x
 _atom_site_fract_y
 _atom_site_fract_z
 _atom_site_occupancy
  Al  Al0  1  0.12706394  0.08586612  0.39953205  1
  Al  Al1  1  0.21395048  0.21251936  0.14930709  1
  Al  Al2  1  0.52929509  0.22552011  0.15180817  1
  Al  Al3  1  0.11459037  0.09067532  0.90189457  1
  Al  Al4  1  0.22719684  0.20128921  0.65830698  1
  Al  Al5  1  0.78072078  0.09768879  0.33094832  1
  Al  Al6  1  0.91196499  0.19564325  0.15425272  1
  Al  Al7  1  0.41716085  0.11752066  0.90307014  1
  Al  Al8  1  0.52622504  0.22195621  0.67042677  1
  Al  Al9  1  0.12734044  0.41948385  0.40211059  1
  Al  Al10  1  0.21677958  0.53888748  0.15402191  1
  Al  Al11  1  0.45341935  0.42897431  0.41326209  1
  Al  Al12  1  0.11260421  0.43200999  0.90143317  1
  Al  Al13  1  0.23020371  0.53494201  0.65051624  1
  Al  Al14  1  0.78843455  0.42643018  0.33992663  1
  Al  Al15  1  0.91641824  0.52739359  0.13102772  1
  Al  Al16  1  0.41001585  0.44240358  0.90303917  1
  Al  Al17  1  0.52713535  0.55157721  0.66602992  1
  Al  Al18  1  0.13843902  0.74950046  0.40105404  1
  Al  Al19  1  0.21645974  0.87780533  0.15382237  1
  Al  Al20  1  0.78396727  0.75862185  0.83979776  1
  Al  Al21  1  0.46112789  0.75064926  0.41593536  1
  Al  Al22  1  0.11130390  0.75858426  0.90026278  1
  Al  Al23  1  0.22947848  0.86976891  0.64882648  1
  Al  Al24  1  0.79374544  0.74565716  0.33320506  1
  Al  Al25  1  0.91589301  0.85912604  0.15460713  1
  Al  Al26  1  0.41234614  0.77410285  0.89945037  1
  Al  Al27  1  0.53204856  0.88262163  0.67565627  1
  Gd  Gd28  1  0.76618121  0.09299069  0.89129032  1
  Gd  Gd29  1  0.88224184  0.20691171  0.61852260  1
  Gd  Gd30  1  0.45037417  0.08820884  0.40545116  1
  Gd  Gd31  1  0.76709318  0.43466993  0.88518637  1
  Gd  Gd32  1  0.88569713  0.53800126  0.61482785  1
  Gd  Gd33  1  0.54011725  0.54443461  0.14446650  1
  Gd  Gd34  1  0.88470114  0.87472551  0.61115675  1
  Gd  Gd35  1  0.56522913  0.87094284  0.11328557  1
  N  N36  1  0.20277234  0.21530582  0.33356728  1
  N  N37  1  0.11369612  0.09280046  0.09554650  1
  N  N38  1  0.91621805  0.18845154  0.84737310  1
  N  N39  1  0.73060617  0.11451810  0.64438814  1
  N  N40  1  0.56657998  0.22505289  0.33517306  1
  N  N41  1  0.42156650  0.12504534  0.09803053  1
  N  N42  1  0.21030121  0.21114999  0.84920692  1
  N  N43  1  0.14663700  0.07768008  0.58377861  1
  N  N44  1  0.90230796  0.19796432  0.35414434  1
  N  N45  1  0.78674037  0.08978416  0.13454973  1
  N  N46  1  0.50636116  0.23503844  0.85382637  1
  N  N47  1  0.43687328  0.09439860  0.62580619  1
  N  N48  1  0.23292446  0.53385896  0.34245885  1
  N  N49  1  0.11961392  0.42457847  0.09296280  1
  N  N50  1  0.90480503  0.54681968  0.86692702  1
  N  N51  1  0.73471537  0.44940651  0.65605331  1
  N  N52  1  0.56529432  0.53443723  0.36722235  1
  N  N53  1  0.41463168  0.42624380  0.08871250  1
  N  N54  1  0.20917376  0.54615053  0.84061404  1
  N  N55  1  0.14990726  0.40631518  0.58797694  1
  N  N56  1  0.90582133  0.52900205  0.37147742  1
  N  N57  1  0.80618256  0.41714775  0.13941768  1
  N  N58  1  0.50303708  0.56250606  0.85722681  1
  N  N59  1  0.43779946  0.43002007  0.59919970  1
  N  N60  1  0.23640328  0.86695566  0.34268369  1
  N  N61  1  0.11819302  0.75916084  0.09710151  1
  N  N62  1  0.90780979  0.84740528  0.85216742  1
  N  N63  1  0.73711107  0.77979060  0.65559042  1
  N  N64  1  0.58048839  0.83602646  0.34705256  1
  N  N65  1  0.40508543  0.78399172  0.08161770  1
  N  N66  1  0.21000307  0.87926622  0.83872023  1
  N  N67  1  0.14871846  0.74274227  0.58498869  1
  N  N68  1  0.90321977  0.86997739  0.35733646  1
  N  N69  1  0.82220807  0.73876560  0.14620319  1
  N  N70  1  0.54127919  0.88076443  0.87006906  1
  N  N71  1  0.44002145  0.76560271  0.60536322  1
