# generated using pymatgen
data_Gd2Al7N9
_symmetry_space_group_name_H-M   'P 1'
_cell_length_a   10.03364861
_cell_length_b   9.86685484
_cell_length_c   10.30971246
_cell_angle_alpha   90.11737717
_cell_angle_beta   90.14215318
_cell_angle_gamma   60.29227137
_symmetry_Int_Tables_number   1
_chemical_formula_structural   Gd2Al7N9
_chemical_formula_sum   'Gd8 Al28 N36'
_cell_volume   886.51239324
_cell_formula_units_Z   4
loop_
 _symmetry_equiv_pos_site_id
 _symmetry_equiv_pos_as_xyz
  1  'x, y, z'
loop_
 _atom_site_type_symbol
 _atom_site_label
 _atom_site_symmetry_multiplicity
 _atom_site_fract_x
 _atom_site_fract_y
 _atom_site_fract_z
 _atom_site_occupancy
  Al  Al0  1  0.11053438  0.09498298  0.30141261  1
  Al  Al1  1  0.21953641  0.20963390  0.05813418  1
  Al  Al2  1  0.53183194  0.21517758  0.07604699  1
  Al  Al3  1  0.12389335  0.08749155  0.81710173  1
  Al  Al4  1  0.22082808  0.20604883  0.57006007  1
  Al  Al5  1  0.77704721  0.09693344  0.28591742  1
  Al  Al6  1  0.90715033  0.20338634  0.06889079  1
  Al  Al7  1  0.42339492  0.11201209  0.80915959  1
  Al  Al8  1  0.54819396  0.21682620  0.58324083  1
  Al  Al9  1  0.11007757  0.42728340  0.30195797  1
  Al  Al10  1  0.21664703  0.53747860  0.06050898  1
  Al  Al11  1  0.43961504  0.42722388  0.31694345  1
  Al  Al12  1  0.12581609  0.42604379  0.81578779  1
  Al  Al13  1  0.23201348  0.53621928  0.56061760  1
  Al  Al14  1  0.78443313  0.42948598  0.29154810  1
  Al  Al15  1  0.91110791  0.53150112  0.05763350  1
  Al  Al16  1  0.42154547  0.44282483  0.80356621  1
  Al  Al17  1  0.54711354  0.54409148  0.54852779  1
  Al  Al18  1  0.11534395  0.76084123  0.30279685  1
  Al  Al19  1  0.21164632  0.87712147  0.05900055  1
  Al  Al20  1  0.79729379  0.75194400  0.81843109  1
  Al  Al21  1  0.44035269  0.76073595  0.31105035  1
  Al  Al22  1  0.12242395  0.75369437  0.81387094  1
  Al  Al23  1  0.23288821  0.86822564  0.56218439  1
  Al  Al24  1  0.78971415  0.75143805  0.28596985  1
  Al  Al25  1  0.90675087  0.85604223  0.06059419  1
  Al  Al26  1  0.42342939  0.76221614  0.80342410  1
  Al  Al27  1  0.54950723  0.87258855  0.63404118  1
  Gd  Gd28  1  0.76775000  0.09765277  0.84527729  1
  Gd  Gd29  1  0.89646639  0.19806487  0.54356810  1
  Gd  Gd30  1  0.44416269  0.08945080  0.34465413  1
  Gd  Gd31  1  0.77270066  0.43528253  0.81986044  1
  Gd  Gd32  1  0.90017162  0.53571454  0.55265702  1
  Gd  Gd33  1  0.54197617  0.53561121  0.07444019  1
  Gd  Gd34  1  0.89038723  0.87233798  0.55696950  1
  Gd  Gd35  1  0.55226260  0.87136795  0.06599303  1
  N  N36  1  0.17864054  0.22609150  0.38496285  1
  N  N37  1  0.11975348  0.09202290  0.11679093  1
  N  N38  1  0.92409931  0.19170678  0.88328463  1
  N  N39  1  0.75277938  0.11043354  0.62604793  1
  N  N40  1  0.57654148  0.21516257  0.36192271  1
  N  N41  1  0.42256500  0.11745536  0.11905875  1
  N  N42  1  0.21955678  0.20690954  0.87104793  1
  N  N43  1  0.14170542  0.07774382  0.63272211  1
  N  N44  1  0.88922708  0.20370072  0.32132448  1
  N  N45  1  0.76752962  0.09737030  0.09546609  1
  N  N46  1  0.50962809  0.23310559  0.86078749  1
  N  N47  1  0.44053796  0.09773113  0.60877404  1
  N  N48  1  0.21657311  0.54078852  0.37102708  1
  N  N49  1  0.11724078  0.42319747  0.11543372  1
  N  N50  1  0.91522117  0.54236095  0.86899919  1
  N  N51  1  0.75269497  0.43960751  0.60108390  1
  N  N52  1  0.55231929  0.53896002  0.35424076  1
  N  N53  1  0.41505960  0.41993192  0.13438819  1
  N  N54  1  0.22071153  0.54276841  0.87422504  1
  N  N55  1  0.14724520  0.41378523  0.63226074  1
  N  N56  1  0.89429714  0.53798502  0.33593766  1
  N  N57  1  0.80257316  0.42310549  0.10333830  1
  N  N58  1  0.51733881  0.55616002  0.85839890  1
  N  N59  1  0.44109974  0.43544697  0.61188381  1
  N  N60  1  0.21724960  0.87756730  0.37296936  1
  N  N61  1  0.11567135  0.75887843  0.11620240  1
  N  N62  1  0.91435510  0.84269853  0.87162971  1
  N  N63  1  0.76066624  0.76863694  0.63813825  1
  N  N64  1  0.58129241  0.83474303  0.32261121  1
  N  N65  1  0.40396238  0.77794269  0.13151209  1
  N  N66  1  0.22050165  0.87246408  0.87210961  1
  N  N67  1  0.14187809  0.74748499  0.62711980  1
  N  N68  1  0.89131639  0.87425914  0.33415120  1
  N  N69  1  0.81050678  0.74344733  0.10353678  1
  N  N70  1  0.54276196  0.87869754  0.83182214  1
  N  N71  1  0.44304784  0.75895863  0.61368785  1
