# generated using pymatgen
data_Gd2Al7N9
_symmetry_space_group_name_H-M   'P 1'
_cell_length_a   9.94684700
_cell_length_b   9.84186890
_cell_length_c   10.30772346
_cell_angle_alpha   90.06545053
_cell_angle_beta   89.88293889
_cell_angle_gamma   60.52632785
_symmetry_Int_Tables_number   1
_chemical_formula_structural   Gd2Al7N9
_chemical_formula_sum   'Gd8 Al28 N36'
_cell_volume   878.48260478
_cell_formula_units_Z   4
loop_
 _symmetry_equiv_pos_site_id
 _symmetry_equiv_pos_as_xyz
  1  'x, y, z'
loop_
 _atom_site_type_symbol
 _atom_site_label
 _atom_site_symmetry_multiplicity
 _atom_site_fract_x
 _atom_site_fract_y
 _atom_site_fract_z
 _atom_site_occupancy
  Al  Al0  1  0.12233500  0.08952222  0.39659906  1
  Al  Al1  1  0.21333529  0.21420066  0.14546208  1
  Al  Al2  1  0.53436838  0.22298937  0.15458341  1
  Al  Al3  1  0.11453384  0.09037572  0.90667858  1
  Al  Al4  1  0.23150380  0.19874338  0.66146020  1
  Al  Al5  1  0.76670149  0.10481505  0.37999540  1
  Al  Al6  1  0.90122505  0.20266114  0.17315963  1
  Al  Al7  1  0.43011495  0.11079633  0.89230458  1
  Al  Al8  1  0.53981857  0.21704797  0.65810694  1
  Al  Al9  1  0.12303192  0.42197228  0.39657987  1
  Al  Al10  1  0.21714749  0.53930185  0.14980257  1
  Al  Al11  1  0.43954828  0.43370180  0.41314268  1
  Al  Al12  1  0.11414209  0.43108248  0.90843946  1
  Al  Al13  1  0.23370006  0.53349635  0.65126050  1
  Al  Al14  1  0.77001513  0.43431926  0.40489602  1
  Al  Al15  1  0.90661030  0.53115447  0.16606582  1
  Al  Al16  1  0.42300139  0.43822662  0.89653353  1
  Al  Al17  1  0.53821297  0.54693805  0.64897421  1
  Al  Al18  1  0.12743609  0.75299369  0.39833559  1
  Al  Al19  1  0.21354398  0.87693965  0.15057869  1
  Al  Al20  1  0.80060954  0.74940561  0.91256939  1
  Al  Al21  1  0.44456371  0.76068494  0.41646645  1
  Al  Al22  1  0.11311897  0.75802825  0.90383675  1
  Al  Al23  1  0.23294226  0.86793263  0.65007852  1
  Al  Al24  1  0.77194386  0.75765212  0.39685318  1
  Al  Al25  1  0.90312872  0.86181012  0.16841614  1
  Al  Al26  1  0.42451359  0.76643333  0.89314159  1
  Al  Al27  1  0.55108863  0.87129481  0.66869086  1
  Gd  Gd28  1  0.77067716  0.09120110  0.92080648  1
  Gd  Gd29  1  0.89371863  0.19633513  0.62705452  1
  Gd  Gd30  1  0.44346334  0.09407567  0.41555186  1
  Gd  Gd31  1  0.77245534  0.43434784  0.90513454  1
  Gd  Gd32  1  0.90141987  0.53800422  0.63554220  1
  Gd  Gd33  1  0.54377485  0.54176494  0.16073761  1
  Gd  Gd34  1  0.88823685  0.87441586  0.62931412  1
  Gd  Gd35  1  0.55496437  0.87537990  0.12626150  1
  N  N36  1  0.20147132  0.21611884  0.32852241  1
  N  N37  1  0.10851994  0.09410472  0.09728073  1
  N  N38  1  0.91120083  0.18931214  0.84585433  1
  N  N39  1  0.72954612  0.11616894  0.56864507  1
  N  N40  1  0.55152394  0.23319845  0.33438240  1
  N  N41  1  0.42363390  0.12847668  0.08430708  1
  N  N42  1  0.21209451  0.21089494  0.84969211  1
  N  N43  1  0.15349281  0.07571998  0.57972425  1
  N  N44  1  0.89624224  0.20407928  0.36364882  1
  N  N45  1  0.77932966  0.09348959  0.14194667  1
  N  N46  1  0.52783939  0.22740645  0.84056727  1
  N  N47  1  0.44529445  0.08906862  0.63603339  1
  N  N48  1  0.22712745  0.53774406  0.33798140  1
  N  N49  1  0.11120115  0.42993307  0.09645384  1
  N  N50  1  0.90754567  0.54537318  0.85284985  1
  N  N51  1  0.74715890  0.44499815  0.59336640  1
  N  N52  1  0.54779928  0.54409572  0.37596044  1
  N  N53  1  0.42213131  0.42402950  0.08079662  1
  N  N54  1  0.21372441  0.54351448  0.84093925  1
  N  N55  1  0.15792931  0.40030113  0.58008485  1
  N  N56  1  0.89762326  0.53586087  0.36018370  1
  N  N57  1  0.80355567  0.41641552  0.12642328  1
  N  N58  1  0.51955372  0.55474349  0.83744935  1
  N  N59  1  0.44045082  0.42810139  0.59749046  1
  N  N60  1  0.22855000  0.86979929  0.33960269  1
  N  N61  1  0.11085878  0.76217648  0.09737472  1
  N  N62  1  0.90410895  0.84999492  0.85026735  1
  N  N63  1  0.73999052  0.77891905  0.57877242  1
  N  N64  1  0.56359165  0.84454459  0.34349239  1
  N  N65  1  0.40753740  0.77520988  0.07330798  1
  N  N66  1  0.21259505  0.87801385  0.83823238  1
  N  N67  1  0.14839691  0.74249807  0.58190787  1
  N  N68  1  0.89631152  0.86496304  0.35767766  1
  N  N69  1  0.81569690  0.74148062  0.10070544  1
  N  N70  1  0.56324027  0.86613261  0.86187266  1
  N  N71  1  0.44378107  0.76573442  0.60464073  1
