# generated using pymatgen
data_Gd2Al7N9
_symmetry_space_group_name_H-M   'P 1'
_cell_length_a   9.91151575
_cell_length_b   9.81872932
_cell_length_c   10.70265329
_cell_angle_alpha   90.20354771
_cell_angle_beta   89.28612762
_cell_angle_gamma   60.17389748
_symmetry_Int_Tables_number   1
_chemical_formula_structural   Gd2Al7N9
_chemical_formula_sum   'Gd8 Al28 N36'
_cell_volume   903.47193065
_cell_formula_units_Z   4
loop_
 _symmetry_equiv_pos_site_id
 _symmetry_equiv_pos_as_xyz
  1  'x, y, z'
loop_
 _atom_site_type_symbol
 _atom_site_label
 _atom_site_symmetry_multiplicity
 _atom_site_fract_x
 _atom_site_fract_y
 _atom_site_fract_z
 _atom_site_occupancy
  Al  Al0  1  0.11751262  0.09044796  0.29985980  1
  Al  Al1  1  0.21136510  0.21438888  0.05395587  1
  Al  Al2  1  0.53992967  0.21901286  0.11640998  1
  Al  Al3  1  0.11521115  0.09092865  0.81432662  1
  Al  Al4  1  0.22777785  0.20076646  0.59103611  1
  Al  Al5  1  0.78756610  0.09328094  0.27656367  1
  Al  Al6  1  0.90758322  0.19904717  0.06388162  1
  Al  Al7  1  0.42652895  0.10998148  0.87384861  1
  Al  Al8  1  0.53216814  0.21839083  0.63810912  1
  Al  Al9  1  0.11600654  0.42571543  0.30084470  1
  Al  Al10  1  0.21003815  0.54216241  0.05387051  1
  Al  Al11  1  0.46133615  0.42498482  0.38128316  1
  Al  Al12  1  0.11792567  0.43015661  0.81425225  1
  Al  Al13  1  0.22955793  0.53426884  0.55831176  1
  Al  Al14  1  0.79716552  0.42194701  0.29140119  1
  Al  Al15  1  0.91221628  0.53215027  0.05758676  1
  Al  Al16  1  0.41757101  0.43974219  0.87131524  1
  Al  Al17  1  0.53199872  0.54744657  0.62945724  1
  Al  Al18  1  0.11961399  0.75973291  0.30301043  1
  Al  Al19  1  0.20382522  0.88059419  0.04879721  1
  Al  Al20  1  0.78881831  0.75513614  0.81869716  1
  Al  Al21  1  0.46673465  0.74893625  0.38861237  1
  Al  Al22  1  0.11759146  0.75420528  0.80725074  1
  Al  Al23  1  0.22971907  0.86921027  0.56263046  1
  Al  Al24  1  0.79755257  0.74839116  0.28764370  1
  Al  Al25  1  0.91000676  0.85568656  0.05620841  1
  Al  Al26  1  0.41921858  0.76951435  0.86959931  1
  Al  Al27  1  0.54162373  0.87648208  0.64865335  1
  Gd  Gd28  1  0.76475045  0.09732564  0.84482916  1
  Gd  Gd29  1  0.88831605  0.20294039  0.54622697  1
  Gd  Gd30  1  0.45422624  0.09182479  0.37520938  1
  Gd  Gd31  1  0.76311978  0.44073018  0.83781279  1
  Gd  Gd32  1  0.89232292  0.53477008  0.55594119  1
  Gd  Gd33  1  0.53806461  0.54108194  0.12696394  1
  Gd  Gd34  1  0.88804389  0.87077632  0.55443139  1
  Gd  Gd35  1  0.55821538  0.87109335  0.09420615  1
  N  N36  1  0.19271592  0.21971552  0.37050027  1
  N  N37  1  0.12215178  0.08879611  0.11770338  1
  N  N38  1  0.91690020  0.19469682  0.88697426  1
  N  N39  1  0.75122993  0.10697365  0.62702531  1
  N  N40  1  0.56476886  0.22878808  0.29258235  1
  N  N41  1  0.43102507  0.12307090  0.05760846  1
  N  N42  1  0.20687956  0.21299569  0.87018016  1
  N  N43  1  0.13630807  0.07848581  0.63496873  1
  N  N44  1  0.89257329  0.20139316  0.32792575  1
  N  N45  1  0.78336919  0.08816438  0.09301194  1
  N  N46  1  0.50116096  0.23624619  0.81072741  1
  N  N47  1  0.44688190  0.08771499  0.58939695  1
  N  N48  1  0.21912900  0.54155679  0.36941138  1
  N  N49  1  0.11973358  0.42341299  0.11856384  1
  N  N50  1  0.90698509  0.54778578  0.87612638  1
  N  N51  1  0.75252143  0.43711586  0.62575191  1
  N  N52  1  0.56762482  0.53477162  0.33790440  1
  N  N53  1  0.43012522  0.41657273  0.04849561  1
  N  N54  1  0.20159093  0.55172118  0.87496959  1
  N  N55  1  0.14268172  0.41543124  0.63501344  1
  N  N56  1  0.89672205  0.53712787  0.34205519  1
  N  N57  1  0.80468032  0.42019063  0.10541099  1
  N  N58  1  0.49705190  0.56483594  0.80727765  1
  N  N59  1  0.45115640  0.41946381  0.55966428  1
  N  N60  1  0.22124935  0.87413443  0.37380379  1
  N  N61  1  0.12093935  0.75749176  0.12012876  1
  N  N62  1  0.90724168  0.84388286  0.87430082  1
  N  N63  1  0.75955593  0.76769851  0.64381370  1
  N  N64  1  0.57541363  0.84030915  0.31195819  1
  N  N65  1  0.41723583  0.76870785  0.04477147  1
  N  N66  1  0.19886538  0.88201780  0.86749897  1
  N  N67  1  0.14293767  0.74403761  0.62658895  1
  N  N68  1  0.88841547  0.87761286  0.33735840  1
  N  N69  1  0.82001763  0.74009602  0.11145733  1
  N  N70  1  0.54032315  0.87927490  0.83458185  1
  N  N71  1  0.45233193  0.76094481  0.57064708  1
