# generated using pymatgen
data_Gd2Al7N9
_symmetry_space_group_name_H-M   'P 1'
_cell_length_a   9.91369869
_cell_length_b   9.83697770
_cell_length_c   10.68452278
_cell_angle_alpha   90.39713810
_cell_angle_beta   90.16378963
_cell_angle_gamma   60.40946215
_symmetry_Int_Tables_number   1
_chemical_formula_structural   Gd2Al7N9
_chemical_formula_sum   'Gd8 Al28 N36'
_cell_volume   906.04505967
_cell_formula_units_Z   4
loop_
 _symmetry_equiv_pos_site_id
 _symmetry_equiv_pos_as_xyz
  1  'x, y, z'
loop_
 _atom_site_type_symbol
 _atom_site_label
 _atom_site_symmetry_multiplicity
 _atom_site_fract_x
 _atom_site_fract_y
 _atom_site_fract_z
 _atom_site_occupancy
  Al  Al0  1  0.12765517  0.08432992  0.38762276  1
  Al  Al1  1  0.21907938  0.20737546  0.14370015  1
  Al  Al2  1  0.54063037  0.21958359  0.13841222  1
  Al  Al3  1  0.11847409  0.09059771  0.90198985  1
  Al  Al4  1  0.22560886  0.19639036  0.65352976  1
  Al  Al5  1  0.79508127  0.08869790  0.29759068  1
  Al  Al6  1  0.90166755  0.20106270  0.08247001  1
  Al  Al7  1  0.41581624  0.11727431  0.89643036  1
  Al  Al8  1  0.52482932  0.21985678  0.66113745  1
  Al  Al9  1  0.11825699  0.43114286  0.31855111  1
  Al  Al10  1  0.21080903  0.54354045  0.07287301  1
  Al  Al11  1  0.46781934  0.42116332  0.40126957  1
  Al  Al12  1  0.11203133  0.43235998  0.83661154  1
  Al  Al13  1  0.22855160  0.53149411  0.57092174  1
  Al  Al14  1  0.80374594  0.41684338  0.31116551  1
  Al  Al15  1  0.91206613  0.53239870  0.07861088  1
  Al  Al16  1  0.41631514  0.44098182  0.89302252  1
  Al  Al17  1  0.52434228  0.55234516  0.65172754  1
  Al  Al18  1  0.12125235  0.75208542  0.31986282  1
  Al  Al19  1  0.21939549  0.88099949  0.14697331  1
  Al  Al20  1  0.78872117  0.75616234  0.84025452  1
  Al  Al21  1  0.46256026  0.75088773  0.40616407  1
  Al  Al22  1  0.11724220  0.75161809  0.82201774  1
  Al  Al23  1  0.22897726  0.87511080  0.64341452  1
  Al  Al24  1  0.79968128  0.74669355  0.30660180  1
  Al  Al25  1  0.91419588  0.85370323  0.07481139  1
  Al  Al26  1  0.40968408  0.77647211  0.88981004  1
  Al  Al27  1  0.53960056  0.87882523  0.67120596  1
  Gd  Gd28  1  0.75988603  0.09552719  0.86505642  1
  Gd  Gd29  1  0.86508118  0.21465952  0.57176274  1
  Gd  Gd30  1  0.45737853  0.08881456  0.39946111  1
  Gd  Gd31  1  0.75448460  0.44600433  0.86173763  1
  Gd  Gd32  1  0.88234901  0.53985288  0.57712246  1
  Gd  Gd33  1  0.53651809  0.54769550  0.14847427  1
  Gd  Gd34  1  0.88588520  0.87139974  0.57525451  1
  Gd  Gd35  1  0.55872522  0.87356309  0.10829161  1
  N  N36  1  0.21189971  0.20740932  0.32414362  1
  N  N37  1  0.12331763  0.08930853  0.08735481  1
  N  N38  1  0.90503427  0.19947250  0.90248921  1
  N  N39  1  0.74260450  0.10456832  0.64970376  1
  N  N40  1  0.57200979  0.22240147  0.31576894  1
  N  N41  1  0.42381722  0.12819447  0.07865509  1
  N  N42  1  0.20889787  0.20601170  0.83818938  1
  N  N43  1  0.13583609  0.08164247  0.57250436  1
  N  N44  1  0.90208712  0.19650301  0.35237186  1
  N  N45  1  0.78460855  0.08652957  0.11425968  1
  N  N46  1  0.49656963  0.23897727  0.83439407  1
  N  N47  1  0.44057953  0.08911022  0.61277012  1
  N  N48  1  0.22806895  0.53761097  0.38353468  1
  N  N49  1  0.11851034  0.42907932  0.13340003  1
  N  N50  1  0.90454817  0.54842156  0.89716968  1
  N  N51  1  0.74250925  0.44597847  0.65255431  1
  N  N52  1  0.57438664  0.53144111  0.36024754  1
  N  N53  1  0.43190294  0.41833275  0.07167933  1
  N  N54  1  0.20141401  0.55110566  0.89323730  1
  N  N55  1  0.13606742  0.41700213  0.63727520  1
  N  N56  1  0.90308574  0.53352368  0.36185719  1
  N  N57  1  0.80338474  0.41993519  0.12671061  1
  N  N58  1  0.48945753  0.57039198  0.83021471  1
  N  N59  1  0.45088083  0.41835050  0.57965984  1
  N  N60  1  0.24136293  0.86487300  0.33222650  1
  N  N61  1  0.12046371  0.75470032  0.13884183  1
  N  N62  1  0.91225061  0.84242676  0.89344357  1
  N  N63  1  0.75565986  0.77150227  0.66575498  1
  N  N64  1  0.57965428  0.83831482  0.33202325  1
  N  N65  1  0.40541348  0.77757252  0.06287331  1
  N  N66  1  0.20773523  0.89113990  0.82544284  1
  N  N67  1  0.13983737  0.73807089  0.64043747  1
  N  N68  1  0.89534915  0.87294137  0.35800047  1
  N  N69  1  0.81957205  0.74124789  0.13013024  1
  N  N70  1  0.54116528  0.88109715  0.85983257  1
  N  N71  1  0.44346313  0.76534041  0.59054285  1
