# generated using pymatgen
data_Gd2Al7N9
_symmetry_space_group_name_H-M   'P 1'
_cell_length_a   9.92637566
_cell_length_b   9.82934200
_cell_length_c   10.33777489
_cell_angle_alpha   90.13783212
_cell_angle_beta   89.91291571
_cell_angle_gamma   60.58865474
_symmetry_Int_Tables_number   1
_chemical_formula_structural   Gd2Al7N9
_chemical_formula_sum   'Gd8 Al28 N36'
_cell_volume   878.64848417
_cell_formula_units_Z   4
loop_
 _symmetry_equiv_pos_site_id
 _symmetry_equiv_pos_as_xyz
  1  'x, y, z'
loop_
 _atom_site_type_symbol
 _atom_site_label
 _atom_site_symmetry_multiplicity
 _atom_site_fract_x
 _atom_site_fract_y
 _atom_site_fract_z
 _atom_site_occupancy
  Al  Al0  1  0.12162580  0.08955382  0.39949738  1
  Al  Al1  1  0.21233715  0.21465821  0.14869622  1
  Al  Al2  1  0.53479415  0.22265260  0.15811007  1
  Al  Al3  1  0.11479727  0.08985444  0.90960372  1
  Al  Al4  1  0.23196881  0.19841896  0.66508493  1
  Al  Al5  1  0.76639140  0.10417280  0.38456269  1
  Al  Al6  1  0.90013261  0.20279504  0.17695240  1
  Al  Al7  1  0.43085215  0.11011347  0.89596710  1
  Al  Al8  1  0.54076730  0.21673755  0.66170189  1
  Al  Al9  1  0.12131482  0.42286784  0.39954637  1
  Al  Al10  1  0.21728519  0.53903933  0.15351646  1
  Al  Al11  1  0.43955136  0.43366164  0.41645615  1
  Al  Al12  1  0.11500608  0.43023336  0.91243219  1
  Al  Al13  1  0.23436040  0.53297578  0.65417150  1
  Al  Al14  1  0.76994986  0.43550880  0.40813455  1
  Al  Al15  1  0.90551721  0.53208229  0.16893753  1
  Al  Al16  1  0.42376867  0.43789404  0.89983834  1
  Al  Al17  1  0.53898812  0.54701613  0.65229989  1
  Al  Al18  1  0.12598001  0.75339889  0.40138241  1
  Al  Al19  1  0.21272090  0.87727368  0.15384955  1
  Al  Al20  1  0.80054110  0.74883283  0.91716471  1
  Al  Al21  1  0.44401991  0.76109677  0.42038066  1
  Al  Al22  1  0.11433113  0.75701360  0.90787149  1
  Al  Al23  1  0.23339853  0.86763895  0.65332356  1
  Al  Al24  1  0.77156870  0.75862107  0.40234395  1
  Al  Al25  1  0.90198296  0.86206653  0.17121747  1
  Al  Al26  1  0.42533988  0.76664363  0.89660045  1
  Al  Al27  1  0.55176735  0.87137664  0.67267662  1
  Gd  Gd28  1  0.77137894  0.09082477  0.92415088  1
  Gd  Gd29  1  0.89409989  0.19739543  0.62938883  1
  Gd  Gd30  1  0.44103467  0.09579586  0.41993940  1
  Gd  Gd31  1  0.77263070  0.43287831  0.90936831  1
  Gd  Gd32  1  0.90241393  0.53808748  0.64157332  1
  Gd  Gd33  1  0.54294054  0.54285138  0.16464862  1
  Gd  Gd34  1  0.88946406  0.87484517  0.63581671  1
  Gd  Gd35  1  0.55378348  0.87654106  0.13160865  1
  N  N36  1  0.19975879  0.21693316  0.33109693  1
  N  N37  1  0.10735705  0.09432286  0.09998278  1
  N  N38  1  0.91187700  0.18850654  0.84738448  1
  N  N39  1  0.73055361  0.11558617  0.57224014  1
  N  N40  1  0.55126831  0.23271588  0.33780955  1
  N  N41  1  0.42288068  0.12902718  0.08723505  1
  N  N42  1  0.21262341  0.21041038  0.85280450  1
  N  N43  1  0.15445311  0.07514672  0.58217064  1
  N  N44  1  0.89546427  0.20432975  0.36683532  1
  N  N45  1  0.77840888  0.09363772  0.14431245  1
  N  N46  1  0.52871725  0.22703651  0.84374359  1
  N  N47  1  0.44594993  0.08892680  0.63973593  1
  N  N48  1  0.22674685  0.53777927  0.34122250  1
  N  N49  1  0.11073619  0.43029705  0.09976244  1
  N  N50  1  0.90769647  0.54427629  0.85807470  1
  N  N51  1  0.74774638  0.44617034  0.59580039  1
  N  N52  1  0.54751084  0.54455052  0.37925893  1
  N  N53  1  0.42252054  0.42388615  0.08390778  1
  N  N54  1  0.21436188  0.54276351  0.84375996  1
  N  N55  1  0.15800234  0.39971684  0.58267603  1
  N  N56  1  0.89642239  0.53742120  0.36255404  1
  N  N57  1  0.80272717  0.41641601  0.12985409  1
  N  N58  1  0.52016012  0.55483056  0.84032709  1
  N  N59  1  0.44128015  0.42765713  0.60050222  1
  N  N60  1  0.22781691  0.86993197  0.34252755  1
  N  N61  1  0.11064372  0.76169333  0.10082225  1
  N  N62  1  0.90495591  0.84884972  0.85534344  1
  N  N63  1  0.74174514  0.77872201  0.58397926  1
  N  N64  1  0.56296165  0.84591949  0.34854636  1
  N  N65  1  0.40696279  0.77597291  0.07630803  1
  N  N66  1  0.21322612  0.87742979  0.84118303  1
  N  N67  1  0.14834431  0.74215451  0.58462521  1
  N  N68  1  0.89513987  0.86547198  0.36010823  1
  N  N69  1  0.81416624  0.74195439  0.10340770  1
  N  N70  1  0.56338109  0.86643028  0.86545812  1
  N  N71  1  0.44432773  0.76564779  0.60803373  1
