# generated using pymatgen
data_Gd2Al7N9
_symmetry_space_group_name_H-M   'P 1'
_cell_length_a   9.90633730
_cell_length_b   9.83109181
_cell_length_c   10.74875003
_cell_angle_alpha   90.18030859
_cell_angle_beta   89.76890230
_cell_angle_gamma   60.31767373
_symmetry_Int_Tables_number   1
_chemical_formula_structural   Gd2Al7N9
_chemical_formula_sum   'Gd8 Al28 N36'
_cell_volume   909.43915068
_cell_formula_units_Z   4
loop_
 _symmetry_equiv_pos_site_id
 _symmetry_equiv_pos_as_xyz
  1  'x, y, z'
loop_
 _atom_site_type_symbol
 _atom_site_label
 _atom_site_symmetry_multiplicity
 _atom_site_fract_x
 _atom_site_fract_y
 _atom_site_fract_z
 _atom_site_occupancy
  Al  Al0  1  0.12524165  0.08549489  0.38774930  1
  Al  Al1  1  0.21892085  0.20621504  0.14548887  1
  Al  Al2  1  0.53949079  0.21895347  0.13822794  1
  Al  Al3  1  0.11233545  0.09949617  0.90056429  1
  Al  Al4  1  0.22619684  0.19543075  0.65676957  1
  Al  Al5  1  0.79408878  0.08835812  0.29688116  1
  Al  Al6  1  0.89823341  0.20385454  0.08293678  1
  Al  Al7  1  0.41514622  0.11693283  0.89784549  1
  Al  Al8  1  0.52382847  0.21976947  0.66161821  1
  Al  Al9  1  0.11773344  0.43233948  0.31704007  1
  Al  Al10  1  0.21098892  0.54128768  0.07078315  1
  Al  Al11  1  0.46599436  0.42095076  0.40278619  1
  Al  Al12  1  0.11512200  0.43547505  0.82748422  1
  Al  Al13  1  0.22879702  0.53374709  0.57392721  1
  Al  Al14  1  0.80491753  0.41677295  0.31112050  1
  Al  Al15  1  0.91521207  0.53104266  0.07562279  1
  Al  Al16  1  0.41689110  0.44098926  0.89262505  1
  Al  Al17  1  0.52568595  0.55192090  0.65311445  1
  Al  Al18  1  0.12518385  0.75571821  0.32131111  1
  Al  Al19  1  0.20813701  0.87676718  0.08034981  1
  Al  Al20  1  0.79057977  0.75561499  0.83961828  1
  Al  Al21  1  0.46770355  0.74619605  0.40954157  1
  Al  Al22  1  0.11815318  0.75557239  0.82414852  1
  Al  Al23  1  0.22989738  0.86873744  0.59016540  1
  Al  Al24  1  0.80102137  0.74503818  0.30672718  1
  Al  Al25  1  0.91131189  0.85440775  0.07504504  1
  Al  Al26  1  0.41546433  0.77394981  0.88701584  1
  Al  Al27  1  0.54146852  0.87914075  0.67211405  1
  Gd  Gd28  1  0.75901636  0.09666781  0.86385028  1
  Gd  Gd29  1  0.85981093  0.21797684  0.56899986  1
  Gd  Gd30  1  0.45642412  0.08785911  0.39964485  1
  Gd  Gd31  1  0.75464614  0.44950091  0.86134919  1
  Gd  Gd32  1  0.88651059  0.53792933  0.57787439  1
  Gd  Gd33  1  0.53677570  0.54421610  0.15181128  1
  Gd  Gd34  1  0.88658440  0.87197470  0.57383902  1
  Gd  Gd35  1  0.55950631  0.87197116  0.11164119  1
  N  N36  1  0.21140187  0.20652230  0.32445701  1
  N  N37  1  0.11987100  0.09437606  0.08736153  1
  N  N38  1  0.89971497  0.20431206  0.90433002  1
  N  N39  1  0.74196596  0.10401418  0.64991778  1
  N  N40  1  0.56957877  0.22318836  0.31511076  1
  N  N41  1  0.42322762  0.12711819  0.07863767  1
  N  N42  1  0.20956873  0.20601269  0.83772603  1
  N  N43  1  0.12957823  0.09147021  0.57540093  1
  N  N44  1  0.90132834  0.19577644  0.35097903  1
  N  N45  1  0.78306611  0.08695386  0.11470016  1
  N  N46  1  0.49523239  0.23878271  0.83397278  1
  N  N47  1  0.44027629  0.08950156  0.61196228  1
  N  N48  1  0.22548152  0.53758031  0.38676458  1
  N  N49  1  0.11911172  0.42969054  0.13690012  1
  N  N50  1  0.90909181  0.54720003  0.89540287  1
  N  N51  1  0.74417198  0.44692139  0.65305202  1
  N  N52  1  0.57593565  0.52868141  0.36225897  1
  N  N53  1  0.43218490  0.41727940  0.07009686  1
  N  N54  1  0.20160875  0.55235737  0.89306732  1
  N  N55  1  0.13825370  0.42087883  0.64731660  1
  N  N56  1  0.90333728  0.53258538  0.36407875  1
  N  N57  1  0.80371622  0.42172006  0.12756427  1
  N  N58  1  0.49059315  0.56915697  0.82842768  1
  N  N59  1  0.45121851  0.41895838  0.58055823  1
  N  N60  1  0.23774785  0.85745066  0.38105931  1
  N  N61  1  0.12181813  0.75559207  0.13857293  1
  N  N62  1  0.91011696  0.84362701  0.89495096  1
  N  N63  1  0.75871006  0.77018642  0.66546207  1
  N  N64  1  0.57962125  0.83682836  0.33205030  1
  N  N65  1  0.41714405  0.76901356  0.06204034  1
  N  N66  1  0.20064807  0.88696496  0.86644105  1
  N  N67  1  0.14141351  0.74277840  0.64312931  1
  N  N68  1  0.89462462  0.87273931  0.35680530  1
  N  N69  1  0.82101004  0.73890582  0.13075821  1
  N  N70  1  0.54200185  0.88085568  0.85824387  1
  N  N71  1  0.45049018  0.76372101  0.59356738  1
