# generated using pymatgen
data_Gd2Al7N9
_symmetry_space_group_name_H-M   'P 1'
_cell_length_a   10.05582516
_cell_length_b   9.86170845
_cell_length_c   10.32650369
_cell_angle_alpha   90.13373209
_cell_angle_beta   90.78207504
_cell_angle_gamma   60.74290677
_symmetry_Int_Tables_number   1
_chemical_formula_structural   Gd2Al7N9
_chemical_formula_sum   'Gd8 Al28 N36'
_cell_volume   893.32746151
_cell_formula_units_Z   4
loop_
 _symmetry_equiv_pos_site_id
 _symmetry_equiv_pos_as_xyz
  1  'x, y, z'
loop_
 _atom_site_type_symbol
 _atom_site_label
 _atom_site_symmetry_multiplicity
 _atom_site_fract_x
 _atom_site_fract_y
 _atom_site_fract_z
 _atom_site_occupancy
  Al  Al0  1  0.12666463  0.08697920  0.39888106  1
  Al  Al1  1  0.21235840  0.21496095  0.15082671  1
  Al  Al2  1  0.53266608  0.22412951  0.15002551  1
  Al  Al3  1  0.11380987  0.09170092  0.90199903  1
  Al  Al4  1  0.22888058  0.19900399  0.65873035  1
  Al  Al5  1  0.78623675  0.08789642  0.31875521  1
  Al  Al6  1  0.91070115  0.19722620  0.15141425  1
  Al  Al7  1  0.41710963  0.11680008  0.90707856  1
  Al  Al8  1  0.52514264  0.22167016  0.67208228  1
  Al  Al9  1  0.12544756  0.41926877  0.40346290  1
  Al  Al10  1  0.21708889  0.53729092  0.15942366  1
  Al  Al11  1  0.45704475  0.42625273  0.41229447  1
  Al  Al12  1  0.11868831  0.42714380  0.90254308  1
  Al  Al13  1  0.23104779  0.53341711  0.64503676  1
  Al  Al14  1  0.79435790  0.42822938  0.33364529  1
  Al  Al15  1  0.91065772  0.53386847  0.08895247  1
  Al  Al16  1  0.40705541  0.44459028  0.90440079  1
  Al  Al17  1  0.52547556  0.55319094  0.66563968  1
  Al  Al18  1  0.13113261  0.75285675  0.39199529  1
  Al  Al19  1  0.21562205  0.87830843  0.15831858  1
  Al  Al20  1  0.78305767  0.75917854  0.85398375  1
  Al  Al21  1  0.46393862  0.75056081  0.41702199  1
  Al  Al22  1  0.11753437  0.75686956  0.88619369  1
  Al  Al23  1  0.22962768  0.87147195  0.64459956  1
  Al  Al24  1  0.80165804  0.74297813  0.32526465  1
  Al  Al25  1  0.91270983  0.85380366  0.09534862  1
  Al  Al26  1  0.41169344  0.77525873  0.90139341  1
  Al  Al27  1  0.53710096  0.88086884  0.68123743  1
  Gd  Gd28  1  0.76206596  0.09940436  0.88391294  1
  Gd  Gd29  1  0.87856207  0.20933167  0.61350150  1
  Gd  Gd30  1  0.45228095  0.08859387  0.40633037  1
  Gd  Gd31  1  0.76118404  0.43354097  0.88152783  1
  Gd  Gd32  1  0.88506135  0.53971724  0.61200206  1
  Gd  Gd33  1  0.53885073  0.54529093  0.14846148  1
  Gd  Gd34  1  0.87905872  0.87682914  0.59379112  1
  Gd  Gd35  1  0.56029698  0.87270860  0.11985843  1
  N  N36  1  0.20315190  0.21550584  0.33327372  1
  N  N37  1  0.11379303  0.09292967  0.09361762  1
  N  N38  1  0.91709120  0.18915541  0.84198961  1
  N  N39  1  0.73362722  0.11099587  0.65536099  1
  N  N40  1  0.57004583  0.22249542  0.33222667  1
  N  N41  1  0.42076464  0.12662096  0.09745092  1
  N  N42  1  0.21101074  0.20987630  0.84755822  1
  N  N43  1  0.14415493  0.08017924  0.58230329  1
  N  N44  1  0.90335579  0.19618209  0.34846647  1
  N  N45  1  0.78405248  0.09079595  0.12711361  1
  N  N46  1  0.50123467  0.23803925  0.85314886  1
  N  N47  1  0.44094758  0.09075966  0.62544451  1
  N  N48  1  0.23511439  0.52968811  0.34636931  1
  N  N49  1  0.12253279  0.42387451  0.09154997  1
  N  N50  1  0.90164896  0.54772408  0.89578416  1
  N  N51  1  0.73498622  0.45137566  0.66061728  1
  N  N52  1  0.56810516  0.53371187  0.36787139  1
  N  N53  1  0.41509394  0.42615478  0.08763892  1
  N  N54  1  0.20634685  0.54623932  0.83389630  1
  N  N55  1  0.15011239  0.40375174  0.58905106  1
  N  N56  1  0.90308008  0.53276985  0.38539980  1
  N  N57  1  0.80633940  0.41992993  0.13664030  1
  N  N58  1  0.49746617  0.56509065  0.85415486  1
  N  N59  1  0.44090701  0.42763415  0.59696448  1
  N  N60  1  0.23915704  0.86796798  0.34580575  1
  N  N61  1  0.12347241  0.75534753  0.11604656  1
  N  N62  1  0.90637705  0.84495060  0.90393249  1
  N  N63  1  0.74732855  0.77762869  0.67544583  1
  N  N64  1  0.58363628  0.83605059  0.34798879  1
  N  N65  1  0.40294614  0.78355745  0.08065994  1
  N  N66  1  0.20983433  0.88067294  0.83440548  1
  N  N67  1  0.14374149  0.74543492  0.58480185  1
  N  N68  1  0.89566370  0.87171088  0.36976609  1
  N  N69  1  0.82046544  0.73782218  0.14286324  1
  N  N70  1  0.53967079  0.88190977  0.87424838  1
  N  N71  1  0.44339253  0.76610184  0.60530284  1
