# generated using pymatgen
data_Gd2Al7N9
_symmetry_space_group_name_H-M   'P 1'
_cell_length_a   9.98252011
_cell_length_b   9.86368412
_cell_length_c   10.30121108
_cell_angle_alpha   90.05499519
_cell_angle_beta   89.89213684
_cell_angle_gamma   60.52112674
_symmetry_Int_Tables_number   1
_chemical_formula_structural   Gd2Al7N9
_chemical_formula_sum   'Gd8 Al28 N36'
_cell_volume   882.98471390
_cell_formula_units_Z   4
loop_
 _symmetry_equiv_pos_site_id
 _symmetry_equiv_pos_as_xyz
  1  'x, y, z'
loop_
 _atom_site_type_symbol
 _atom_site_label
 _atom_site_symmetry_multiplicity
 _atom_site_fract_x
 _atom_site_fract_y
 _atom_site_fract_z
 _atom_site_occupancy
  Al  Al0  1  0.12237480  0.08970089  0.39713846  1
  Al  Al1  1  0.21487233  0.21231955  0.14521818  1
  Al  Al2  1  0.53389269  0.22341331  0.15463254  1
  Al  Al3  1  0.11358857  0.09107667  0.90677364  1
  Al  Al4  1  0.23030130  0.19986218  0.66101740  1
  Al  Al5  1  0.76608720  0.10785672  0.38094054  1
  Al  Al6  1  0.90196456  0.20199259  0.17296105  1
  Al  Al7  1  0.42665662  0.11443560  0.89402155  1
  Al  Al8  1  0.53788956  0.21743666  0.65811768  1
  Al  Al9  1  0.12731443  0.41899528  0.39812184  1
  Al  Al10  1  0.21605131  0.53978067  0.14946239  1
  Al  Al11  1  0.43959204  0.43406747  0.41387659  1
  Al  Al12  1  0.11078677  0.43427340  0.90733033  1
  Al  Al13  1  0.23429882  0.53320481  0.65192303  1
  Al  Al14  1  0.76853303  0.43208648  0.40599453  1
  Al  Al15  1  0.91275662  0.52226695  0.17065635  1
  Al  Al16  1  0.42199153  0.43857992  0.89680518  1
  Al  Al17  1  0.53680655  0.54748016  0.64965782  1
  Al  Al18  1  0.13231471  0.75223467  0.39994299  1
  Al  Al19  1  0.21545251  0.87686350  0.15065936  1
  Al  Al20  1  0.78115954  0.76031790  0.84231937  1
  Al  Al21  1  0.44621202  0.76109527  0.41632634  1
  Al  Al22  1  0.11002438  0.75870984  0.90304013  1
  Al  Al23  1  0.23164484  0.86788279  0.65033218  1
  Al  Al24  1  0.78465296  0.75165339  0.35081168  1
  Al  Al25  1  0.90891322  0.86423090  0.17320467  1
  Al  Al26  1  0.42107057  0.76607844  0.89484668  1
  Al  Al27  1  0.53876694  0.87719301  0.66848647  1
  Gd  Gd28  1  0.77029703  0.09095725  0.92045863  1
  Gd  Gd29  1  0.89183660  0.19561981  0.62864491  1
  Gd  Gd30  1  0.44500246  0.09386772  0.41343786  1
  Gd  Gd31  1  0.77261949  0.43607780  0.90493364  1
  Gd  Gd32  1  0.90284202  0.53126605  0.62474316  1
  Gd  Gd33  1  0.54439642  0.54029959  0.16064271  1
  Gd  Gd34  1  0.88957339  0.87560175  0.61692568  1
  Gd  Gd35  1  0.56385551  0.87065914  0.11953719  1
  N  N36  1  0.20242244  0.21507440  0.32837810  1
  N  N37  1  0.10910536  0.09375735  0.09744330  1
  N  N38  1  0.91027762  0.19050675  0.84746738  1
  N  N39  1  0.72587647  0.11902377  0.56833296  1
  N  N40  1  0.55213351  0.23451906  0.33389672  1
  N  N41  1  0.42556752  0.12611103  0.08615056  1
  N  N42  1  0.21058920  0.21224890  0.84994824  1
  N  N43  1  0.15115495  0.07674271  0.58074679  1
  N  N44  1  0.89631099  0.20415647  0.36367605  1
  N  N45  1  0.78083536  0.09246664  0.14237906  1
  N  N46  1  0.52655936  0.22739331  0.84105850  1
  N  N47  1  0.44205274  0.09117928  0.63382258  1
  N  N48  1  0.22708406  0.53791997  0.33778984  1
  N  N49  1  0.11206790  0.42835635  0.09543080  1
  N  N50  1  0.90584483  0.54703577  0.84926946  1
  N  N51  1  0.74392555  0.44281835  0.59378589  1
  N  N52  1  0.54726958  0.54463959  0.37573327  1
  N  N53  1  0.42128392  0.42403623  0.08103784  1
  N  N54  1  0.21298672  0.54415179  0.84172023  1
  N  N55  1  0.16230141  0.39918984  0.58055172  1
  N  N56  1  0.90183410  0.52691075  0.36926125  1
  N  N57  1  0.80440272  0.41575546  0.12719608  1
  N  N58  1  0.51895227  0.55519176  0.83868292  1
  N  N59  1  0.44047514  0.42829106  0.59830912  1
  N  N60  1  0.23029196  0.87007195  0.33969859  1
  N  N61  1  0.11143052  0.76292727  0.09654188  1
  N  N62  1  0.90280223  0.85277950  0.84690751  1
  N  N63  1  0.74210005  0.77678265  0.62639962  1
  N  N64  1  0.56705313  0.84410927  0.34776730  1
  N  N65  1  0.40977530  0.77459840  0.07537859  1
  N  N66  1  0.21122540  0.87845883  0.83896242  1
  N  N67  1  0.15263965  0.73974061  0.58281655  1
  N  N68  1  0.90221065  0.86993401  0.36564828  1
  N  N69  1  0.81947385  0.73847955  0.15848927  1
  N  N70  1  0.55370760  0.87165048  0.86308226  1
  N  N71  1  0.44117745  0.76621355  0.60414915  1
