# generated using pymatgen
data_Gd2Al7N9
_symmetry_space_group_name_H-M   'P 1'
_cell_length_a   9.96853728
_cell_length_b   9.86213132
_cell_length_c   10.28884895
_cell_angle_alpha   90.05050493
_cell_angle_beta   89.86467512
_cell_angle_gamma   60.51013093
_symmetry_Int_Tables_number   1
_chemical_formula_structural   Gd2Al7N9
_chemical_formula_sum   'Gd8 Al28 N36'
_cell_volume   880.45429080
_cell_formula_units_Z   4
loop_
 _symmetry_equiv_pos_site_id
 _symmetry_equiv_pos_as_xyz
  1  'x, y, z'
loop_
 _atom_site_type_symbol
 _atom_site_label
 _atom_site_symmetry_multiplicity
 _atom_site_fract_x
 _atom_site_fract_y
 _atom_site_fract_z
 _atom_site_occupancy
  Al  Al0  1  0.12265113  0.08947804  0.39682873  1
  Al  Al1  1  0.21468611  0.21279662  0.14510396  1
  Al  Al2  1  0.53400433  0.22338116  0.15451768  1
  Al  Al3  1  0.11390213  0.09081577  0.90707602  1
  Al  Al4  1  0.23076621  0.19917823  0.66120097  1
  Al  Al5  1  0.76651535  0.10699170  0.38062987  1
  Al  Al6  1  0.90172893  0.20224384  0.17303987  1
  Al  Al7  1  0.42774742  0.11402130  0.89307712  1
  Al  Al8  1  0.53842374  0.21763002  0.65815037  1
  Al  Al9  1  0.12615569  0.41957745  0.39763280  1
  Al  Al10  1  0.21592118  0.53985903  0.14946436  1
  Al  Al11  1  0.43949261  0.43393347  0.41345105  1
  Al  Al12  1  0.11197449  0.43321392  0.90780033  1
  Al  Al13  1  0.23378908  0.53345268  0.65163414  1
  Al  Al14  1  0.76920016  0.43253932  0.40585794  1
  Al  Al15  1  0.91038422  0.52567448  0.17112769  1
  Al  Al16  1  0.42212041  0.43862670  0.89694104  1
  Al  Al17  1  0.53713668  0.54708902  0.64923955  1
  Al  Al18  1  0.13072345  0.75266791  0.39949219  1
  Al  Al19  1  0.21512003  0.87674409  0.15041631  1
  Al  Al20  1  0.78819998  0.75637102  0.88239715  1
  Al  Al21  1  0.44508751  0.76106181  0.41632962  1
  Al  Al22  1  0.11123425  0.75839393  0.90338591  1
  Al  Al23  1  0.23213553  0.86802393  0.65023170  1
  Al  Al24  1  0.77702392  0.75534092  0.37961551  1
  Al  Al25  1  0.90686201  0.86306300  0.17339174  1
  Al  Al26  1  0.42231453  0.76550989  0.89380194  1
  Al  Al27  1  0.54793475  0.87257158  0.66477428  1
  Gd  Gd28  1  0.77025476  0.09128903  0.92090887  1
  Gd  Gd29  1  0.89282721  0.19565310  0.62818649  1
  Gd  Gd30  1  0.44480900  0.09381115  0.41458982  1
  Gd  Gd31  1  0.77245748  0.43528130  0.90496127  1
  Gd  Gd32  1  0.90110231  0.53580805  0.62790281  1
  Gd  Gd33  1  0.54419916  0.54099750  0.16069692  1
  Gd  Gd34  1  0.88795062  0.87495434  0.62085627  1
  Gd  Gd35  1  0.56058674  0.87244210  0.12455879  1
  N  N36  1  0.20269952  0.21508176  0.32849373  1
  N  N37  1  0.10918544  0.09374166  0.09756124  1
  N  N38  1  0.91047215  0.19003406  0.84740369  1
  N  N39  1  0.72710862  0.11850839  0.56881099  1
  N  N40  1  0.55197025  0.23407628  0.33414022  1
  N  N41  1  0.42524339  0.12697311  0.08476924  1
  N  N42  1  0.21078113  0.21196605  0.84992651  1
  N  N43  1  0.15228699  0.07617413  0.58044022  1
  N  N44  1  0.89644777  0.20418738  0.36395356  1
  N  N45  1  0.78044889  0.09308478  0.14240399  1
  N  N46  1  0.52709387  0.22783371  0.84105124  1
  N  N47  1  0.44382738  0.08982747  0.63567788  1
  N  N48  1  0.22701551  0.53790925  0.33793919  1
  N  N49  1  0.11160694  0.42859984  0.09567895  1
  N  N50  1  0.90568475  0.54762050  0.84952287  1
  N  N51  1  0.74525048  0.44338727  0.59442817  1
  N  N52  1  0.54749721  0.54437084  0.37614986  1
  N  N53  1  0.42138395  0.42426277  0.08114813  1
  N  N54  1  0.21290736  0.54411186  0.84151170  1
  N  N55  1  0.16039800  0.39946761  0.58071050  1
  N  N56  1  0.90111961  0.52901407  0.36614240  1
  N  N57  1  0.80417583  0.41576472  0.12690902  1
  N  N58  1  0.51921922  0.55461791  0.83833491  1
  N  N59  1  0.44013558  0.42830365  0.59806925  1
  N  N60  1  0.22974858  0.86979205  0.33969071  1
  N  N61  1  0.11117173  0.76305419  0.09654217  1
  N  N62  1  0.90240305  0.85149919  0.84704638  1
  N  N63  1  0.74006162  0.77809594  0.58155343  1
  N  N64  1  0.56276512  0.84547533  0.34488091  1
  N  N65  1  0.40937912  0.77465335  0.07395728  1
  N  N66  1  0.21147921  0.87842458  0.83875033  1
  N  N67  1  0.15088947  0.74095717  0.58281414  1
  N  N68  1  0.90121961  0.86857045  0.36341520  1
  N  N69  1  0.81756960  0.73974337  0.13795401  1
  N  N70  1  0.56110390  0.86723330  0.85997459  1
  N  N71  1  0.44242093  0.76575546  0.60482516  1
