# generated using pymatgen
data_Gd2Al7N9
_symmetry_space_group_name_H-M   'P 1'
_cell_length_a   10.06301541
_cell_length_b   9.84928808
_cell_length_c   10.36482242
_cell_angle_alpha   90.05542757
_cell_angle_beta   90.12872755
_cell_angle_gamma   60.45816002
_symmetry_Int_Tables_number   1
_chemical_formula_structural   Gd2Al7N9
_chemical_formula_sum   'Gd8 Al28 N36'
_cell_volume   893.73946316
_cell_formula_units_Z   4
loop_
 _symmetry_equiv_pos_site_id
 _symmetry_equiv_pos_as_xyz
  1  'x, y, z'
loop_
 _atom_site_type_symbol
 _atom_site_label
 _atom_site_symmetry_multiplicity
 _atom_site_fract_x
 _atom_site_fract_y
 _atom_site_fract_z
 _atom_site_occupancy
  Al  Al0  1  0.11236680  0.09487062  0.30230781  1
  Al  Al1  1  0.22091132  0.21008714  0.05987002  1
  Al  Al2  1  0.53854280  0.21628394  0.13347980  1
  Al  Al3  1  0.12255147  0.08654339  0.81600709  1
  Al  Al4  1  0.22000033  0.20451785  0.56791274  1
  Al  Al5  1  0.79150642  0.09002819  0.28247485  1
  Al  Al6  1  0.91030306  0.20054360  0.06320792  1
  Al  Al7  1  0.41634169  0.10973135  0.80357831  1
  Al  Al8  1  0.53512255  0.22760867  0.62688343  1
  Al  Al9  1  0.10998987  0.42708962  0.30125212  1
  Al  Al10  1  0.20762202  0.54297065  0.06595327  1
  Al  Al11  1  0.44705258  0.42697547  0.35475101  1
  Al  Al12  1  0.12330876  0.42562700  0.81484682  1
  Al  Al13  1  0.23264376  0.53497725  0.55596248  1
  Al  Al14  1  0.79165750  0.42499744  0.29091299  1
  Al  Al15  1  0.91093047  0.53082898  0.05685470  1
  Al  Al16  1  0.41476265  0.44138843  0.86571734  1
  Al  Al17  1  0.55199481  0.54508552  0.54206308  1
  Al  Al18  1  0.11522658  0.76070583  0.30271647  1
  Al  Al19  1  0.21130502  0.87828814  0.05907746  1
  Al  Al20  1  0.79686787  0.75125902  0.81712956  1
  Al  Al21  1  0.44034259  0.76571282  0.30943672  1
  Al  Al22  1  0.12044671  0.75421212  0.81265834  1
  Al  Al23  1  0.23449523  0.86550976  0.56222890  1
  Al  Al24  1  0.79172306  0.75095177  0.28572423  1
  Al  Al25  1  0.90767146  0.85651885  0.05814972  1
  Al  Al26  1  0.42203205  0.75964703  0.80514231  1
  Al  Al27  1  0.54986665  0.86965487  0.63439419  1
  Gd  Gd28  1  0.75938783  0.10056778  0.85125528  1
  Gd  Gd29  1  0.89375464  0.19756744  0.54959915  1
  Gd  Gd30  1  0.45029278  0.08815182  0.35561462  1
  Gd  Gd31  1  0.76731773  0.43740623  0.82140700  1
  Gd  Gd32  1  0.90184705  0.53420347  0.55302554  1
  Gd  Gd33  1  0.54589675  0.53918544  0.08926329  1
  Gd  Gd34  1  0.88952955  0.87320651  0.55994522  1
  Gd  Gd35  1  0.55183080  0.87730965  0.06676701  1
  N  N36  1  0.18252174  0.22491273  0.38361999  1
  N  N37  1  0.11859008  0.09296412  0.11685057  1
  N  N38  1  0.92142171  0.19064818  0.87750893  1
  N  N39  1  0.74745319  0.11083821  0.62592111  1
  N  N40  1  0.58073983  0.21443524  0.31292322  1
  N  N41  1  0.42142418  0.12057966  0.12197440  1
  N  N42  1  0.21800338  0.20665457  0.87238140  1
  N  N43  1  0.14191710  0.07568011  0.63249397  1
  N  N44  1  0.89340731  0.20185855  0.32859223  1
  N  N45  1  0.77942062  0.09142208  0.09274199  1
  N  N46  1  0.50002849  0.24055455  0.81019399  1
  N  N47  1  0.43830467  0.09268936  0.60405244  1
  N  N48  1  0.21210827  0.54292772  0.36459021  1
  N  N49  1  0.11461651  0.42322227  0.11663112  1
  N  N50  1  0.91288321  0.54190108  0.86833526  1
  N  N51  1  0.75201139  0.44113306  0.60358331  1
  N  N52  1  0.56040255  0.54177717  0.34674184  1
  N  N53  1  0.41363351  0.42384279  0.10247259  1
  N  N54  1  0.20686982  0.54825348  0.87972041  1
  N  N55  1  0.14972997  0.41219023  0.63209074  1
  N  N56  1  0.89511649  0.53763582  0.33717055  1
  N  N57  1  0.80819387  0.41735531  0.10318665  1
  N  N58  1  0.51454459  0.55565618  0.86700089  1
  N  N59  1  0.44801056  0.42644006  0.54962279  1
  N  N60  1  0.22048142  0.87563917  0.37358568  1
  N  N61  1  0.11343085  0.76244162  0.11715845  1
  N  N62  1  0.91146098  0.84542845  0.86840943  1
  N  N63  1  0.76027716  0.76700662  0.63777863  1
  N  N64  1  0.58306483  0.83714430  0.32179834  1
  N  N65  1  0.40192681  0.78579212  0.13135531  1
  N  N66  1  0.21935589  0.87174228  0.87213652  1
  N  N67  1  0.14441360  0.74341096  0.62731200  1
  N  N68  1  0.89326760  0.87306557  0.33731729  1
  N  N69  1  0.81178725  0.74336182  0.10353772  1
  N  N70  1  0.54131044  0.87898834  0.83131131  1
  N  N71  1  0.44418039  0.75484087  0.61544750  1
