# generated using pymatgen
data_Gd2Al7N9
_symmetry_space_group_name_H-M   'P 1'
_cell_length_a   9.94011505
_cell_length_b   9.83069542
_cell_length_c   10.35870761
_cell_angle_alpha   90.29189722
_cell_angle_beta   89.81372011
_cell_angle_gamma   60.26522322
_symmetry_Int_Tables_number   1
_chemical_formula_structural   Gd2Al7N9
_chemical_formula_sum   'Gd8 Al28 N36'
_cell_volume   878.92353618
_cell_formula_units_Z   4
loop_
 _symmetry_equiv_pos_site_id
 _symmetry_equiv_pos_as_xyz
  1  'x, y, z'
loop_
 _atom_site_type_symbol
 _atom_site_label
 _atom_site_symmetry_multiplicity
 _atom_site_fract_x
 _atom_site_fract_y
 _atom_site_fract_z
 _atom_site_occupancy
  Al  Al0  1  0.10601835  0.09645542  0.29241679  1
  Al  Al1  1  0.21804183  0.21017955  0.04636487  1
  Al  Al2  1  0.52686103  0.21846873  0.04881216  1
  Al  Al3  1  0.12900597  0.08435342  0.81085062  1
  Al  Al4  1  0.22580915  0.20356196  0.56448919  1
  Al  Al5  1  0.77013708  0.09971094  0.27815539  1
  Al  Al6  1  0.90273410  0.20219030  0.06268836  1
  Al  Al7  1  0.43536207  0.10172214  0.79092504  1
  Al  Al8  1  0.55546926  0.21384211  0.55146488  1
  Al  Al9  1  0.10379053  0.43104735  0.29327732  1
  Al  Al10  1  0.21635783  0.53686706  0.05378940  1
  Al  Al11  1  0.43675011  0.42956777  0.30863251  1
  Al  Al12  1  0.12683435  0.42560964  0.80983700  1
  Al  Al13  1  0.23523071  0.53321506  0.55648516  1
  Al  Al14  1  0.77864083  0.43070816  0.28344348  1
  Al  Al15  1  0.90484563  0.53618313  0.05143974  1
  Al  Al16  1  0.42791935  0.43739403  0.79508521  1
  Al  Al17  1  0.54929019  0.53966821  0.54273628  1
  Al  Al18  1  0.11093900  0.76312871  0.29495973  1
  Al  Al19  1  0.21509408  0.87781635  0.05368285  1
  Al  Al20  1  0.78696860  0.75678400  0.80333875  1
  Al  Al21  1  0.43660553  0.76264004  0.31429084  1
  Al  Al22  1  0.12729720  0.75088819  0.81044338  1
  Al  Al23  1  0.23346012  0.86657589  0.55760084  1
  Al  Al24  1  0.78211968  0.75637203  0.28894048  1
  Al  Al25  1  0.90133755  0.85906346  0.05384337  1
  Al  Al26  1  0.43601300  0.76432489  0.78782513  1
  Al  Al27  1  0.55794612  0.86505741  0.55842473  1
  Gd  Gd28  1  0.77255628  0.09406778  0.83026232  1
  Gd  Gd29  1  0.90264938  0.19473456  0.53225309  1
  Gd  Gd30  1  0.43181720  0.10110450  0.32369669  1
  Gd  Gd31  1  0.77806007  0.43040138  0.81185659  1
  Gd  Gd32  1  0.90503956  0.53052064  0.54432405  1
  Gd  Gd33  1  0.53641348  0.54199911  0.06451180  1
  Gd  Gd34  1  0.89856982  0.86758750  0.54964827  1
  Gd  Gd35  1  0.55161822  0.87391163  0.04763116  1
  N  N36  1  0.17188624  0.22985696  0.37963845  1
  N  N37  1  0.11874410  0.09334901  0.10972701  1
  N  N38  1  0.92772308  0.18709688  0.87896238  1
  N  N39  1  0.75614858  0.10839893  0.61389874  1
  N  N40  1  0.57084940  0.21942023  0.36553450  1
  N  N41  1  0.42264943  0.11838896  0.10763738  1
  N  N42  1  0.22607858  0.20388165  0.86066089  1
  N  N43  1  0.14491952  0.07567486  0.62744408  1
  N  N44  1  0.88352859  0.20591058  0.31102755  1
  N  N45  1  0.76403025  0.09769165  0.08849398  1
  N  N46  1  0.51260063  0.23011920  0.86390540  1
  N  N47  1  0.44686601  0.09514279  0.59414471  1
  N  N48  1  0.21220327  0.54283748  0.36548486  1
  N  N49  1  0.11385764  0.42448040  0.10774113  1
  N  N50  1  0.91217522  0.54693959  0.86344139  1
  N  N51  1  0.75604605  0.43522596  0.59386037  1
  N  N52  1  0.55062954  0.53901903  0.34784244  1
  N  N53  1  0.41652044  0.41719368  0.12788561  1
  N  N54  1  0.22539107  0.53940568  0.86899384  1
  N  N55  1  0.14984628  0.41175925  0.62767372  1
  N  N56  1  0.88736360  0.54034188  0.32876851  1
  N  N57  1  0.79713420  0.42468899  0.09577795  1
  N  N58  1  0.52101175  0.55689645  0.84789871  1
  N  N59  1  0.44592816  0.42879113  0.60519505  1
  N  N60  1  0.20937590  0.88091431  0.36896417  1
  N  N61  1  0.11519902  0.75977111  0.10912373  1
  N  N62  1  0.91348105  0.83987029  0.86546666  1
  N  N63  1  0.76083639  0.76768086  0.62281447  1
  N  N64  1  0.57460299  0.84130270  0.36587806  1
  N  N65  1  0.40742466  0.78492676  0.13574531  1
  N  N66  1  0.23026580  0.86905865  0.86693820  1
  N  N67  1  0.14771679  0.74327752  0.62509159  1
  N  N68  1  0.88570503  0.87808633  0.32897003  1
  N  N69  1  0.80219670  0.74820867  0.10723038  1
  N  N70  1  0.55271727  0.87507408  0.83031663  1
  N  N71  1  0.44656442  0.75718471  0.59992852  1
