# generated using pymatgen
data_Gd2Al7N9
_symmetry_space_group_name_H-M   'P 1'
_cell_length_a   10.10253798
_cell_length_b   9.86552891
_cell_length_c   10.25475437
_cell_angle_alpha   89.91807199
_cell_angle_beta   90.74401108
_cell_angle_gamma   60.75457703
_symmetry_Int_Tables_number   1
_chemical_formula_structural   Gd2Al7N9
_chemical_formula_sum   'Gd8 Al28 N36'
_cell_volume   891.67203386
_cell_formula_units_Z   4
loop_
 _symmetry_equiv_pos_site_id
 _symmetry_equiv_pos_as_xyz
  1  'x, y, z'
loop_
 _atom_site_type_symbol
 _atom_site_label
 _atom_site_symmetry_multiplicity
 _atom_site_fract_x
 _atom_site_fract_y
 _atom_site_fract_z
 _atom_site_occupancy
  Al  Al0  1  0.12701332  0.08635014  0.39910359  1
  Al  Al1  1  0.21248987  0.21482460  0.15052725  1
  Al  Al2  1  0.53008321  0.22505447  0.15147935  1
  Al  Al3  1  0.11424292  0.09072702  0.90150323  1
  Al  Al4  1  0.22834638  0.19969426  0.65790001  1
  Al  Al5  1  0.78249523  0.09692859  0.32741679  1
  Al  Al6  1  0.91198045  0.19849811  0.15315956  1
  Al  Al7  1  0.41733205  0.11638439  0.90499235  1
  Al  Al8  1  0.52545312  0.22141483  0.67107040  1
  Al  Al9  1  0.12539223  0.42089557  0.40328661  1
  Al  Al10  1  0.21673589  0.53820821  0.15513808  1
  Al  Al11  1  0.45486013  0.42858976  0.41278814  1
  Al  Al12  1  0.11884130  0.42801465  0.90157923  1
  Al  Al13  1  0.23086385  0.53503462  0.64966802  1
  Al  Al14  1  0.79355426  0.42953021  0.33554050  1
  Al  Al15  1  0.91133625  0.53568403  0.08796769  1
  Al  Al16  1  0.40877722  0.44268812  0.90359897  1
  Al  Al17  1  0.52596685  0.55230004  0.66539592  1
  Al  Al18  1  0.13705135  0.75065456  0.40058799  1
  Al  Al19  1  0.21614524  0.87793667  0.15425218  1
  Al  Al20  1  0.78158012  0.75976727  0.84607409  1
  Al  Al21  1  0.46270016  0.75028706  0.41617542  1
  Al  Al22  1  0.11171562  0.75871865  0.90116822  1
  Al  Al23  1  0.22874759  0.87031513  0.64881987  1
  Al  Al24  1  0.79825593  0.74021116  0.32999091  1
  Al  Al25  1  0.91509440  0.85950885  0.15019737  1
  Al  Al26  1  0.41168807  0.77412804  0.90074636  1
  Al  Al27  1  0.53305773  0.88106879  0.67786500  1
  Gd  Gd28  1  0.76598541  0.09329559  0.88972345  1
  Gd  Gd29  1  0.88001153  0.20730838  0.61524106  1
  Gd  Gd30  1  0.45132711  0.08835048  0.40566324  1
  Gd  Gd31  1  0.76197893  0.43217402  0.88201259  1
  Gd  Gd32  1  0.88701995  0.53591678  0.61455950  1
  Gd  Gd33  1  0.54113819  0.54325113  0.14655952  1
  Gd  Gd34  1  0.88279670  0.87295780  0.61058797  1
  Gd  Gd35  1  0.56330578  0.87103102  0.11679644  1
  N  N36  1  0.20262000  0.21627396  0.33407274  1
  N  N37  1  0.11381902  0.09349594  0.09448647  1
  N  N38  1  0.91687100  0.18756324  0.84378625  1
  N  N39  1  0.73089416  0.11261327  0.64742078  1
  N  N40  1  0.56786121  0.22458049  0.33423743  1
  N  N41  1  0.42116944  0.12535267  0.09849610  1
  N  N42  1  0.21068374  0.21025175  0.84784561  1
  N  N43  1  0.14521326  0.07857447  0.58315418  1
  N  N44  1  0.90287590  0.19905918  0.35157054  1
  N  N45  1  0.78632942  0.09141132  0.13264510  1
  N  N46  1  0.50455804  0.23532664  0.85349405  1
  N  N47  1  0.43854613  0.09219199  0.62523215  1
  N  N48  1  0.23301548  0.53387718  0.34299270  1
  N  N49  1  0.12216199  0.42418653  0.09147508  1
  N  N50  1  0.90120444  0.54902429  0.89407111  1
  N  N51  1  0.73460696  0.44958935  0.65926985  1
  N  N52  1  0.56743172  0.53400845  0.36743473  1
  N  N53  1  0.41502623  0.42622430  0.08821093  1
  N  N54  1  0.20785799  0.54679283  0.83870295  1
  N  N55  1  0.15130538  0.40551181  0.58967997  1
  N  N56  1  0.90353894  0.53142792  0.38714876  1
  N  N57  1  0.80760680  0.42091323  0.13706402  1
  N  N58  1  0.50005294  0.56319913  0.85562043  1
  N  N59  1  0.43880166  0.42934840  0.59811328  1
  N  N60  1  0.23666683  0.86727912  0.34251461  1
  N  N61  1  0.11904179  0.75865496  0.09684012  1
  N  N62  1  0.90697802  0.84650455  0.85756048  1
  N  N63  1  0.73974353  0.77498857  0.66470496  1
  N  N64  1  0.58267514  0.83569734  0.34778639  1
  N  N65  1  0.40484584  0.78252349  0.08180893  1
  N  N66  1  0.20979641  0.87928082  0.83831201  1
  N  N67  1  0.14710517  0.74392657  0.58465732  1
  N  N68  1  0.90368377  0.86957105  0.35606544  1
  N  N69  1  0.82220070  0.73808758  0.14523083  1
  N  N70  1  0.53985521  0.88120575  0.87229098  1
  N  N71  1  0.44013144  0.76594720  0.60506311  1
