# generated using pymatgen
data_Gd2Al7N9
_symmetry_space_group_name_H-M   'P 1'
_cell_length_a   9.92832776
_cell_length_b   9.84057191
_cell_length_c   10.68396938
_cell_angle_alpha   90.40052955
_cell_angle_beta   90.18672822
_cell_angle_gamma   60.39467596
_symmetry_Int_Tables_number   1
_chemical_formula_structural   Gd2Al7N9
_chemical_formula_sum   'Gd8 Al28 N36'
_cell_volume   907.53332901
_cell_formula_units_Z   4
loop_
 _symmetry_equiv_pos_site_id
 _symmetry_equiv_pos_as_xyz
  1  'x, y, z'
loop_
 _atom_site_type_symbol
 _atom_site_label
 _atom_site_symmetry_multiplicity
 _atom_site_fract_x
 _atom_site_fract_y
 _atom_site_fract_z
 _atom_site_occupancy
  Al  Al0  1  0.12752124  0.08407980  0.38755503  1
  Al  Al1  1  0.21769236  0.20989695  0.14303664  1
  Al  Al2  1  0.54064128  0.21932859  0.13844094  1
  Al  Al3  1  0.11856228  0.09067942  0.90152487  1
  Al  Al4  1  0.22406669  0.20076011  0.65088525  1
  Al  Al5  1  0.79521004  0.08863909  0.29757325  1
  Al  Al6  1  0.90214061  0.20077827  0.08249504  1
  Al  Al7  1  0.41666773  0.11663105  0.89573153  1
  Al  Al8  1  0.52509823  0.21969658  0.66096547  1
  Al  Al9  1  0.12138096  0.42538625  0.35071132  1
  Al  Al10  1  0.21244460  0.54518976  0.07360565  1
  Al  Al11  1  0.46905563  0.42093966  0.40127610  1
  Al  Al12  1  0.11180910  0.42648477  0.88274524  1
  Al  Al13  1  0.23025791  0.53180942  0.56946327  1
  Al  Al14  1  0.80362643  0.41647576  0.31115808  1
  Al  Al15  1  0.90648765  0.53460639  0.08057992  1
  Al  Al16  1  0.41654897  0.44111155  0.89246886  1
  Al  Al17  1  0.52446969  0.55240101  0.65168587  1
  Al  Al18  1  0.12136695  0.75249042  0.31917262  1
  Al  Al19  1  0.21948051  0.88134320  0.14665265  1
  Al  Al20  1  0.78787249  0.75737133  0.83962911  1
  Al  Al21  1  0.46283457  0.75088006  0.40632036  1
  Al  Al22  1  0.11688976  0.75155758  0.82104622  1
  Al  Al23  1  0.22916580  0.87533999  0.64308414  1
  Al  Al24  1  0.79994938  0.74719292  0.30678197  1
  Al  Al25  1  0.91403416  0.85385121  0.07467612  1
  Al  Al26  1  0.40940577  0.77663951  0.88973790  1
  Al  Al27  1  0.53928106  0.87924206  0.67125935  1
  Gd  Gd28  1  0.76024624  0.09561678  0.86492141  1
  Gd  Gd29  1  0.86581044  0.21441638  0.57192604  1
  Gd  Gd30  1  0.45761680  0.08857189  0.40010932  1
  Gd  Gd31  1  0.75323426  0.44576460  0.86135037  1
  Gd  Gd32  1  0.88049669  0.54093462  0.57839707  1
  Gd  Gd33  1  0.53618819  0.54790727  0.14877953  1
  Gd  Gd34  1  0.88604887  0.87147372  0.57532657  1
  Gd  Gd35  1  0.55845308  0.87365287  0.10811851  1
  N  N36  1  0.21140410  0.20854495  0.32226009  1
  N  N37  1  0.12366794  0.08919606  0.08713973  1
  N  N38  1  0.90551470  0.19945171  0.90260216  1
  N  N39  1  0.74284650  0.10478109  0.64963732  1
  N  N40  1  0.57232983  0.22194707  0.31604635  1
  N  N41  1  0.42438805  0.12762465  0.07880997  1
  N  N42  1  0.20767389  0.20937276  0.83687213  1
  N  N43  1  0.13636723  0.08108363  0.57210441  1
  N  N44  1  0.90233943  0.19640066  0.35225128  1
  N  N45  1  0.78483879  0.08652134  0.11429545  1
  N  N46  1  0.49709552  0.23883834  0.83450995  1
  N  N47  1  0.44106458  0.08860831  0.61339192  1
  N  N48  1  0.23127089  0.53921111  0.38072978  1
  N  N49  1  0.11890136  0.42277498  0.10364332  1
  N  N50  1  0.89794616  0.55205722  0.89781042  1
  N  N51  1  0.74209074  0.44521543  0.65290966  1
  N  N52  1  0.57508959  0.53138946  0.36039749  1
  N  N53  1  0.43230778  0.41823306  0.07168130  1
  N  N54  1  0.20249337  0.55247900  0.89191242  1
  N  N55  1  0.13902595  0.40904169  0.59995761  1
  N  N56  1  0.90295750  0.53366837  0.36065205  1
  N  N57  1  0.80223745  0.41970678  0.12744957  1
  N  N58  1  0.48924241  0.57072398  0.83015590  1
  N  N59  1  0.45174069  0.41861025  0.57974510  1
  N  N60  1  0.24158005  0.86521722  0.33180371  1
  N  N61  1  0.12007224  0.75525974  0.13864968  1
  N  N62  1  0.91222816  0.84235751  0.89341578  1
  N  N63  1  0.75492774  0.77334417  0.66592520  1
  N  N64  1  0.57995754  0.83837821  0.33235081  1
  N  N65  1  0.40529709  0.77750424  0.06280981  1
  N  N66  1  0.20773986  0.89145845  0.82509191  1
  N  N67  1  0.14002901  0.73802429  0.63989331  1
  N  N68  1  0.89583032  0.87278260  0.35804517  1
  N  N69  1  0.81929390  0.74209397  0.13106125  1
  N  N70  1  0.54030313  0.88175039  0.85990266  1
  N  N71  1  0.44365404  0.76524927  0.59050252  1
