# generated using pymatgen
data_Gd2Al7N9
_symmetry_space_group_name_H-M   'P 1'
_cell_length_a   10.07336061
_cell_length_b   9.87600108
_cell_length_c   10.21627680
_cell_angle_alpha   90.08900724
_cell_angle_beta   90.55399770
_cell_angle_gamma   60.86559001
_symmetry_Int_Tables_number   1
_chemical_formula_structural   Gd2Al7N9
_chemical_formula_sum   'Gd8 Al28 N36'
_cell_volume   887.72405389
_cell_formula_units_Z   4
loop_
 _symmetry_equiv_pos_site_id
 _symmetry_equiv_pos_as_xyz
  1  'x, y, z'
loop_
 _atom_site_type_symbol
 _atom_site_label
 _atom_site_symmetry_multiplicity
 _atom_site_fract_x
 _atom_site_fract_y
 _atom_site_fract_z
 _atom_site_occupancy
  Al  Al0  1  0.12729158  0.08611778  0.40106377  1
  Al  Al1  1  0.21489315  0.21175454  0.14890844  1
  Al  Al2  1  0.53018311  0.22492060  0.15570827  1
  Al  Al3  1  0.11325863  0.09076660  0.90492381  1
  Al  Al4  1  0.22627546  0.20264247  0.66080263  1
  Al  Al5  1  0.77376777  0.10139583  0.36429285  1
  Al  Al6  1  0.90945886  0.19356222  0.16367357  1
  Al  Al7  1  0.42016705  0.11731417  0.90003133  1
  Al  Al8  1  0.53282527  0.21977310  0.66253147  1
  Al  Al9  1  0.13062258  0.41777220  0.40301486  1
  Al  Al10  1  0.21627706  0.53865141  0.15348183  1
  Al  Al11  1  0.45099050  0.43046004  0.41538907  1
  Al  Al12  1  0.10936966  0.43434745  0.90385553  1
  Al  Al13  1  0.22972562  0.53484770  0.65284800  1
  Al  Al14  1  0.78454305  0.42448269  0.34524778  1
  Al  Al15  1  0.91905801  0.52348148  0.15944086  1
  Al  Al16  1  0.41363904  0.44001975  0.90182247  1
  Al  Al17  1  0.52786150  0.55144932  0.66724134  1
  Al  Al18  1  0.13787917  0.74930325  0.40251075  1
  Al  Al19  1  0.21623960  0.87800838  0.15516577  1
  Al  Al20  1  0.78290607  0.75939846  0.83708375  1
  Al  Al21  1  0.45906584  0.75185857  0.41734428  1
  Al  Al22  1  0.11025392  0.75901530  0.90262064  1
  Al  Al23  1  0.23003015  0.86941428  0.65048720  1
  Al  Al24  1  0.79132298  0.74963941  0.33807387  1
  Al  Al25  1  0.91497540  0.86066514  0.16493741  1
  Al  Al26  1  0.41318711  0.77379089  0.90089222  1
  Al  Al27  1  0.53122058  0.88292319  0.67591845  1
  Gd  Gd28  1  0.76749444  0.09148926  0.91266032  1
  Gd  Gd29  1  0.88516916  0.20444965  0.62383045  1
  Gd  Gd30  1  0.45133226  0.08803541  0.41003445  1
  Gd  Gd31  1  0.77045305  0.43643738  0.88915094  1
  Gd  Gd32  1  0.88463237  0.53925266  0.61438841  1
  Gd  Gd33  1  0.53901160  0.54431809  0.14701189  1
  Gd  Gd34  1  0.88790765  0.87496754  0.61526249  1
  Gd  Gd35  1  0.56709939  0.87081799  0.11422940  1
  N  N36  1  0.20449304  0.21429505  0.33368217  1
  N  N37  1  0.11153200  0.09307624  0.09795761  1
  N  N38  1  0.91225981  0.18634280  0.85004423  1
  N  N39  1  0.72484816  0.11863988  0.58395352  1
  N  N40  1  0.55992062  0.22964100  0.33572468  1
  N  N41  1  0.42307253  0.12540750  0.09460469  1
  N  N42  1  0.20955660  0.21218205  0.85148160  1
  N  N43  1  0.14782859  0.07749881  0.58499712  1
  N  N44  1  0.90261296  0.19805452  0.35973318  1
  N  N45  1  0.78513673  0.08906921  0.14120195  1
  N  N46  1  0.51718507  0.23074698  0.84719426  1
  N  N47  1  0.43612121  0.09503010  0.63033979  1
  N  N48  1  0.23255344  0.53454433  0.34239693  1
  N  N49  1  0.11555299  0.42570522  0.09505928  1
  N  N50  1  0.90710170  0.54697606  0.85138287  1
  N  N51  1  0.73600327  0.44715081  0.65703058  1
  N  N52  1  0.56323769  0.53572582  0.36992733  1
  N  N53  1  0.41555132  0.42401922  0.08684001  1
  N  N54  1  0.21016908  0.54548653  0.84305855  1
  N  N55  1  0.14977275  0.40621361  0.58779799  1
  N  N56  1  0.90708943  0.52738297  0.36554798  1
  N  N57  1  0.80501238  0.41547654  0.14429276  1
  N  N58  1  0.50588798  0.56209992  0.85834565  1
  N  N59  1  0.43664827  0.43169273  0.60126846  1
  N  N60  1  0.23609270  0.86697192  0.34400563  1
  N  N61  1  0.11657910  0.76020057  0.09873315  1
  N  N62  1  0.90480109  0.85207823  0.85096509  1
  N  N63  1  0.73613135  0.78314887  0.65199814  1
  N  N64  1  0.57854728  0.83700264  0.34870168  1
  N  N65  1  0.40584036  0.78408518  0.08259827  1
  N  N66  1  0.20964391  0.87954306  0.84031084  1
  N  N67  1  0.15023878  0.74162143  0.58602474  1
  N  N68  1  0.90521960  0.86763166  0.36231655  1
  N  N69  1  0.82339454  0.73751813  0.15087301  1
  N  N70  1  0.54373395  0.87890230  0.86993823  1
  N  N71  1  0.44028652  0.76531331  0.60680251  1
