# generated using pymatgen
data_Gd2Al7N9
_symmetry_space_group_name_H-M   'P 1'
_cell_length_a   9.90989695
_cell_length_b   9.82063076
_cell_length_c   10.71024161
_cell_angle_alpha   90.21018742
_cell_angle_beta   89.25238427
_cell_angle_gamma   60.17445581
_symmetry_Int_Tables_number   1
_chemical_formula_structural   Gd2Al7N9
_chemical_formula_sum   'Gd8 Al28 N36'
_cell_volume   904.13326815
_cell_formula_units_Z   4
loop_
 _symmetry_equiv_pos_site_id
 _symmetry_equiv_pos_as_xyz
  1  'x, y, z'
loop_
 _atom_site_type_symbol
 _atom_site_label
 _atom_site_symmetry_multiplicity
 _atom_site_fract_x
 _atom_site_fract_y
 _atom_site_fract_z
 _atom_site_occupancy
  Al  Al0  1  0.11754418  0.09049817  0.29848649  1
  Al  Al1  1  0.21127501  0.21445673  0.05393958  1
  Al  Al2  1  0.53949879  0.21909536  0.11653857  1
  Al  Al3  1  0.11466199  0.09015682  0.81501720  1
  Al  Al4  1  0.22980447  0.19986016  0.60151961  1
  Al  Al5  1  0.78717700  0.09324123  0.27661208  1
  Al  Al6  1  0.90716366  0.19904966  0.06384179  1
  Al  Al7  1  0.42720997  0.10966536  0.87379479  1
  Al  Al8  1  0.53283651  0.21854645  0.63832108  1
  Al  Al9  1  0.11602363  0.42561217  0.29943353  1
  Al  Al10  1  0.20999069  0.54250779  0.05365336  1
  Al  Al11  1  0.46133740  0.42486273  0.38109911  1
  Al  Al12  1  0.11719991  0.43155239  0.81496690  1
  Al  Al13  1  0.22967217  0.53425873  0.55810272  1
  Al  Al14  1  0.79741888  0.42176079  0.29129335  1
  Al  Al15  1  0.91160889  0.53262725  0.05749865  1
  Al  Al16  1  0.41781846  0.43978593  0.87141517  1
  Al  Al17  1  0.53216518  0.54736162  0.62928374  1
  Al  Al18  1  0.11956199  0.75975748  0.30300486  1
  Al  Al19  1  0.20382069  0.88022069  0.04859237  1
  Al  Al20  1  0.78857777  0.75528285  0.81870081  1
  Al  Al21  1  0.46677466  0.74896346  0.38855584  1
  Al  Al22  1  0.11759693  0.75418643  0.80707628  1
  Al  Al23  1  0.22982872  0.86913007  0.56241393  1
  Al  Al24  1  0.79722302  0.74869917  0.28779452  1
  Al  Al25  1  0.90971937  0.85577069  0.05626711  1
  Al  Al26  1  0.41954930  0.76933879  0.86969907  1
  Al  Al27  1  0.54220998  0.87570555  0.64885408  1
  Gd  Gd28  1  0.76484299  0.09715843  0.84483565  1
  Gd  Gd29  1  0.88901945  0.20265759  0.54585610  1
  Gd  Gd30  1  0.45213124  0.09296839  0.37661902  1
  Gd  Gd31  1  0.76320251  0.44066204  0.83743257  1
  Gd  Gd32  1  0.89300364  0.53432808  0.55554906  1
  Gd  Gd33  1  0.53810027  0.54110528  0.12706870  1
  Gd  Gd34  1  0.88810487  0.87072268  0.55420850  1
  Gd  Gd35  1  0.55742897  0.87179134  0.09513610  1
  N  N36  1  0.19346599  0.21939908  0.36389584  1
  N  N37  1  0.12178496  0.08849478  0.11642040  1
  N  N38  1  0.91652137  0.19484785  0.88707728  1
  N  N39  1  0.75170113  0.10694005  0.62696024  1
  N  N40  1  0.56425767  0.22853549  0.29263189  1
  N  N41  1  0.43078333  0.12335465  0.05661015  1
  N  N42  1  0.20729312  0.21271968  0.86817880  1
  N  N43  1  0.13626206  0.07795749  0.63580070  1
  N  N44  1  0.89245208  0.20122104  0.32768957  1
  N  N45  1  0.78307672  0.08817241  0.09303289  1
  N  N46  1  0.50143646  0.23641934  0.81074357  1
  N  N47  1  0.44711088  0.08758258  0.59122143  1
  N  N48  1  0.21905795  0.54154094  0.36931888  1
  N  N49  1  0.11925499  0.42409870  0.11719878  1
  N  N50  1  0.90655416  0.54812507  0.87626549  1
  N  N51  1  0.75287739  0.43692933  0.62542130  1
  N  N52  1  0.56765475  0.53474060  0.33786224  1
  N  N53  1  0.43014548  0.41666060  0.04850536  1
  N  N54  1  0.20184047  0.55203540  0.87498848  1
  N  N55  1  0.14266415  0.41602845  0.63590009  1
  N  N56  1  0.89669378  0.53729289  0.34183719  1
  N  N57  1  0.80467548  0.42012140  0.10541341  1
  N  N58  1  0.49726607  0.56479367  0.80708666  1
  N  N59  1  0.45127142  0.41931428  0.55952472  1
  N  N60  1  0.22116150  0.87425263  0.37373154  1
  N  N61  1  0.12076749  0.75751642  0.12013498  1
  N  N62  1  0.90724711  0.84377493  0.87433487  1
  N  N63  1  0.76002956  0.76722151  0.64373555  1
  N  N64  1  0.57498327  0.84101533  0.31244311  1
  N  N65  1  0.41737802  0.76862883  0.04471591  1
  N  N66  1  0.19911007  0.88146794  0.86755534  1
  N  N67  1  0.14295235  0.74402203  0.62647531  1
  N  N68  1  0.88846216  0.87757316  0.33733842  1
  N  N69  1  0.81933583  0.74051519  0.11155357  1
  N  N70  1  0.54066869  0.87894027  0.83452101  1
  N  N71  1  0.45241554  0.76088519  0.57059003  1
