# generated using pymatgen
data_Gd2Al7N9
_symmetry_space_group_name_H-M   'P 1'
_cell_length_a   10.03834473
_cell_length_b   9.87160110
_cell_length_c   10.31739570
_cell_angle_alpha   90.13902206
_cell_angle_beta   90.15244227
_cell_angle_gamma   60.30345155
_symmetry_Int_Tables_number   1
_chemical_formula_structural   Gd2Al7N9
_chemical_formula_sum   'Gd8 Al28 N36'
_cell_volume   888.11336049
_cell_formula_units_Z   4
loop_
 _symmetry_equiv_pos_site_id
 _symmetry_equiv_pos_as_xyz
  1  'x, y, z'
loop_
 _atom_site_type_symbol
 _atom_site_label
 _atom_site_symmetry_multiplicity
 _atom_site_fract_x
 _atom_site_fract_y
 _atom_site_fract_z
 _atom_site_occupancy
  Al  Al0  1  0.11089145  0.09502634  0.30147487  1
  Al  Al1  1  0.21953236  0.20982636  0.05817086  1
  Al  Al2  1  0.53684997  0.21270373  0.09845089  1
  Al  Al3  1  0.12362615  0.08748310  0.81706075  1
  Al  Al4  1  0.22031065  0.20604076  0.56973628  1
  Al  Al5  1  0.78014003  0.09532575  0.28537600  1
  Al  Al6  1  0.90771560  0.20349420  0.06852567  1
  Al  Al7  1  0.42198235  0.11068326  0.80923300  1
  Al  Al8  1  0.54426455  0.21728650  0.60657090  1
  Al  Al9  1  0.11008694  0.42718556  0.30185325  1
  Al  Al10  1  0.21617805  0.53781322  0.06005237  1
  Al  Al11  1  0.43921428  0.42852840  0.31668174  1
  Al  Al12  1  0.12607397  0.42589781  0.81559814  1
  Al  Al13  1  0.23183082  0.53643634  0.56006614  1
  Al  Al14  1  0.78448653  0.42930986  0.29152587  1
  Al  Al15  1  0.91112258  0.53144544  0.05758223  1
  Al  Al16  1  0.41981556  0.44568130  0.80278590  1
  Al  Al17  1  0.54717375  0.54417652  0.54814038  1
  Al  Al18  1  0.11548900  0.76070815  0.30270527  1
  Al  Al19  1  0.21164136  0.87713600  0.05900949  1
  Al  Al20  1  0.79744348  0.75178650  0.81830693  1
  Al  Al21  1  0.44039966  0.76080506  0.31094322  1
  Al  Al22  1  0.12210677  0.75397689  0.81371995  1
  Al  Al23  1  0.23287000  0.86818760  0.56216878  1
  Al  Al24  1  0.78981574  0.75132030  0.28585908  1
  Al  Al25  1  0.90721759  0.85542035  0.06027184  1
  Al  Al26  1  0.42330755  0.76236639  0.80338089  1
  Al  Al27  1  0.54955947  0.87195874  0.63392344  1
  Gd  Gd28  1  0.76696541  0.09791835  0.84713223  1
  Gd  Gd29  1  0.89627273  0.19819711  0.54377356  1
  Gd  Gd30  1  0.44548159  0.08892264  0.34774601  1
  Gd  Gd31  1  0.77265031  0.43533011  0.81966364  1
  Gd  Gd32  1  0.90018628  0.53574451  0.55257928  1
  Gd  Gd33  1  0.54204620  0.53590484  0.07411496  1
  Gd  Gd34  1  0.89014336  0.87251666  0.55693075  1
  Gd  Gd35  1  0.55217286  0.87153954  0.06626507  1
  N  N36  1  0.17876776  0.22625607  0.38477174  1
  N  N37  1  0.11981203  0.09202486  0.11680643  1
  N  N38  1  0.92392543  0.19189237  0.88305411  1
  N  N39  1  0.75309659  0.11025665  0.62506915  1
  N  N40  1  0.57689448  0.21430775  0.34417878  1
  N  N41  1  0.42214070  0.11738599  0.11846223  1
  N  N42  1  0.21914093  0.20700921  0.87137158  1
  N  N43  1  0.14156237  0.07770655  0.63278576  1
  N  N44  1  0.88993117  0.20353082  0.32168175  1
  N  N45  1  0.76955148  0.09620023  0.09457665  1
  N  N46  1  0.50960909  0.23319675  0.84066614  1
  N  N47  1  0.43957964  0.09594309  0.60734012  1
  N  N48  1  0.21654441  0.54078750  0.37072996  1
  N  N49  1  0.11713853  0.42329123  0.11537488  1
  N  N50  1  0.91527729  0.54228721  0.86896835  1
  N  N51  1  0.75263503  0.43983921  0.60111572  1
  N  N52  1  0.55249199  0.53911032  0.35424457  1
  N  N53  1  0.41342810  0.42252231  0.13314504  1
  N  N54  1  0.22023674  0.54315172  0.87422906  1
  N  N55  1  0.14744270  0.41363125  0.63212131  1
  N  N56  1  0.89426659  0.53800286  0.33592943  1
  N  N57  1  0.80270381  0.42288749  0.10337345  1
  N  N58  1  0.51728591  0.55644839  0.85831615  1
  N  N59  1  0.44042521  0.43728671  0.61009469  1
  N  N60  1  0.21741186  0.87747933  0.37294809  1
  N  N61  1  0.11556712  0.75903362  0.11614024  1
  N  N62  1  0.91422388  0.84270416  0.87143339  1
  N  N63  1  0.76055802  0.76864192  0.63819895  1
  N  N64  1  0.58146634  0.83460710  0.32232068  1
  N  N65  1  0.40389692  0.77799041  0.13144520  1
  N  N66  1  0.22041880  0.87251004  0.87211676  1
  N  N67  1  0.14172317  0.74758050  0.62709384  1
  N  N68  1  0.89186925  0.87379572  0.33412463  1
  N  N69  1  0.81055485  0.74344560  0.10346737  1
  N  N70  1  0.54254533  0.87861194  0.83190164  1
  N  N71  1  0.44296770  0.75884433  0.61375894  1
