# generated using pymatgen
data_Gd2Al7N9
_symmetry_space_group_name_H-M   'P 1'
_cell_length_a   10.03924261
_cell_length_b   9.83650092
_cell_length_c   10.49875052
_cell_angle_alpha   90.03094576
_cell_angle_beta   90.07571949
_cell_angle_gamma   60.25021816
_symmetry_Int_Tables_number   1
_chemical_formula_structural   Gd2Al7N9
_chemical_formula_sum   'Gd8 Al28 N36'
_cell_volume   900.11697746
_cell_formula_units_Z   4
loop_
 _symmetry_equiv_pos_site_id
 _symmetry_equiv_pos_as_xyz
  1  'x, y, z'
loop_
 _atom_site_type_symbol
 _atom_site_label
 _atom_site_symmetry_multiplicity
 _atom_site_fract_x
 _atom_site_fract_y
 _atom_site_fract_z
 _atom_site_occupancy
  Al  Al0  1  0.11230425  0.09406842  0.30311854  1
  Al  Al1  1  0.21125007  0.21271480  0.05865841  1
  Al  Al2  1  0.54033578  0.21414055  0.11999389  1
  Al  Al3  1  0.12243332  0.08857088  0.81280453  1
  Al  Al4  1  0.22279458  0.20388639  0.56599104  1
  Al  Al5  1  0.78829304  0.09314318  0.27828272  1
  Al  Al6  1  0.91132078  0.19752296  0.06225455  1
  Al  Al7  1  0.42296463  0.11294095  0.87679576  1
  Al  Al8  1  0.52738865  0.22008851  0.63307736  1
  Al  Al9  1  0.11249038  0.42733190  0.30435996  1
  Al  Al10  1  0.20647959  0.54246072  0.05736693  1
  Al  Al11  1  0.46043784  0.42678718  0.37294456  1
  Al  Al12  1  0.12319803  0.42677082  0.80932234  1
  Al  Al13  1  0.22874081  0.53732230  0.55586181  1
  Al  Al14  1  0.78977866  0.42679084  0.28746111  1
  Al  Al15  1  0.91711815  0.52970823  0.05688147  1
  Al  Al16  1  0.41552910  0.43486947  0.87561470  1
  Al  Al17  1  0.53746327  0.54461016  0.61829021  1
  Al  Al18  1  0.11818652  0.75890945  0.30211937  1
  Al  Al19  1  0.21055707  0.87779089  0.05770866  1
  Al  Al20  1  0.79690650  0.75378021  0.81835696  1
  Al  Al21  1  0.44365844  0.75812347  0.30582239  1
  Al  Al22  1  0.11990209  0.75569459  0.80917799  1
  Al  Al23  1  0.23331816  0.86892431  0.56193134  1
  Al  Al24  1  0.79649254  0.74947509  0.28463350  1
  Al  Al25  1  0.91027956  0.85706607  0.05560466  1
  Al  Al26  1  0.41931549  0.76802664  0.81291762  1
  Al  Al27  1  0.54119046  0.88607763  0.64758921  1
  Gd  Gd28  1  0.76082872  0.10115337  0.84605878  1
  Gd  Gd29  1  0.88632047  0.20414075  0.54863178  1
  Gd  Gd30  1  0.45386232  0.08550288  0.36003277  1
  Gd  Gd31  1  0.77613098  0.43435761  0.83370831  1
  Gd  Gd32  1  0.88977993  0.54031010  0.55510519  1
  Gd  Gd33  1  0.54665314  0.53086884  0.09337459  1
  Gd  Gd34  1  0.88539055  0.87550386  0.55753017  1
  Gd  Gd35  1  0.56361194  0.85933413  0.07408208  1
  N  N36  1  0.18735629  0.22160417  0.37881969  1
  N  N37  1  0.11895091  0.09147409  0.11957356  1
  N  N38  1  0.92447859  0.18576901  0.88049841  1
  N  N39  1  0.74410784  0.11307131  0.62495309  1
  N  N40  1  0.57011804  0.22209853  0.29788482  1
  N  N41  1  0.43070211  0.11563555  0.06877892  1
  N  N42  1  0.20779459  0.21350649  0.87393323  1
  N  N43  1  0.13703380  0.08106372  0.63023925  1
  N  N44  1  0.89102552  0.20336431  0.32823487  1
  N  N45  1  0.78095119  0.09123792  0.09086905  1
  N  N46  1  0.49809368  0.23524087  0.81046092  1
  N  N47  1  0.44329750  0.09113535  0.57936649  1
  N  N48  1  0.21870498  0.54120054  0.36628882  1
  N  N49  1  0.12014495  0.42133919  0.12113250  1
  N  N50  1  0.91515675  0.54562214  0.87118518  1
  N  N51  1  0.74910953  0.44230694  0.61889367  1
  N  N52  1  0.56501968  0.53395886  0.32277509  1
  N  N53  1  0.41999512  0.41207336  0.05709128  1
  N  N54  1  0.20328044  0.55100188  0.87297838  1
  N  N55  1  0.14343851  0.41512802  0.62751281  1
  N  N56  1  0.89562997  0.53690348  0.33970985  1
  N  N57  1  0.81131247  0.41772783  0.09858725  1
  N  N58  1  0.51495167  0.55149882  0.84263439  1
  N  N59  1  0.44841849  0.42593534  0.55839661  1
  N  N60  1  0.22417393  0.87345556  0.37334148  1
  N  N61  1  0.11617063  0.75944042  0.11720840  1
  N  N62  1  0.91145068  0.84745586  0.86934642  1
  N  N63  1  0.75483678  0.77324518  0.64258551  1
  N  N64  1  0.58294837  0.83699903  0.30747564  1
  N  N65  1  0.40174062  0.77925488  0.12701985  1
  N  N66  1  0.21637896  0.87465794  0.87340367  1
  N  N67  1  0.14150691  0.74718336  0.62527631  1
  N  N68  1  0.89189892  0.87575117  0.33682022  1
  N  N69  1  0.82193308  0.73942682  0.10581603  1
  N  N70  1  0.54102345  0.88255033  0.84022499  1
  N  N71  1  0.43766981  0.76678089  0.62706030  1
