# generated using pymatgen
data_Gd2Al7N9
_symmetry_space_group_name_H-M   'P 1'
_cell_length_a   9.90679133
_cell_length_b   9.82478857
_cell_length_c   10.72070226
_cell_angle_alpha   90.22166213
_cell_angle_beta   89.20026913
_cell_angle_gamma   60.17659733
_symmetry_Int_Tables_number   1
_chemical_formula_structural   Gd2Al7N9
_chemical_formula_sum   'Gd8 Al28 N36'
_cell_volume   905.11580644
_cell_formula_units_Z   4
loop_
 _symmetry_equiv_pos_site_id
 _symmetry_equiv_pos_as_xyz
  1  'x, y, z'
loop_
 _atom_site_type_symbol
 _atom_site_label
 _atom_site_symmetry_multiplicity
 _atom_site_fract_x
 _atom_site_fract_y
 _atom_site_fract_z
 _atom_site_occupancy
  Al  Al0  1  0.11762733  0.09035886  0.29615807  1
  Al  Al1  1  0.21130981  0.21444873  0.05508549  1
  Al  Al2  1  0.53877483  0.21925520  0.11680232  1
  Al  Al3  1  0.11339128  0.08837360  0.81580971  1
  Al  Al4  1  0.23309341  0.19847520  0.62256683  1
  Al  Al5  1  0.78657023  0.09313152  0.27677015  1
  Al  Al6  1  0.90639010  0.19906656  0.06375239  1
  Al  Al7  1  0.42867641  0.10894591  0.87370996  1
  Al  Al8  1  0.53373502  0.21870193  0.63857277  1
  Al  Al9  1  0.11607679  0.42564347  0.29705257  1
  Al  Al10  1  0.20993154  0.54317598  0.05325238  1
  Al  Al11  1  0.46138863  0.42461314  0.38084067  1
  Al  Al12  1  0.11561389  0.43472826  0.81581714  1
  Al  Al13  1  0.22980426  0.53411952  0.55783011  1
  Al  Al14  1  0.79792511  0.42139709  0.29114373  1
  Al  Al15  1  0.91051343  0.53347299  0.05730058  1
  Al  Al16  1  0.41827359  0.43984954  0.87157506  1
  Al  Al17  1  0.53240349  0.54724045  0.62899712  1
  Al  Al18  1  0.11954745  0.75976524  0.30300286  1
  Al  Al19  1  0.20385336  0.87948528  0.04820208  1
  Al  Al20  1  0.78805373  0.75561883  0.81867492  1
  Al  Al21  1  0.46691032  0.74895746  0.38851529  1
  Al  Al22  1  0.11761439  0.75415046  0.80668035  1
  Al  Al23  1  0.22994709  0.86924666  0.56210777  1
  Al  Al24  1  0.79673703  0.74915478  0.28811033  1
  Al  Al25  1  0.90921799  0.85591173  0.05635723  1
  Al  Al26  1  0.42017110  0.76903615  0.86985293  1
  Al  Al27  1  0.54299760  0.87472274  0.64903089  1
  Gd  Gd28  1  0.76500760  0.09687900  0.84470816  1
  Gd  Gd29  1  0.89024430  0.20216402  0.54539528  1
  Gd  Gd30  1  0.44835214  0.09494734  0.37929815  1
  Gd  Gd31  1  0.76331641  0.44054551  0.83678025  1
  Gd  Gd32  1  0.89420263  0.53355583  0.55505876  1
  Gd  Gd33  1  0.53819725  0.54113942  0.12723005  1
  Gd  Gd34  1  0.88820591  0.87062852  0.55388604  1
  Gd  Gd35  1  0.55608114  0.87302889  0.09676704  1
  N  N36  1  0.19509796  0.21867768  0.35171608  1
  N  N37  1  0.12113900  0.08790090  0.11404414  1
  N  N38  1  0.91592428  0.19509915  0.88725690  1
  N  N39  1  0.75238164  0.10687645  0.62684047  1
  N  N40  1  0.56344880  0.22797644  0.29280460  1
  N  N41  1  0.43017392  0.12394668  0.05477701  1
  N  N42  1  0.20852430  0.21191288  0.86227978  1
  N  N43  1  0.13613293  0.07714100  0.63690282  1
  N  N44  1  0.89242627  0.20087134  0.32730654  1
  N  N45  1  0.78253308  0.08818990  0.09308095  1
  N  N46  1  0.50194487  0.23672392  0.81083325  1
  N  N47  1  0.44689814  0.08764485  0.59432188  1
  N  N48  1  0.21904606  0.54146753  0.36904619  1
  N  N49  1  0.11838716  0.42539735  0.11468099  1
  N  N50  1  0.90576070  0.54875959  0.87647742  1
  N  N51  1  0.75343417  0.43662246  0.62496616  1
  N  N52  1  0.56779842  0.53462630  0.33778320  1
  N  N53  1  0.43015546  0.41679897  0.04858037  1
  N  N54  1  0.20231218  0.55264989  0.87501974  1
  N  N55  1  0.14257570  0.41708868  0.63712859  1
  N  N56  1  0.89682920  0.53741852  0.34150004  1
  N  N57  1  0.80472521  0.41996124  0.10542163  1
  N  N58  1  0.49764333  0.56472991  0.80685606  1
  N  N59  1  0.45145818  0.41907837  0.55932865  1
  N  N60  1  0.22114478  0.87439982  0.37347600  1
  N  N61  1  0.12046775  0.75756913  0.12012239  1
  N  N62  1  0.90724774  0.84359413  0.87437624  1
  N  N63  1  0.76070193  0.76652406  0.64360385  1
  N  N64  1  0.57435854  0.84218982  0.31334984  1
  N  N65  1  0.41765363  0.76854285  0.04468619  1
  N  N66  1  0.19958978  0.88038369  0.86765986  1
  N  N67  1  0.14301319  0.74399788  0.62622607  1
  N  N68  1  0.88861938  0.87745572  0.33728683  1
  N  N69  1  0.81817565  0.74119834  0.11172688  1
  N  N70  1  0.54128268  0.87837936  0.83451503  1
  N  N71  1  0.45255401  0.76075695  0.57051920  1
