# generated using pymatgen
data_Gd2Al7N9
_symmetry_space_group_name_H-M   'P 1'
_cell_length_a   9.92043171
_cell_length_b   9.81548524
_cell_length_c   10.67610944
_cell_angle_alpha   90.17592387
_cell_angle_beta   89.43336066
_cell_angle_gamma   60.17973824
_symmetry_Int_Tables_number   1
_chemical_formula_structural   Gd2Al7N9
_chemical_formula_sum   'Gd8 Al28 N36'
_cell_volume   901.84120837
_cell_formula_units_Z   4
loop_
 _symmetry_equiv_pos_site_id
 _symmetry_equiv_pos_as_xyz
  1  'x, y, z'
loop_
 _atom_site_type_symbol
 _atom_site_label
 _atom_site_symmetry_multiplicity
 _atom_site_fract_x
 _atom_site_fract_y
 _atom_site_fract_z
 _atom_site_occupancy
  Al  Al0  1  0.11726014  0.09017121  0.30307210  1
  Al  Al1  1  0.21198636  0.21384957  0.05540875  1
  Al  Al2  1  0.54140719  0.21866362  0.11628644  1
  Al  Al3  1  0.11603494  0.09254322  0.81230745  1
  Al  Al4  1  0.22358971  0.20268970  0.57236017  1
  Al  Al5  1  0.78891371  0.09330340  0.27673479  1
  Al  Al6  1  0.90889822  0.19894983  0.06385972  1
  Al  Al7  1  0.42513342  0.11056143  0.87460079  1
  Al  Al8  1  0.52995060  0.21785357  0.63716070  1
  Al  Al9  1  0.11588814  0.42623470  0.30418646  1
  Al  Al10  1  0.21030706  0.54116392  0.05449731  1
  Al  Al11  1  0.46155255  0.42513416  0.38194267  1
  Al  Al12  1  0.11935881  0.42743182  0.81215154  1
  Al  Al13  1  0.22913570  0.53433972  0.55870545  1
  Al  Al14  1  0.79684527  0.42231793  0.29186018  1
  Al  Al15  1  0.91434976  0.53064387  0.05771880  1
  Al  Al16  1  0.41668331  0.43953418  0.87097775  1
  Al  Al17  1  0.53111032  0.54793021  0.63028378  1
  Al  Al18  1  0.12003821  0.75953152  0.30310533  1
  Al  Al19  1  0.20397519  0.88159751  0.04943410  1
  Al  Al20  1  0.78952708  0.75487805  0.81855102  1
  Al  Al21  1  0.46688311  0.74877173  0.38868177  1
  Al  Al22  1  0.11755379  0.75433448  0.80762640  1
  Al  Al23  1  0.22935058  0.86965810  0.56296689  1
  Al  Al24  1  0.79879139  0.74730609  0.28732962  1
  Al  Al25  1  0.91121241  0.85535390  0.05610373  1
  Al  Al26  1  0.41804467  0.77014022  0.86932621  1
  Al  Al27  1  0.53968612  0.87903616  0.64777238  1
  Gd  Gd28  1  0.76415389  0.09802147  0.84477239  1
  Gd  Gd29  1  0.88573741  0.20418419  0.54785614  1
  Gd  Gd30  1  0.45812717  0.08926488  0.37056864  1
  Gd  Gd31  1  0.76233295  0.44132226  0.83960556  1
  Gd  Gd32  1  0.88991831  0.53617609  0.55762991  1
  Gd  Gd33  1  0.53799736  0.54095042  0.12673540  1
  Gd  Gd34  1  0.88766331  0.87109665  0.55508253  1
  Gd  Gd35  1  0.56125388  0.86856175  0.09110337  1
  N  N36  1  0.19138634  0.22025566  0.38056311  1
  N  N37  1  0.12282474  0.08934743  0.12060103  1
  N  N38  1  0.91781991  0.19443751  0.88635317  1
  N  N39  1  0.74935365  0.10714616  0.62716905  1
  N  N40  1  0.56663106  0.22921766  0.29273160  1
  N  N41  1  0.43179567  0.12199443  0.06070018  1
  N  N42  1  0.20633692  0.21333252  0.87341966  1
  N  N43  1  0.13606559  0.08004526  0.63241016  1
  N  N44  1  0.89307184  0.20180786  0.32909125  1
  N  N45  1  0.78437611  0.08813610  0.09295340  1
  N  N46  1  0.50002891  0.23572023  0.81055470  1
  N  N47  1  0.44578536  0.08825020  0.58393022  1
  N  N48  1  0.21961055  0.54148339  0.36955717  1
  N  N49  1  0.12109901  0.42181653  0.12167708  1
  N  N50  1  0.90817777  0.54686167  0.87536502  1
  N  N51  1  0.75096260  0.43796145  0.62738143  1
  N  N52  1  0.56781133  0.53465529  0.33818082  1
  N  N53  1  0.43011870  0.41610955  0.04849182  1
  N  N54  1  0.20086163  0.55096696  0.87482059  1
  N  N55  1  0.14239882  0.41417691  0.63233989  1
  N  N56  1  0.89708079  0.53652139  0.34316017  1
  N  N57  1  0.80481316  0.42040901  0.10527712  1
  N  N58  1  0.49607349  0.56509513  0.80816876  1
  N  N59  1  0.45058292  0.42006544  0.56032615  1
  N  N60  1  0.22182342  0.87366151  0.37385381  1
  N  N61  1  0.12177640  0.75727930  0.12004965  1
  N  N62  1  0.90724800  0.84436838  0.87403699  1
  N  N63  1  0.75769830  0.76956822  0.64396471  1
  N  N64  1  0.57710547  0.83786927  0.31028567  1
  N  N65  1  0.41689711  0.76905262  0.04507047  1
  N  N66  1  0.19815033  0.88347797  0.86727951  1
  N  N67  1  0.14282519  0.74419463  0.62677634  1
  N  N68  1  0.88877692  0.87747275  0.33739152  1
  N  N69  1  0.82266366  0.73852977  0.11114675  1
  N  N70  1  0.53911672  0.88043065  0.83481127  1
  N  N71  1  0.45191614  0.76126721  0.57094078  1
