# generated using pymatgen
data_Gd2Al7N9
_symmetry_space_group_name_H-M   'P 1'
_cell_length_a   9.90184931
_cell_length_b   9.83013511
_cell_length_c   10.74044589
_cell_angle_alpha   90.18466549
_cell_angle_beta   89.77793242
_cell_angle_gamma   60.28812290
_symmetry_Int_Tables_number   1
_chemical_formula_structural   Gd2Al7N9
_chemical_formula_sum   'Gd8 Al28 N36'
_cell_volume   907.96989856
_cell_formula_units_Z   4
loop_
 _symmetry_equiv_pos_site_id
 _symmetry_equiv_pos_as_xyz
  1  'x, y, z'
loop_
 _atom_site_type_symbol
 _atom_site_label
 _atom_site_symmetry_multiplicity
 _atom_site_fract_x
 _atom_site_fract_y
 _atom_site_fract_z
 _atom_site_occupancy
  Al  Al0  1  0.12706067  0.08254367  0.38798209  1
  Al  Al1  1  0.21904364  0.20636659  0.14516257  1
  Al  Al2  1  0.53977262  0.21885602  0.13836041  1
  Al  Al3  1  0.11476320  0.09543583  0.89962771  1
  Al  Al4  1  0.22614880  0.19553316  0.65651202  1
  Al  Al5  1  0.79409428  0.08838987  0.29694817  1
  Al  Al6  1  0.89826014  0.20339030  0.08241335  1
  Al  Al7  1  0.41523555  0.11688614  0.89759333  1
  Al  Al8  1  0.52387360  0.21981264  0.66150974  1
  Al  Al9  1  0.11771962  0.43200536  0.31696656  1
  Al  Al10  1  0.21090597  0.54149447  0.07069362  1
  Al  Al11  1  0.46618111  0.42087095  0.40262377  1
  Al  Al12  1  0.11526804  0.43515356  0.82745087  1
  Al  Al13  1  0.22870333  0.53346475  0.57343559  1
  Al  Al14  1  0.80461717  0.41680981  0.31125795  1
  Al  Al15  1  0.91508552  0.53115961  0.07551597  1
  Al  Al16  1  0.41723099  0.44098650  0.89261696  1
  Al  Al17  1  0.52571643  0.55185457  0.65247580  1
  Al  Al18  1  0.12412720  0.75423085  0.32135496  1
  Al  Al19  1  0.21371316  0.87839350  0.11811833  1
  Al  Al20  1  0.79049325  0.75583130  0.83963881  1
  Al  Al21  1  0.46292636  0.74874420  0.40866749  1
  Al  Al22  1  0.11744379  0.75443175  0.82326832  1
  Al  Al23  1  0.22865274  0.87479421  0.63092696  1
  Al  Al24  1  0.80044758  0.74516694  0.30661456  1
  Al  Al25  1  0.91149868  0.85445868  0.07481819  1
  Al  Al26  1  0.41255609  0.77563890  0.88639177  1
  Al  Al27  1  0.54161019  0.87891546  0.67177482  1
  Gd  Gd28  1  0.75901995  0.09675181  0.86369005  1
  Gd  Gd29  1  0.86029714  0.21766879  0.56859197  1
  Gd  Gd30  1  0.45632447  0.08766709  0.39944311  1
  Gd  Gd31  1  0.75521498  0.44883171  0.86109350  1
  Gd  Gd32  1  0.88645826  0.53807641  0.57770867  1
  Gd  Gd33  1  0.53625299  0.54540545  0.15140932  1
  Gd  Gd34  1  0.88654376  0.87197116  0.57337861  1
  Gd  Gd35  1  0.55914515  0.87166503  0.11079496  1
  N  N36  1  0.21102148  0.20647470  0.32418777  1
  N  N37  1  0.12093606  0.09187787  0.08552981  1
  N  N38  1  0.90116457  0.20290447  0.90412995  1
  N  N39  1  0.74221868  0.10422666  0.64987987  1
  N  N40  1  0.56964224  0.22296777  0.31517625  1
  N  N41  1  0.42363237  0.12682454  0.07870783  1
  N  N42  1  0.20937480  0.20620220  0.83807786  1
  N  N43  1  0.13112483  0.08834277  0.57446967  1
  N  N44  1  0.90158491  0.19557075  0.35082466  1
  N  N45  1  0.78312196  0.08688426  0.11460009  1
  N  N46  1  0.49525662  0.23887857  0.83401975  1
  N  N47  1  0.44038979  0.08940613  0.61202956  1
  N  N48  1  0.22561474  0.53722007  0.38659759  1
  N  N49  1  0.11913910  0.42947968  0.13654432  1
  N  N50  1  0.90902892  0.54737326  0.89529692  1
  N  N51  1  0.74424012  0.44689776  0.65282538  1
  N  N52  1  0.57543958  0.52910308  0.36203765  1
  N  N53  1  0.43252006  0.41739671  0.07041596  1
  N  N54  1  0.20189043  0.55236597  0.89306566  1
  N  N55  1  0.13829609  0.42034015  0.64709962  1
  N  N56  1  0.90327717  0.53262521  0.36383737  1
  N  N57  1  0.80359368  0.42156393  0.12726937  1
  N  N58  1  0.49080181  0.56927603  0.82867445  1
  N  N59  1  0.45126558  0.41874169  0.58046439  1
  N  N60  1  0.24054283  0.85959607  0.35406943  1
  N  N61  1  0.12022497  0.75425718  0.13806162  1
  N  N62  1  0.91096921  0.84373071  0.89487260  1
  N  N63  1  0.75860393  0.77018929  0.66542965  1
  N  N64  1  0.57931716  0.83675856  0.33170809  1
  N  N65  1  0.41142993  0.77192083  0.05970473  1
  N  N66  1  0.20556814  0.89100292  0.83379076  1
  N  N67  1  0.13961749  0.74044262  0.64202240  1
  N  N68  1  0.89446706  0.87263488  0.35669140  1
  N  N69  1  0.82043797  0.73923440  0.13037883  1
  N  N70  1  0.54258827  0.88064764  0.85865070  1
  N  N71  1  0.44713331  0.76495537  0.59278453  1
