# generated using pymatgen
data_Gd2Al7N9
_symmetry_space_group_name_H-M   'P 1'
_cell_length_a   9.94010915
_cell_length_b   9.83068954
_cell_length_c   10.35871922
_cell_angle_alpha   90.29189774
_cell_angle_beta   89.81375303
_cell_angle_gamma   60.26525932
_symmetry_Int_Tables_number   1
_chemical_formula_structural   Gd2Al7N9
_chemical_formula_sum   'Gd8 Al28 N36'
_cell_volume   878.92379345
_cell_formula_units_Z   4
loop_
 _symmetry_equiv_pos_site_id
 _symmetry_equiv_pos_as_xyz
  1  'x, y, z'
loop_
 _atom_site_type_symbol
 _atom_site_label
 _atom_site_symmetry_multiplicity
 _atom_site_fract_x
 _atom_site_fract_y
 _atom_site_fract_z
 _atom_site_occupancy
  Al  Al0  1  0.10599616  0.09647549  0.29373554  1
  Al  Al1  1  0.21802030  0.21019914  0.04768478  1
  Al  Al2  1  0.52683864  0.21848874  0.05012872  1
  Al  Al3  1  0.12898446  0.08437268  0.81217126  1
  Al  Al4  1  0.22578719  0.20358156  0.56580819  1
  Al  Al5  1  0.77011464  0.09973119  0.27947385  1
  Al  Al6  1  0.90271241  0.20220982  0.06400673  1
  Al  Al7  1  0.43534015  0.10174128  0.79224311  1
  Al  Al8  1  0.55544749  0.21386203  0.55278436  1
  Al  Al9  1  0.10376831  0.43106716  0.29459656  1
  Al  Al10  1  0.21633599  0.53688706  0.05511041  1
  Al  Al11  1  0.43672863  0.42958717  0.30995109  1
  Al  Al12  1  0.12681310  0.42562891  0.81115788  1
  Al  Al13  1  0.23520897  0.53323468  0.55780448  1
  Al  Al14  1  0.77861966  0.43072765  0.28475982  1
  Al  Al15  1  0.90482407  0.53620261  0.05275761  1
  Al  Al16  1  0.42789731  0.43741421  0.79640465  1
  Al  Al17  1  0.54926852  0.53968814  0.54405242  1
  Al  Al18  1  0.11091705  0.76314839  0.29628083  1
  Al  Al19  1  0.21507189  0.87783605  0.05500349  1
  Al  Al20  1  0.78694672  0.75680361  0.80465874  1
  Al  Al21  1  0.43658391  0.76265974  0.31560699  1
  Al  Al22  1  0.12727540  0.75090782  0.81176456  1
  Al  Al23  1  0.23343873  0.86659540  0.55891877  1
  Al  Al24  1  0.78209795  0.75639143  0.29025827  1
  Al  Al25  1  0.90131587  0.85908340  0.05516460  1
  Al  Al26  1  0.43599108  0.76434468  0.78914493  1
  Al  Al27  1  0.55792455  0.86507640  0.55974094  1
  Gd  Gd28  1  0.77253532  0.09408637  0.83158081  1
  Gd  Gd29  1  0.90262790  0.19475406  0.53357107  1
  Gd  Gd30  1  0.43179535  0.10112488  0.32501493  1
  Gd  Gd31  1  0.77803840  0.43042061  0.81317355  1
  Gd  Gd32  1  0.90501835  0.53054029  0.54564257  1
  Gd  Gd33  1  0.53639191  0.54201841  0.06582947  1
  Gd  Gd34  1  0.89854782  0.86760717  0.55096733  1
  Gd  Gd35  1  0.55159667  0.87393200  0.04894942  1
  N  N36  1  0.17186388  0.22987690  0.38095770  1
  N  N37  1  0.11872231  0.09336885  0.11104621  1
  N  N38  1  0.92770110  0.18711661  0.88028135  1
  N  N39  1  0.75612722  0.10841861  0.61521798  1
  N  N40  1  0.57082791  0.21944015  0.36685393  1
  N  N41  1  0.42262782  0.11840910  0.10895640  1
  N  N42  1  0.22605733  0.20390085  0.86198105  1
  N  N43  1  0.14489769  0.07569427  0.62876394  1
  N  N44  1  0.88350666  0.20593046  0.31234557  1
  N  N45  1  0.76400820  0.09771139  0.08981257  1
  N  N46  1  0.51257905  0.23013856  0.86522277  1
  N  N47  1  0.44684427  0.09516200  0.59546276  1
  N  N48  1  0.21218149  0.54285700  0.36680409  1
  N  N49  1  0.11383567  0.42450006  0.10906044  1
  N  N50  1  0.91215344  0.54695878  0.86476016  1
  N  N51  1  0.75602439  0.43524564  0.59517783  1
  N  N52  1  0.55060765  0.53903905  0.34915935  1
  N  N53  1  0.41649914  0.41721270  0.12920432  1
  N  N54  1  0.22536976  0.53942521  0.87031473  1
  N  N55  1  0.14982479  0.41177860  0.62899403  1
  N  N56  1  0.88734160  0.54036162  0.33008709  1
  N  N57  1  0.79711265  0.42470856  0.09709547  1
  N  N58  1  0.52099035  0.55691605  0.84921758  1
  N  N59  1  0.44590654  0.42881130  0.60651381  1
  N  N60  1  0.20935446  0.88093405  0.37028236  1
  N  N61  1  0.11517724  0.75979075  0.11044487  1
  N  N62  1  0.91345949  0.83988942  0.86678761  1
  N  N63  1  0.76081427  0.76770048  0.62413392  1
  N  N64  1  0.57458104  0.84132256  0.36719510  1
  N  N65  1  0.40740335  0.78494638  0.13706253  1
  N  N66  1  0.23024408  0.86907807  0.86825874  1
  N  N67  1  0.14769483  0.74329738  0.62641161  1
  N  N68  1  0.88568274  0.87810624  0.33028912  1
  N  N69  1  0.80217495  0.74822788  0.10854891  1
  N  N70  1  0.55269538  0.87509381  0.83163605  1
  N  N71  1  0.44654290  0.75720413  0.60124723  1
