# generated using pymatgen
data_Gd2Al7N9
_symmetry_space_group_name_H-M   'P 1'
_cell_length_a   10.03589565
_cell_length_b   9.85515213
_cell_length_c   10.49539913
_cell_angle_alpha   90.01865857
_cell_angle_beta   90.02746739
_cell_angle_gamma   60.23548767
_symmetry_Int_Tables_number   1
_chemical_formula_structural   Gd2Al7N9
_chemical_formula_sum   'Gd8 Al28 N36'
_cell_volume   901.10349756
_cell_formula_units_Z   4
loop_
 _symmetry_equiv_pos_site_id
 _symmetry_equiv_pos_as_xyz
  1  'x, y, z'
loop_
 _atom_site_type_symbol
 _atom_site_label
 _atom_site_symmetry_multiplicity
 _atom_site_fract_x
 _atom_site_fract_y
 _atom_site_fract_z
 _atom_site_occupancy
  Al  Al0  1  0.11537152  0.09261498  0.30318063  1
  Al  Al1  1  0.21140130  0.21246632  0.05860064  1
  Al  Al2  1  0.53895538  0.21693969  0.12018995  1
  Al  Al3  1  0.11854195  0.09073505  0.80939222  1
  Al  Al4  1  0.22076439  0.20462043  0.56479078  1
  Al  Al5  1  0.78966550  0.09294346  0.27807255  1
  Al  Al6  1  0.91296997  0.19544620  0.06212240  1
  Al  Al7  1  0.42216228  0.11316954  0.87757079  1
  Al  Al8  1  0.52504704  0.22011611  0.63409412  1
  Al  Al9  1  0.11438024  0.42696759  0.30447356  1
  Al  Al10  1  0.20763422  0.54248957  0.05628370  1
  Al  Al11  1  0.46139859  0.42711731  0.37768666  1
  Al  Al12  1  0.12212583  0.42664225  0.80854515  1
  Al  Al13  1  0.22758993  0.53695433  0.55587288  1
  Al  Al14  1  0.79628280  0.42357781  0.28653138  1
  Al  Al15  1  0.91949236  0.52937610  0.05564385  1
  Al  Al16  1  0.41402347  0.43477650  0.87432225  1
  Al  Al17  1  0.52975393  0.54658357  0.64011899  1
  Al  Al18  1  0.12101564  0.75730233  0.30198016  1
  Al  Al19  1  0.20802357  0.87941335  0.04978625  1
  Al  Al20  1  0.79394589  0.75561803  0.81788667  1
  Al  Al21  1  0.45412964  0.75320009  0.33299051  1
  Al  Al22  1  0.11748708  0.75575929  0.80632493  1
  Al  Al23  1  0.23335893  0.86881707  0.56628718  1
  Al  Al24  1  0.80061487  0.74674388  0.28545002  1
  Al  Al25  1  0.91292230  0.85600759  0.05537916  1
  Al  Al26  1  0.41916770  0.77020897  0.83856631  1
  Al  Al27  1  0.53767861  0.88544254  0.65091460  1
  Gd  Gd28  1  0.75921996  0.10108319  0.84607304  1
  Gd  Gd29  1  0.87944354  0.20841668  0.55010674  1
  Gd  Gd30  1  0.45561997  0.08693140  0.36197246  1
  Gd  Gd31  1  0.77381060  0.43541371  0.83930667  1
  Gd  Gd32  1  0.88501970  0.54065311  0.55884865  1
  Gd  Gd33  1  0.54860276  0.52877691  0.10097383  1
  Gd  Gd34  1  0.88392154  0.87557776  0.55748905  1
  Gd  Gd35  1  0.56839970  0.86333052  0.07683114  1
  N  N36  1  0.19081045  0.22048191  0.37651452  1
  N  N37  1  0.12154542  0.08851245  0.11980928  1
  N  N38  1  0.92221375  0.18681297  0.88071137  1
  N  N39  1  0.74173026  0.11232349  0.62530599  1
  N  N40  1  0.57092531  0.22458050  0.29839550  1
  N  N41  1  0.42916518  0.11921287  0.06973182  1
  N  N42  1  0.20646289  0.21286665  0.87332953  1
  N  N43  1  0.13185969  0.08427190  0.62662825  1
  N  N44  1  0.89345185  0.20219138  0.32849061  1
  N  N45  1  0.78219742  0.09018161  0.09155595  1
  N  N46  1  0.49652493  0.23496147  0.81093697  1
  N  N47  1  0.44122422  0.09096489  0.58003264  1
  N  N48  1  0.22073241  0.54045145  0.36605743  1
  N  N49  1  0.12149532  0.42105176  0.12098497  1
  N  N50  1  0.91381562  0.54681204  0.87006754  1
  N  N51  1  0.74491401  0.44349999  0.62498592  1
  N  N52  1  0.56520236  0.53477721  0.32224844  1
  N  N53  1  0.42108763  0.41319405  0.05461108  1
  N  N54  1  0.20146373  0.55147910  0.87204234  1
  N  N55  1  0.14114199  0.41540523  0.62643763  1
  N  N56  1  0.89715236  0.53571769  0.34177936  1
  N  N57  1  0.81417680  0.41625044  0.09829360  1
  N  N58  1  0.51025622  0.54953825  0.82921925  1
  N  N59  1  0.44742637  0.42655838  0.56137688  1
  N  N60  1  0.23166785  0.86959635  0.37112317  1
  N  N61  1  0.11988862  0.75913450  0.11757764  1
  N  N62  1  0.90974058  0.84749465  0.86948365  1
  N  N63  1  0.75239838  0.77476148  0.64195637  1
  N  N64  1  0.58265684  0.83613442  0.30674995  1
  N  N65  1  0.41382808  0.77240752  0.06918948  1
  N  N66  1  0.20534528  0.87967047  0.86617033  1
  N  N67  1  0.13945176  0.74681901  0.62275700  1
  N  N68  1  0.89324308  0.87553913  0.33679198  1
  N  N69  1  0.82768379  0.73654362  0.10765832  1
  N  N70  1  0.54396362  0.88426348  0.84177581  1
  N  N71  1  0.43651355  0.76836126  0.62715701  1
