# generated using pymatgen
data_Gd2Al7N9
_symmetry_space_group_name_H-M   'P 1'
_cell_length_a   9.87620718
_cell_length_b   9.83358052
_cell_length_c   10.79795705
_cell_angle_alpha   90.18712298
_cell_angle_beta   89.36317931
_cell_angle_gamma   60.14097732
_symmetry_Int_Tables_number   1
_chemical_formula_structural   Gd2Al7N9
_chemical_formula_sum   'Gd8 Al28 N36'
_cell_volume   909.36893050
_cell_formula_units_Z   4
loop_
 _symmetry_equiv_pos_site_id
 _symmetry_equiv_pos_as_xyz
  1  'x, y, z'
loop_
 _atom_site_type_symbol
 _atom_site_label
 _atom_site_symmetry_multiplicity
 _atom_site_fract_x
 _atom_site_fract_y
 _atom_site_fract_z
 _atom_site_occupancy
  Al  Al0  1  0.11608584  0.08196317  0.29642623  1
  Al  Al1  1  0.21972295  0.21034020  0.12417743  1
  Al  Al2  1  0.54019690  0.21886841  0.11790795  1
  Al  Al3  1  0.11126383  0.08737115  0.81222178  1
  Al  Al4  1  0.23435303  0.19815232  0.64751550  1
  Al  Al5  1  0.78863310  0.09224678  0.27749677  1
  Al  Al6  1  0.90890804  0.19753466  0.06161208  1
  Al  Al7  1  0.41639773  0.11679669  0.88084888  1
  Al  Al8  1  0.53018751  0.21884351  0.64107409  1
  Al  Al9  1  0.11476215  0.43647443  0.29752273  1
  Al  Al10  1  0.21112452  0.54306272  0.05169226  1
  Al  Al11  1  0.46409012  0.42357507  0.38319940  1
  Al  Al12  1  0.11386022  0.43666496  0.81238750  1
  Al  Al13  1  0.22890438  0.53528840  0.55770524  1
  Al  Al14  1  0.80159449  0.41916697  0.29197004  1
  Al  Al15  1  0.91308799  0.53208231  0.05656145  1
  Al  Al16  1  0.41861092  0.43948545  0.87206441  1
  Al  Al17  1  0.53037859  0.54887783  0.63173257  1
  Al  Al18  1  0.12123223  0.75894095  0.30230339  1
  Al  Al19  1  0.20458966  0.87807366  0.04705837  1
  Al  Al20  1  0.78630053  0.75712871  0.82055803  1
  Al  Al21  1  0.46951905  0.74744588  0.39017121  1
  Al  Al22  1  0.11763877  0.75403201  0.80667610  1
  Al  Al23  1  0.22910956  0.86971026  0.56144359  1
  Al  Al24  1  0.79834772  0.74817680  0.28812896  1
  Al  Al25  1  0.91005191  0.85504995  0.05710016  1
  Al  Al26  1  0.42039712  0.76952449  0.87072034  1
  Al  Al27  1  0.53997922  0.87881613  0.65174935  1
  Gd  Gd28  1  0.76304186  0.09630359  0.84518730  1
  Gd  Gd29  1  0.88376099  0.20501986  0.54904263  1
  Gd  Gd30  1  0.45020813  0.09330699  0.38076718  1
  Gd  Gd31  1  0.76219504  0.44075800  0.83910491  1
  Gd  Gd32  1  0.88789282  0.53821250  0.55806219  1
  Gd  Gd33  1  0.53942991  0.54033533  0.12953712  1
  Gd  Gd34  1  0.88723941  0.87134837  0.55478677  1
  Gd  Gd35  1  0.55695991  0.87249514  0.09592153  1
  N  N36  1  0.20735057  0.21304954  0.30638310  1
  N  N37  1  0.11953721  0.08164360  0.11647397  1
  N  N38  1  0.91560898  0.19414891  0.88730281  1
  N  N39  1  0.74967931  0.10580279  0.62983958  1
  N  N40  1  0.56458030  0.22696701  0.29421363  1
  N  N41  1  0.42438896  0.12690181  0.05930823  1
  N  N42  1  0.21098701  0.21008969  0.82737045  1
  N  N43  1  0.13193811  0.07662998  0.63102335  1
  N  N44  1  0.89467665  0.19981868  0.33239746  1
  N  N45  1  0.78277768  0.08788590  0.09491199  1
  N  N46  1  0.49904359  0.23644332  0.81318715  1
  N  N47  1  0.44336168  0.08963849  0.59201217  1
  N  N48  1  0.22163482  0.54217646  0.36984604  1
  N  N49  1  0.11773551  0.43249113  0.11741034  1
  N  N50  1  0.90521555  0.54925103  0.87727327  1
  N  N51  1  0.75160887  0.43798316  0.63013249  1
  N  N52  1  0.57116380  0.53298617  0.33936453  1
  N  N53  1  0.43278554  0.41587499  0.04819360  1
  N  N54  1  0.20205783  0.55224730  0.87462845  1
  N  N55  1  0.13846995  0.42166455  0.63149069  1
  N  N56  1  0.89920364  0.53606018  0.34505572  1
  N  N57  1  0.80809615  0.41751007  0.10759968  1
  N  N58  1  0.49576695  0.56605153  0.80754873  1
  N  N59  1  0.45190792  0.41904507  0.56050176  1
  N  N60  1  0.22408587  0.87179358  0.37351732  1
  N  N61  1  0.12230012  0.75615167  0.12018795  1
  N  N62  1  0.90718049  0.84341972  0.87672491  1
  N  N63  1  0.75843665  0.77026320  0.64686788  1
  N  N64  1  0.57567150  0.84193955  0.31339220  1
  N  N65  1  0.41959134  0.76620478  0.04457548  1
  N  N66  1  0.19937082  0.88063368  0.86757886  1
  N  N67  1  0.14266279  0.74438851  0.62664985  1
  N  N68  1  0.89042893  0.87642456  0.33792031  1
  N  N69  1  0.81917046  0.73987648  0.11296289  1
  N  N70  1  0.53881007  0.88152936  0.83738440  1
  N  N71  1  0.45311747  0.76115678  0.57093672  1
