# generated using pymatgen
data_Gd2Al7N9
_symmetry_space_group_name_H-M   'P 1'
_cell_length_a   9.87586701
_cell_length_b   9.83362369
_cell_length_c   10.79855123
_cell_angle_alpha   90.18636912
_cell_angle_beta   89.36819425
_cell_angle_gamma   60.13813645
_symmetry_Int_Tables_number   1
_chemical_formula_structural   Gd2Al7N9
_chemical_formula_sum   'Gd8 Al28 N36'
_cell_volume   909.36722897
_cell_formula_units_Z   4
loop_
 _symmetry_equiv_pos_site_id
 _symmetry_equiv_pos_as_xyz
  1  'x, y, z'
loop_
 _atom_site_type_symbol
 _atom_site_label
 _atom_site_symmetry_multiplicity
 _atom_site_fract_x
 _atom_site_fract_y
 _atom_site_fract_z
 _atom_site_occupancy
  Al  Al0  1  0.11601726  0.08203694  0.30302781  1
  Al  Al1  1  0.21964246  0.21042343  0.13079107  1
  Al  Al2  1  0.54011368  0.21895160  0.12448721  1
  Al  Al3  1  0.11112536  0.08748669  0.81879321  1
  Al  Al4  1  0.23419652  0.19827588  0.65407804  1
  Al  Al5  1  0.78856010  0.09233411  0.28407831  1
  Al  Al6  1  0.90881614  0.19762477  0.06820566  1
  Al  Al7  1  0.41626227  0.11690577  0.88743349  1
  Al  Al8  1  0.53004519  0.21894978  0.64767015  1
  Al  Al9  1  0.11469166  0.43655390  0.30412411  1
  Al  Al10  1  0.21103013  0.54314432  0.05827385  1
  Al  Al11  1  0.46400103  0.42366593  0.38980053  1
  Al  Al12  1  0.11372068  0.43677916  0.81895923  1
  Al  Al13  1  0.22878047  0.53539598  0.56428260  1
  Al  Al14  1  0.80153079  0.41924346  0.29855807  1
  Al  Al15  1  0.91299266  0.53217471  0.06315814  1
  Al  Al16  1  0.41848964  0.43958723  0.87864598  1
  Al  Al17  1  0.53024312  0.54898948  0.63833616  1
  Al  Al18  1  0.12114597  0.75902518  0.30888745  1
  Al  Al19  1  0.20449439  0.87816450  0.05364395  1
  Al  Al20  1  0.78617150  0.75724288  0.82715615  1
  Al  Al21  1  0.46942835  0.74753233  0.39677084  1
  Al  Al22  1  0.11751897  0.75413610  0.81326428  1
  Al  Al23  1  0.22898985  0.86981408  0.56801825  1
  Al  Al24  1  0.79827464  0.74825408  0.29471107  1
  Al  Al25  1  0.90995534  0.85514421  0.06368824  1
  Al  Al26  1  0.42027200  0.76962974  0.87730279  1
  Al  Al27  1  0.53983966  0.87893765  0.65834996  1
  Gd  Gd28  1  0.76292538  0.09641232  0.85176819  1
  Gd  Gd29  1  0.88358512  0.20515570  0.55563101  1
  Gd  Gd30  1  0.45016776  0.09337711  0.38736051  1
  Gd  Gd31  1  0.76205252  0.44088130  0.84572712  1
  Gd  Gd32  1  0.88770897  0.53835085  0.56465027  1
  Gd  Gd33  1  0.53931565  0.54042296  0.13616257  1
  Gd  Gd34  1  0.88711310  0.87145309  0.56137401  1
  Gd  Gd35  1  0.55685418  0.87258256  0.10251733  1
  N  N36  1  0.20729645  0.21311668  0.31297865  1
  N  N37  1  0.11946187  0.08172238  0.12308029  1
  N  N38  1  0.91548949  0.19425950  0.89390940  1
  N  N39  1  0.74954890  0.10589890  0.63643556  1
  N  N40  1  0.56449474  0.22707199  0.30079021  1
  N  N41  1  0.42428987  0.12699602  0.06588334  1
  N  N42  1  0.21084820  0.21020281  0.83392078  1
  N  N43  1  0.13178589  0.07673971  0.63759603  1
  N  N44  1  0.89460682  0.19989725  0.33899434  1
  N  N45  1  0.78269293  0.08797406  0.10150669  1
  N  N46  1  0.49890801  0.23654735  0.81976908  1
  N  N47  1  0.44321485  0.08975731  0.59859127  1
  N  N48  1  0.22155322  0.54226628  0.37643289  1
  N  N49  1  0.11765406  0.43257689  0.12401802  1
  N  N50  1  0.90508965  0.54936158  0.88388117  1
  N  N51  1  0.75148300  0.43809046  0.63677154  1
  N  N52  1  0.57109842  0.53306097  0.34598539  1
  N  N53  1  0.43270826  0.41595772  0.05475970  1
  N  N54  1  0.20192591  0.55234714  0.88121797  1
  N  N55  1  0.13831025  0.42180317  0.63806407  1
  N  N56  1  0.89913254  0.53613694  0.35165020  1
  N  N57  1  0.80799559  0.41760517  0.11420146  1
  N  N58  1  0.49561023  0.56617122  0.81412356  1
  N  N59  1  0.45179668  0.41914178  0.56709218  1
  N  N60  1  0.22401074  0.87186270  0.38010219  1
  N  N61  1  0.12222377  0.75623038  0.12677735  1
  N  N62  1  0.90705870  0.84352620  0.88332654  1
  N  N63  1  0.75830825  0.77038963  0.65347407  1
  N  N64  1  0.57558856  0.84201081  0.31997902  1
  N  N65  1  0.41951228  0.76626939  0.05114483  1
  N  N66  1  0.19923465  0.88075095  0.87417066  1
  N  N67  1  0.14254902  0.74449268  0.63323816  1
  N  N68  1  0.89034243  0.87651085  0.34450960  1
  N  N69  1  0.81908010  0.73996951  0.11955710  1
  N  N70  1  0.53867394  0.88164089  0.84396938  1
  N  N71  1  0.45300890  0.76126226  0.57752563  1
