# generated using pymatgen
data_Gd2Al7N9
_symmetry_space_group_name_H-M   'P 1'
_cell_length_a   10.05139124
_cell_length_b   9.82127198
_cell_length_c   10.47278170
_cell_angle_alpha   90.09914370
_cell_angle_beta   90.03464522
_cell_angle_gamma   60.18070514
_symmetry_Int_Tables_number   1
_chemical_formula_structural   Gd2Al7N9
_chemical_formula_sum   'Gd8 Al28 N36'
_cell_volume   896.96162260
_cell_formula_units_Z   4
loop_
 _symmetry_equiv_pos_site_id
 _symmetry_equiv_pos_as_xyz
  1  'x, y, z'
loop_
 _atom_site_type_symbol
 _atom_site_label
 _atom_site_symmetry_multiplicity
 _atom_site_fract_x
 _atom_site_fract_y
 _atom_site_fract_z
 _atom_site_occupancy
  Al  Al0  1  0.11173017  0.09467062  0.30250097  1
  Al  Al1  1  0.21327858  0.21133841  0.05915376  1
  Al  Al2  1  0.54070511  0.21157471  0.11973974  1
  Al  Al3  1  0.12302900  0.08889995  0.81436329  1
  Al  Al4  1  0.22658354  0.20224760  0.56728124  1
  Al  Al5  1  0.78873382  0.09426370  0.27826097  1
  Al  Al6  1  0.91006593  0.20109647  0.06097852  1
  Al  Al7  1  0.42399711  0.11076232  0.86929186  1
  Al  Al8  1  0.52908141  0.22313234  0.63256109  1
  Al  Al9  1  0.11163538  0.42762891  0.30293869  1
  Al  Al10  1  0.20422598  0.54273650  0.05849748  1
  Al  Al11  1  0.45044231  0.42452431  0.37076086  1
  Al  Al12  1  0.12327941  0.42629366  0.81134324  1
  Al  Al13  1  0.23161669  0.53682117  0.55880235  1
  Al  Al14  1  0.79382876  0.42619777  0.29252116  1
  Al  Al15  1  0.91323487  0.52951565  0.05611656  1
  Al  Al16  1  0.41657372  0.43694123  0.88064850  1
  Al  Al17  1  0.55158175  0.54839325  0.54825096  1
  Al  Al18  1  0.11580653  0.76046585  0.30199790  1
  Al  Al19  1  0.21098526  0.87566534  0.05788638  1
  Al  Al20  1  0.79641844  0.75330001  0.81792492  1
  Al  Al21  1  0.43785676  0.76466593  0.30988064  1
  Al  Al22  1  0.11919595  0.75591720  0.80997389  1
  Al  Al23  1  0.23417083  0.86768293  0.56340995  1
  Al  Al24  1  0.79397494  0.75137550  0.28431367  1
  Al  Al25  1  0.90794199  0.85760571  0.05592992  1
  Al  Al26  1  0.42232887  0.75874807  0.80807664  1
  Al  Al27  1  0.54309997  0.88288916  0.64386800  1
  Gd  Gd28  1  0.76146789  0.10217402  0.84699342  1
  Gd  Gd29  1  0.89390754  0.19829738  0.54947512  1
  Gd  Gd30  1  0.45355144  0.08670648  0.35735569  1
  Gd  Gd31  1  0.76579352  0.44068378  0.82184655  1
  Gd  Gd32  1  0.89933605  0.53766962  0.55465697  1
  Gd  Gd33  1  0.54569339  0.52826070  0.09687031  1
  Gd  Gd34  1  0.88456519  0.87616101  0.55768582  1
  Gd  Gd35  1  0.55981358  0.85575311  0.07119023  1
  N  N36  1  0.18660076  0.22228859  0.37953627  1
  N  N37  1  0.11811119  0.09141634  0.11840176  1
  N  N38  1  0.92164550  0.19310518  0.87840026  1
  N  N39  1  0.74572794  0.11404082  0.62596854  1
  N  N40  1  0.57131388  0.22353464  0.29714953  1
  N  N41  1  0.43071025  0.11165757  0.07628457  1
  N  N42  1  0.21017855  0.21235459  0.87472170  1
  N  N43  1  0.14250920  0.07874934  0.63234142  1
  N  N44  1  0.89136331  0.20344575  0.33004140  1
  N  N45  1  0.78082319  0.09234215  0.09046345  1
  N  N46  1  0.49939868  0.23731474  0.81172092  1
  N  N47  1  0.44610922  0.09079110  0.57982108  1
  N  N48  1  0.21651587  0.54164977  0.36558665  1
  N  N49  1  0.11692913  0.42183692  0.11992580  1
  N  N50  1  0.91254154  0.54341674  0.87015838  1
  N  N51  1  0.75253010  0.44209497  0.60596063  1
  N  N52  1  0.55982928  0.54155492  0.35181002  1
  N  N53  1  0.41643343  0.41083940  0.06281954  1
  N  N54  1  0.20379506  0.55098682  0.87396162  1
  N  N55  1  0.14891267  0.41270588  0.62991579  1
  N  N56  1  0.89622082  0.53915293  0.34030476  1
  N  N57  1  0.80892430  0.41880380  0.10597067  1
  N  N58  1  0.51615895  0.55675376  0.87422543  1
  N  N59  1  0.44933132  0.42538790  0.55464208  1
  N  N60  1  0.21970043  0.87630901  0.37521201  1
  N  N61  1  0.11362492  0.76015444  0.11720861  1
  N  N62  1  0.91073498  0.84716618  0.86928320  1
  N  N63  1  0.75671811  0.77079768  0.64138976  1
  N  N64  1  0.58162765  0.83682211  0.30995961  1
  N  N65  1  0.39891706  0.77695886  0.13431225  1
  N  N66  1  0.21802039  0.87332768  0.87233852  1
  N  N67  1  0.14053561  0.74790319  0.62587657  1
  N  N68  1  0.89016127  0.87695001  0.33626063  1
  N  N69  1  0.81757510  0.74109517  0.10485208  1
  N  N70  1  0.54057387  0.88130137  0.83673184  1
  N  N71  1  0.44338100  0.75861112  0.62044598  1
