# generated using pymatgen
data_Gd2Al7N9
_symmetry_space_group_name_H-M   'P 1'
_cell_length_a   9.95587807
_cell_length_b   9.83725527
_cell_length_c   10.34069899
_cell_angle_alpha   90.15129852
_cell_angle_beta   89.90629323
_cell_angle_gamma   60.26903950
_symmetry_Int_Tables_number   1
_chemical_formula_structural   Gd2Al7N9
_chemical_formula_sum   'Gd8 Al28 N36'
_cell_volume   879.42951193
_cell_formula_units_Z   4
loop_
 _symmetry_equiv_pos_site_id
 _symmetry_equiv_pos_as_xyz
  1  'x, y, z'
loop_
 _atom_site_type_symbol
 _atom_site_label
 _atom_site_symmetry_multiplicity
 _atom_site_fract_x
 _atom_site_fract_y
 _atom_site_fract_z
 _atom_site_occupancy
  Al  Al0  1  0.10676648  0.09556113  0.30041720  1
  Al  Al1  1  0.21809664  0.20965138  0.05470484  1
  Al  Al2  1  0.52640148  0.21793326  0.05731077  1
  Al  Al3  1  0.12819467  0.08503955  0.81795828  1
  Al  Al4  1  0.22499215  0.20476683  0.57139783  1
  Al  Al5  1  0.77094282  0.09965456  0.28595521  1
  Al  Al6  1  0.90332709  0.20187334  0.06926902  1
  Al  Al7  1  0.43293841  0.10462495  0.79951167  1
  Al  Al8  1  0.55511943  0.21519951  0.55959688  1
  Al  Al9  1  0.10532485  0.42981017  0.30108521  1
  Al  Al10  1  0.21638645  0.53644967  0.06115601  1
  Al  Al11  1  0.43699578  0.42862289  0.31672642  1
  Al  Al12  1  0.12587660  0.42617262  0.81707049  1
  Al  Al13  1  0.23436932  0.53406611  0.56375595  1
  Al  Al14  1  0.78037526  0.42956197  0.29096251  1
  Al  Al15  1  0.90568275  0.53547919  0.05945475  1
  Al  Al16  1  0.42681806  0.43817294  0.80317646  1
  Al  Al17  1  0.54866070  0.54076966  0.54998511  1
  Al  Al18  1  0.11213336  0.76201571  0.30246100  1
  Al  Al19  1  0.21483486  0.87704209  0.06117394  1
  Al  Al20  1  0.78907727  0.75664446  0.81236577  1
  Al  Al21  1  0.43833392  0.76208265  0.32100500  1
  Al  Al22  1  0.12602145  0.75167179  0.81747988  1
  Al  Al23  1  0.23321443  0.86701350  0.56428277  1
  Al  Al24  1  0.78186744  0.75592115  0.29527481  1
  Al  Al25  1  0.90156687  0.85912747  0.06245559  1
  Al  Al26  1  0.43322087  0.76408433  0.79639190  1
  Al  Al27  1  0.55650889  0.86724867  0.57558997  1
  Gd  Gd28  1  0.77129355  0.09504307  0.83846980  1
  Gd  Gd29  1  0.90183261  0.19684122  0.54160502  1
  Gd  Gd30  1  0.43414021  0.09844914  0.33257601  1
  Gd  Gd31  1  0.77635880  0.43255635  0.82023271  1
  Gd  Gd32  1  0.90293879  0.53336809  0.55148552  1
  Gd  Gd33  1  0.53736087  0.53988038  0.07381308  1
  Gd  Gd34  1  0.89722331  0.86973484  0.55610126  1
  Gd  Gd35  1  0.55094882  0.87319276  0.05316239  1
  N  N36  1  0.17380290  0.22835651  0.38634981  1
  N  N37  1  0.11862030  0.09256107  0.11716027  1
  N  N38  1  0.92680793  0.18816369  0.88498039  1
  N  N39  1  0.75572649  0.10972384  0.62184350  1
  N  N40  1  0.57192139  0.21850505  0.37345383  1
  N  N41  1  0.42322125  0.11652955  0.11541290  1
  N  N42  1  0.22469122  0.20476611  0.86861482  1
  N  N43  1  0.14537734  0.07580825  0.63435334  1
  N  N44  1  0.88464515  0.20509663  0.32005397  1
  N  N45  1  0.76420268  0.09835597  0.09611832  1
  N  N46  1  0.51155883  0.23095186  0.87226688  1
  N  N47  1  0.44557984  0.09780270  0.60325440  1
  N  N48  1  0.21308969  0.54211725  0.37290808  1
  N  N49  1  0.11457611  0.42373883  0.11537250  1
  N  N50  1  0.91252986  0.54682060  0.87131239  1
  N  N51  1  0.75493751  0.43751408  0.60196022  1
  N  N52  1  0.55130260  0.53817649  0.35476646  1
  N  N53  1  0.41605615  0.41619451  0.13585861  1
  N  N54  1  0.22437139  0.53988996  0.87589130  1
  N  N55  1  0.14808628  0.41297910  0.63440478  1
  N  N56  1  0.88884477  0.53944281  0.33522328  1
  N  N57  1  0.79834042  0.42365969  0.10302529  1
  N  N58  1  0.51968105  0.55701928  0.85710386  1
  N  N59  1  0.44513758  0.43000353  0.61282764  1
  N  N60  1  0.21111358  0.87964330  0.37554251  1
  N  N61  1  0.11561259  0.75880000  0.11660986  1
  N  N62  1  0.91357233  0.84100282  0.87383697  1
  N  N63  1  0.76202001  0.76900691  0.63221315  1
  N  N64  1  0.57618660  0.83961443  0.37369245  1
  N  N65  1  0.40798510  0.78345874  0.14176740  1
  N  N66  1  0.22834085  0.86975204  0.87426510  1
  N  N67  1  0.14626390  0.74444052  0.63161278  1
  N  N68  1  0.88654681  0.87705435  0.33478903  1
  N  N69  1  0.80156746  0.74811258  0.11299365  1
  N  N70  1  0.55071395  0.87612125  0.83447716  1
  N  N71  1  0.44549119  0.75731848  0.60872093  1
