# generated using pymatgen
data_Gd2Al7N9
_symmetry_space_group_name_H-M   'P 1'
_cell_length_a   10.01388762
_cell_length_b   9.85899292
_cell_length_c   10.27407589
_cell_angle_alpha   90.04273101
_cell_angle_beta   90.05445223
_cell_angle_gamma   60.74388506
_symmetry_Int_Tables_number   1
_chemical_formula_structural   Gd2Al7N9
_chemical_formula_sum   'Gd8 Al28 N36'
_cell_volume   884.94301613
_cell_formula_units_Z   4
loop_
 _symmetry_equiv_pos_site_id
 _symmetry_equiv_pos_as_xyz
  1  'x, y, z'
loop_
 _atom_site_type_symbol
 _atom_site_label
 _atom_site_symmetry_multiplicity
 _atom_site_fract_x
 _atom_site_fract_y
 _atom_site_fract_z
 _atom_site_occupancy
  Al  Al0  1  0.12432558  0.08833328  0.39857117  1
  Al  Al1  1  0.21480938  0.21182642  0.14615467  1
  Al  Al2  1  0.53374544  0.22362322  0.15452718  1
  Al  Al3  1  0.11269805  0.09106802  0.90584978  1
  Al  Al4  1  0.22854721  0.20160508  0.65988417  1
  Al  Al5  1  0.76685379  0.10653062  0.37975084  1
  Al  Al6  1  0.90336440  0.19920095  0.17011261  1
  Al  Al7  1  0.42308628  0.11643096  0.89692602  1
  Al  Al8  1  0.53572777  0.21792055  0.65704202  1
  Al  Al9  1  0.12986932  0.41832057  0.39956290  1
  Al  Al10  1  0.21685185  0.53901785  0.14972583  1
  Al  Al11  1  0.44370045  0.43316868  0.41409862  1
  Al  Al12  1  0.10959487  0.43464723  0.90502133  1
  Al  Al13  1  0.23254394  0.53399377  0.65221165  1
  Al  Al14  1  0.77433442  0.42853670  0.39033618  1
  Al  Al15  1  0.91588697  0.52109838  0.16523403  1
  Al  Al16  1  0.41943353  0.43869454  0.89726859  1
  Al  Al17  1  0.53407623  0.54921319  0.65498922  1
  Al  Al18  1  0.13526214  0.75098923  0.40042874  1
  Al  Al19  1  0.21619722  0.87766022  0.15229238  1
  Al  Al20  1  0.78036321  0.76084063  0.83471078  1
  Al  Al21  1  0.45264060  0.75757160  0.41617748  1
  Al  Al22  1  0.10952665  0.75920724  0.90235707  1
  Al  Al23  1  0.23072328  0.86861574  0.65000389  1
  Al  Al24  1  0.78935331  0.74988428  0.34020468  1
  Al  Al25  1  0.91227334  0.86378781  0.16979091  1
  Al  Al26  1  0.41711478  0.76972882  0.89759506  1
  Al  Al27  1  0.53216952  0.88200140  0.67307944  1
  Gd  Gd28  1  0.76828792  0.09001226  0.91776531  1
  Gd  Gd29  1  0.89020362  0.19600807  0.62781493  1
  Gd  Gd30  1  0.44798989  0.09051523  0.40905792  1
  Gd  Gd31  1  0.77246319  0.43554753  0.90023323  1
  Gd  Gd32  1  0.89618662  0.53603890  0.61923964  1
  Gd  Gd33  1  0.54285178  0.54143112  0.15624672  1
  Gd  Gd34  1  0.88831110  0.87440777  0.61428753  1
  Gd  Gd35  1  0.56762481  0.86962176  0.11362015  1
  N  N36  1  0.20290586  0.21501965  0.32990472  1
  N  N37  1  0.10910870  0.09380124  0.09744658  1
  N  N38  1  0.90981147  0.18852622  0.84824404  1
  N  N39  1  0.72444484  0.11778113  0.56795718  1
  N  N40  1  0.55443280  0.23393780  0.33367790  1
  N  N41  1  0.42500255  0.12553460  0.08989436  1
  N  N42  1  0.20986046  0.21238323  0.84977014  1
  N  N43  1  0.14922150  0.07752162  0.58216184  1
  N  N44  1  0.89861608  0.20124614  0.36250005  1
  N  N45  1  0.78195953  0.09081840  0.14065676  1
  N  N46  1  0.52309648  0.22806743  0.84081920  1
  N  N47  1  0.43892818  0.09320442  0.62904985  1
  N  N48  1  0.23010772  0.53669652  0.33859835  1
  N  N49  1  0.11404108  0.42676961  0.09434025  1
  N  N50  1  0.90597271  0.54648030  0.84884423  1
  N  N51  1  0.74155197  0.44302522  0.60751417  1
  N  N52  1  0.55340261  0.54148919  0.37351736  1
  N  N53  1  0.41994072  0.42321931  0.08154650  1
  N  N54  1  0.21217830  0.54472362  0.84188054  1
  N  N55  1  0.15744268  0.40247251  0.58299825  1
  N  N56  1  0.90451079  0.52708644  0.36799124  1
  N  N57  1  0.80383501  0.41580617  0.13173217  1
  N  N58  1  0.51503292  0.55818486  0.84454763  1
  N  N59  1  0.43877664  0.43004054  0.59892856  1
  N  N60  1  0.23362057  0.86897957  0.34123335  1
  N  N61  1  0.11416847  0.76195627  0.09700814  1
  N  N62  1  0.90411826  0.85261709  0.84696547  1
  N  N63  1  0.73820111  0.78055458  0.64963683  1
  N  N64  1  0.57452463  0.83965557  0.34693598  1
  N  N65  1  0.40869654  0.77821606  0.07847733  1
  N  N66  1  0.21035068  0.87904770  0.83913458  1
  N  N67  1  0.15113665  0.74070888  0.58372895  1
  N  N68  1  0.90412042  0.86840350  0.36425658  1
  N  N69  1  0.82370674  0.73691111  0.15428129  1
  N  N70  1  0.54566032  0.87778452  0.86715587  1
  N  N71  1  0.44034946  0.76669793  0.60437537  1
