# generated using pymatgen
data_Gd2Al7N9
_symmetry_space_group_name_H-M   'P 1'
_cell_length_a   10.03749782
_cell_length_b   9.83892614
_cell_length_c   10.50108097
_cell_angle_alpha   90.01196183
_cell_angle_beta   90.07654524
_cell_angle_gamma   60.25432816
_symmetry_Int_Tables_number   1
_chemical_formula_structural   Gd2Al7N9
_chemical_formula_sum   'Gd8 Al28 N36'
_cell_volume   900.41902365
_cell_formula_units_Z   4
loop_
 _symmetry_equiv_pos_site_id
 _symmetry_equiv_pos_as_xyz
  1  'x, y, z'
loop_
 _atom_site_type_symbol
 _atom_site_label
 _atom_site_symmetry_multiplicity
 _atom_site_fract_x
 _atom_site_fract_y
 _atom_site_fract_z
 _atom_site_occupancy
  Al  Al0  1  0.11243921  0.09399614  0.30330205  1
  Al  Al1  1  0.21116945  0.21291840  0.05872920  1
  Al  Al2  1  0.54029424  0.21481118  0.12000884  1
  Al  Al3  1  0.12222168  0.08858126  0.81245219  1
  Al  Al4  1  0.22225784  0.20406754  0.56576822  1
  Al  Al5  1  0.78828716  0.09313089  0.27836407  1
  Al  Al6  1  0.91163512  0.19685103  0.06239692  1
  Al  Al7  1  0.42272667  0.11290813  0.87682539  1
  Al  Al8  1  0.52729197  0.21966336  0.63273757  1
  Al  Al9  1  0.11271608  0.42741324  0.30467144  1
  Al  Al10  1  0.20696544  0.54242239  0.05704939  1
  Al  Al11  1  0.46186235  0.42707033  0.37423485  1
  Al  Al12  1  0.12300581  0.42679175  0.80890967  1
  Al  Al13  1  0.22884130  0.53712588  0.55579307  1
  Al  Al14  1  0.79026005  0.42642563  0.28671107  1
  Al  Al15  1  0.91776444  0.52995908  0.05695957  1
  Al  Al16  1  0.41503503  0.43428667  0.87431347  1
  Al  Al17  1  0.53506149  0.54344070  0.63066782  1
  Al  Al18  1  0.11856876  0.75861164  0.30214755  1
  Al  Al19  1  0.21052453  0.87805415  0.05775769  1
  Al  Al20  1  0.79691930  0.75390236  0.81823735  1
  Al  Al21  1  0.44413674  0.75780814  0.30530884  1
  Al  Al22  1  0.11992822  0.75563287  0.80900266  1
  Al  Al23  1  0.23389244  0.86863317  0.56173044  1
  Al  Al24  1  0.79674262  0.74928146  0.28473662  1
  Al  Al25  1  0.91058611  0.85705878  0.05563602  1
  Al  Al26  1  0.41819934  0.77028495  0.81278668  1
  Al  Al27  1  0.54103334  0.88592100  0.64723538  1
  Gd  Gd28  1  0.76073589  0.10095611  0.84571225  1
  Gd  Gd29  1  0.88489255  0.20543347  0.54892702  1
  Gd  Gd30  1  0.45386010  0.08568757  0.36011760  1
  Gd  Gd31  1  0.77720932  0.43370359  0.83585378  1
  Gd  Gd32  1  0.88791187  0.54056749  0.55546350  1
  Gd  Gd33  1  0.54711154  0.53090683  0.09402251  1
  Gd  Gd34  1  0.88598242  0.87516726  0.55738974  1
  Gd  Gd35  1  0.56400920  0.86024152  0.07440655  1
  N  N36  1  0.18750360  0.22155000  0.37863251  1
  N  N37  1  0.11914583  0.09145903  0.11976363  1
  N  N38  1  0.92477101  0.18498748  0.88068119  1
  N  N39  1  0.74409400  0.11258505  0.62479052  1
  N  N40  1  0.57003814  0.22250406  0.29798990  1
  N  N41  1  0.43053635  0.11643166  0.06877890  1
  N  N42  1  0.20749931  0.21354434  0.87391439  1
  N  N43  1  0.13631992  0.08127128  0.62989136  1
  N  N44  1  0.89107002  0.20344079  0.32801146  1
  N  N45  1  0.78104206  0.09119017  0.09095015  1
  N  N46  1  0.49800461  0.23455878  0.81004252  1
  N  N47  1  0.44291086  0.09110469  0.57923825  1
  N  N48  1  0.21909239  0.54118326  0.36648056  1
  N  N49  1  0.12068206  0.42142099  0.12128581  1
  N  N50  1  0.91536431  0.54587720  0.87120238  1
  N  N51  1  0.74828699  0.44237759  0.62139415  1
  N  N52  1  0.56547083  0.53322591  0.31921276  1
  N  N53  1  0.42089506  0.41235908  0.05543241  1
  N  N54  1  0.20295068  0.55097426  0.87278767  1
  N  N55  1  0.14253606  0.41543413  0.62716346  1
  N  N56  1  0.89560533  0.53663187  0.33958682  1
  N  N57  1  0.81176721  0.41763000  0.09741946  1
  N  N58  1  0.51315425  0.55070945  0.83369280  1
  N  N59  1  0.44869735  0.42604579  0.55936151  1
  N  N60  1  0.22485893  0.87301679  0.37288524  1
  N  N61  1  0.11662520  0.75925717  0.11719809  1
  N  N62  1  0.91148707  0.84747165  0.86944630  1
  N  N63  1  0.75474658  0.77369782  0.64264501  1
  N  N64  1  0.58301667  0.83707655  0.30736598  1
  N  N65  1  0.40242216  0.77933464  0.12571622  1
  N  N66  1  0.21599523  0.87483619  0.87370438  1
  N  N67  1  0.14189388  0.74697091  0.62530164  1
  N  N68  1  0.89209999  0.87564600  0.33672970  1
  N  N69  1  0.82234684  0.73937510  0.10594866  1
  N  N70  1  0.54115270  0.88244768  0.84067236  1
  N  N71  1  0.43735744  0.76751487  0.62757161  1
