# generated using pymatgen
data_Gd2Al7N9
_symmetry_space_group_name_H-M   'P 1'
_cell_length_a   9.95051420
_cell_length_b   9.85603497
_cell_length_c   10.60068808
_cell_angle_alpha   90.26377591
_cell_angle_beta   90.22061738
_cell_angle_gamma   60.45286333
_symmetry_Int_Tables_number   1
_chemical_formula_structural   Gd2Al7N9
_chemical_formula_sum   'Gd8 Al28 N36'
_cell_volume   904.42161529
_cell_formula_units_Z   4
loop_
 _symmetry_equiv_pos_site_id
 _symmetry_equiv_pos_as_xyz
  1  'x, y, z'
loop_
 _atom_site_type_symbol
 _atom_site_label
 _atom_site_symmetry_multiplicity
 _atom_site_fract_x
 _atom_site_fract_y
 _atom_site_fract_z
 _atom_site_occupancy
  Al  Al0  1  0.12725831  0.08488730  0.38549013  1
  Al  Al1  1  0.21549586  0.21320461  0.14440439  1
  Al  Al2  1  0.53991455  0.21935863  0.13732834  1
  Al  Al3  1  0.11921320  0.09243353  0.90017077  1
  Al  Al4  1  0.22563788  0.19986237  0.64732042  1
  Al  Al5  1  0.79404687  0.08956799  0.29708113  1
  Al  Al6  1  0.90377993  0.20010796  0.08394229  1
  Al  Al7  1  0.41609930  0.11765508  0.89542039  1
  Al  Al8  1  0.52798055  0.21834167  0.66068129  1
  Al  Al9  1  0.12848798  0.41971034  0.38985329  1
  Al  Al10  1  0.21867286  0.53366992  0.12139218  1
  Al  Al11  1  0.45815471  0.42614605  0.40051894  1
  Al  Al12  1  0.11375681  0.42549349  0.89349949  1
  Al  Al13  1  0.23264636  0.52763519  0.62768041  1
  Al  Al14  1  0.80444098  0.41802084  0.31352736  1
  Al  Al15  1  0.90527538  0.53458209  0.07661943  1
  Al  Al16  1  0.41018825  0.44276968  0.89089416  1
  Al  Al17  1  0.52343915  0.55479467  0.65214120  1
  Al  Al18  1  0.12213216  0.75278441  0.31897221  1
  Al  Al19  1  0.22073687  0.88147994  0.14592405  1
  Al  Al20  1  0.78608979  0.75890458  0.83929612  1
  Al  Al21  1  0.46307612  0.75062523  0.40580269  1
  Al  Al22  1  0.11380554  0.75596287  0.82048919  1
  Al  Al23  1  0.22828218  0.87812406  0.64176393  1
  Al  Al24  1  0.80284659  0.74257423  0.30840032  1
  Al  Al25  1  0.91534565  0.85195839  0.07505238  1
  Al  Al26  1  0.40899322  0.77691280  0.89049648  1
  Al  Al27  1  0.53743722  0.88168137  0.67084915  1
  Gd  Gd28  1  0.76297208  0.09444788  0.86499641  1
  Gd  Gd29  1  0.86649064  0.21645192  0.57131829  1
  Gd  Gd30  1  0.45836683  0.08755592  0.39635953  1
  Gd  Gd31  1  0.75046238  0.44529759  0.86418771  1
  Gd  Gd32  1  0.87804721  0.54336473  0.58747093  1
  Gd  Gd33  1  0.53653210  0.54569448  0.14879860  1
  Gd  Gd34  1  0.88397734  0.87406035  0.57172743  1
  Gd  Gd35  1  0.56094865  0.87268901  0.10721901  1
  N  N36  1  0.20891289  0.21269665  0.32361618  1
  N  N37  1  0.12464152  0.08989030  0.08756620  1
  N  N38  1  0.90699863  0.19935720  0.90213742  1
  N  N39  1  0.74339893  0.10686208  0.64704992  1
  N  N40  1  0.57243868  0.22316927  0.31629824  1
  N  N41  1  0.42326506  0.12732162  0.08120620  1
  N  N42  1  0.20759338  0.21112159  0.83266351  1
  N  N43  1  0.13615295  0.08306146  0.57117209  1
  N  N44  1  0.90250015  0.19616920  0.35028949  1
  N  N45  1  0.78369000  0.08707410  0.11277114  1
  N  N46  1  0.50176328  0.23604970  0.83655264  1
  N  N47  1  0.44166897  0.09011095  0.61164448  1
  N  N48  1  0.23776786  0.53030114  0.34266910  1
  N  N49  1  0.12012157  0.41903141  0.07931140  1
  N  N50  1  0.89544338  0.55213736  0.89129296  1
  N  N51  1  0.73921885  0.44641151  0.65361663  1
  N  N52  1  0.57314885  0.53130382  0.36170715  1
  N  N53  1  0.42562579  0.42052181  0.06996708  1
  N  N54  1  0.20624251  0.53980393  0.84004599  1
  N  N55  1  0.14550787  0.40439061  0.57550187  1
  N  N56  1  0.90475417  0.53196795  0.36875422  1
  N  N57  1  0.80268408  0.42036014  0.12752551  1
  N  N58  1  0.48784596  0.57167962  0.83237048  1
  N  N59  1  0.44537557  0.42326965  0.58284860  1
  N  N60  1  0.24133350  0.86573557  0.33185017  1
  N  N61  1  0.12066022  0.75670707  0.13436382  1
  N  N62  1  0.91290597  0.84067963  0.89383862  1
  N  N63  1  0.75189865  0.77817553  0.66462483  1
  N  N64  1  0.58208122  0.83628923  0.33197661  1
  N  N65  1  0.40778001  0.77680258  0.06505489  1
  N  N66  1  0.20757915  0.89218657  0.82573242  1
  N  N67  1  0.13452334  0.74781925  0.63530858  1
  N  N68  1  0.89689359  0.87203855  0.35480299  1
  N  N69  1  0.82260127  0.73817381  0.13141537  1
  N  N70  1  0.53911757  0.88313155  0.86019003  1
  N  N71  1  0.44263286  0.76743290  0.59103875  1
