# generated using pymatgen
data_Gd2Al7N9
_symmetry_space_group_name_H-M   'P 1'
_cell_length_a   9.94012034
_cell_length_b   9.83069465
_cell_length_c   10.35870284
_cell_angle_alpha   90.29171698
_cell_angle_beta   89.81381090
_cell_angle_gamma   60.26529054
_symmetry_Int_Tables_number   1
_chemical_formula_structural   Gd2Al7N9
_chemical_formula_sum   'Gd8 Al28 N36'
_cell_volume   878.92415429
_cell_formula_units_Z   4
loop_
 _symmetry_equiv_pos_site_id
 _symmetry_equiv_pos_as_xyz
  1  'x, y, z'
loop_
 _atom_site_type_symbol
 _atom_site_label
 _atom_site_symmetry_multiplicity
 _atom_site_fract_x
 _atom_site_fract_y
 _atom_site_fract_z
 _atom_site_occupancy
  Al  Al0  1  0.10593032  0.09653433  0.29774530  1
  Al  Al1  1  0.21795413  0.21025807  0.05168788  1
  Al  Al2  1  0.52677330  0.21854799  0.05413793  1
  Al  Al3  1  0.12891884  0.08443283  0.81617137  1
  Al  Al4  1  0.22572106  0.20364236  0.56981066  1
  Al  Al5  1  0.77005102  0.09979073  0.28348464  1
  Al  Al6  1  0.90264826  0.20226800  0.06800682  1
  Al  Al7  1  0.43527308  0.10180243  0.79624681  1
  Al  Al8  1  0.55538004  0.21392248  0.55679394  1
  Al  Al9  1  0.10370507  0.43112536  0.29860478  1
  Al  Al10  1  0.21627066  0.53694522  0.05911312  1
  Al  Al11  1  0.43666312  0.42964612  0.31396106  1
  Al  Al12  1  0.12674524  0.42568945  0.81516147  1
  Al  Al13  1  0.23514219  0.53329516  0.56180907  1
  Al  Al14  1  0.77855590  0.43078413  0.28876859  1
  Al  Al15  1  0.90475930  0.53626169  0.05676921  1
  Al  Al16  1  0.42783042  0.43747471  0.80041300  1
  Al  Al17  1  0.54920171  0.53974837  0.54806307  1
  Al  Al18  1  0.11085223  0.76320741  0.30028385  1
  Al  Al19  1  0.21500641  0.87789609  0.05900701  1
  Al  Al20  1  0.78688179  0.75686349  0.80866237  1
  Al  Al21  1  0.43651868  0.76271907  0.31961714  1
  Al  Al22  1  0.12720883  0.75096823  0.81576851  1
  Al  Al23  1  0.23337231  0.86665483  0.56292498  1
  Al  Al24  1  0.78203232  0.75645113  0.29426341  1
  Al  Al25  1  0.90125054  0.85914279  0.05916774  1
  Al  Al26  1  0.43592402  0.76440476  0.79314996  1
  Al  Al27  1  0.55785803  0.86513734  0.56375133  1
  Gd  Gd28  1  0.77246653  0.09414803  0.83558803  1
  Gd  Gd29  1  0.90255872  0.19481772  0.53758449  1
  Gd  Gd30  1  0.43173208  0.10118236  0.32902061  1
  Gd  Gd31  1  0.77796963  0.43048504  0.81718547  1
  Gd  Gd32  1  0.90494932  0.53060256  0.54964862  1
  Gd  Gd33  1  0.53632583  0.54207799  0.06984069  1
  Gd  Gd34  1  0.89848198  0.86766870  0.55497290  1
  Gd  Gd35  1  0.55153019  0.87399043  0.05295365  1
  N  N36  1  0.17180183  0.22993492  0.38496215  1
  N  N37  1  0.11865484  0.09342840  0.11505346  1
  N  N38  1  0.92763579  0.18717650  0.88428182  1
  N  N39  1  0.75605955  0.10847858  0.61922587  1
  N  N40  1  0.57076261  0.21949891  0.37086297  1
  N  N41  1  0.42256229  0.11846670  0.11296105  1
  N  N42  1  0.22599037  0.20396097  0.86598403  1
  N  N43  1  0.14483337  0.07575356  0.63276595  1
  N  N44  1  0.88344208  0.20598936  0.31636029  1
  N  N45  1  0.76394440  0.09777193  0.09382042  1
  N  N46  1  0.51251134  0.23019903  0.86923077  1
  N  N47  1  0.44677722  0.09522318  0.59946935  1
  N  N48  1  0.21211636  0.54291666  0.37081001  1
  N  N49  1  0.11377170  0.42455814  0.11306773  1
  N  N50  1  0.91208784  0.54701996  0.86876892  1
  N  N51  1  0.75595605  0.43530941  0.59919006  1
  N  N52  1  0.55054298  0.53909749  0.35316860  1
  N  N53  1  0.41643281  0.41727190  0.13321283  1
  N  N54  1  0.22530212  0.53948522  0.87431822  1
  N  N55  1  0.14975652  0.41183941  0.63299742  1
  N  N56  1  0.88727711  0.54042012  0.33409223  1
  N  N57  1  0.79704840  0.42476522  0.10110258  1
  N  N58  1  0.52092122  0.55697791  0.85322758  1
  N  N59  1  0.44583917  0.42887171  0.61052218  1
  N  N60  1  0.20928966  0.88099185  0.37428892  1
  N  N61  1  0.11511214  0.75984940  0.11444783  1
  N  N62  1  0.91339315  0.83995062  0.87079118  1
  N  N63  1  0.76074902  0.76776177  0.62813879  1
  N  N64  1  0.57451679  0.84138092  0.37120405  1
  N  N65  1  0.40733698  0.78500659  0.14107086  1
  N  N66  1  0.23017719  0.86913939  0.87226219  1
  N  N67  1  0.14762851  0.74335716  0.63041661  1
  N  N68  1  0.88561845  0.87816443  0.33429468  1
  N  N69  1  0.80210846  0.74828865  0.11255414  1
  N  N70  1  0.55262913  0.87515387  0.83563893  1
  N  N71  1  0.44647614  0.75726426  0.60525385  1
