# generated using pymatgen
data_Gd2Al7N9
_symmetry_space_group_name_H-M   'P 1'
_cell_length_a   9.89062831
_cell_length_b   9.82385824
_cell_length_c   10.80949718
_cell_angle_alpha   90.03746630
_cell_angle_beta   89.51129319
_cell_angle_gamma   60.18271212
_symmetry_Int_Tables_number   1
_chemical_formula_structural   Gd2Al7N9
_chemical_formula_sum   'Gd8 Al28 N36'
_cell_volume   911.20487112
_cell_formula_units_Z   4
loop_
 _symmetry_equiv_pos_site_id
 _symmetry_equiv_pos_as_xyz
  1  'x, y, z'
loop_
 _atom_site_type_symbol
 _atom_site_label
 _atom_site_symmetry_multiplicity
 _atom_site_fract_x
 _atom_site_fract_y
 _atom_site_fract_z
 _atom_site_occupancy
  Al  Al0  1  0.12257324  0.08634378  0.37364016  1
  Al  Al1  1  0.21970680  0.20709158  0.14364956  1
  Al  Al2  1  0.53956386  0.21773256  0.13703860  1
  Al  Al3  1  0.11184419  0.10135355  0.90604039  1
  Al  Al4  1  0.22540871  0.19478629  0.65915175  1
  Al  Al5  1  0.79129835  0.08770954  0.29585315  1
  Al  Al6  1  0.89801167  0.20410502  0.08792543  1
  Al  Al7  1  0.41731286  0.11552276  0.89737613  1
  Al  Al8  1  0.52589434  0.21910526  0.66167689  1
  Al  Al9  1  0.11741302  0.43324994  0.31581213  1
  Al  Al10  1  0.21073878  0.54155923  0.06972970  1
  Al  Al11  1  0.46509904  0.42107338  0.40355990  1
  Al  Al12  1  0.11437185  0.43634082  0.82884713  1
  Al  Al13  1  0.22906687  0.53489663  0.57645959  1
  Al  Al14  1  0.80377262  0.41908049  0.30999218  1
  Al  Al15  1  0.91355559  0.53224134  0.07567891  1
  Al  Al16  1  0.41756482  0.44051126  0.89172563  1
  Al  Al17  1  0.52618507  0.55251347  0.65217126  1
  Al  Al18  1  0.12404091  0.75525874  0.31988356  1
  Al  Al19  1  0.20752926  0.87308279  0.06972564  1
  Al  Al20  1  0.78854201  0.75673156  0.83937892  1
  Al  Al21  1  0.47370741  0.74328962  0.40951538  1
  Al  Al22  1  0.11855153  0.75633592  0.82475300  1
  Al  Al23  1  0.22949418  0.86926914  0.57237156  1
  Al  Al24  1  0.80148966  0.74565086  0.30741985  1
  Al  Al25  1  0.91022385  0.85482348  0.07470006  1
  Al  Al26  1  0.41776261  0.77232380  0.88968600  1
  Al  Al27  1  0.54087359  0.87854321  0.67129779  1
  Gd  Gd28  1  0.76236971  0.09760073  0.86202409  1
  Gd  Gd29  1  0.86181275  0.21766804  0.56336494  1
  Gd  Gd30  1  0.45360645  0.08970094  0.40232940  1
  Gd  Gd31  1  0.75531470  0.44910911  0.85988433  1
  Gd  Gd32  1  0.88819719  0.53714463  0.57798439  1
  Gd  Gd33  1  0.53598699  0.54141744  0.15273040  1
  Gd  Gd34  1  0.88831283  0.87109533  0.57453861  1
  Gd  Gd35  1  0.55814819  0.87209313  0.11557350  1
  N  N36  1  0.21205219  0.20724397  0.32156773  1
  N  N37  1  0.12084096  0.09240053  0.09361568  1
  N  N38  1  0.89970837  0.20626481  0.91077416  1
  N  N39  1  0.74513853  0.10419220  0.64903667  1
  N  N40  1  0.56654072  0.22406268  0.31443598  1
  N  N41  1  0.42396205  0.12648767  0.07643245  1
  N  N42  1  0.20978996  0.20566244  0.84002123  1
  N  N43  1  0.12830960  0.09299245  0.57657754  1
  N  N44  1  0.89982773  0.19586294  0.34462582  1
  N  N45  1  0.78143971  0.08645652  0.11542058  1
  N  N46  1  0.49789499  0.23757152  0.83326953  1
  N  N47  1  0.44048053  0.09015450  0.61360649  1
  N  N48  1  0.22437956  0.53816842  0.38818965  1
  N  N49  1  0.11826232  0.43095808  0.13646025  1
  N  N50  1  0.90753783  0.54843167  0.89667349  1
  N  N51  1  0.74629253  0.44472045  0.65245762  1
  N  N52  1  0.57676781  0.52748616  0.36234308  1
  N  N53  1  0.43243052  0.41588267  0.06781842  1
  N  N54  1  0.20151120  0.55263337  0.89288450  1
  N  N55  1  0.13865174  0.42157137  0.65009986  1
  N  N56  1  0.90307121  0.53275919  0.36475368  1
  N  N57  1  0.80269376  0.42369663  0.12900319  1
  N  N58  1  0.48996039  0.57021320  0.82651990  1
  N  N59  1  0.45190852  0.41888131  0.58043577  1
  N  N60  1  0.23520689  0.85733203  0.38531940  1
  N  N61  1  0.12199983  0.75488041  0.13887850  1
  N  N62  1  0.90836605  0.84411410  0.89519078  1
  N  N63  1  0.75924263  0.76975053  0.66587207  1
  N  N64  1  0.57960457  0.83882228  0.33346779  1
  N  N65  1  0.42088529  0.76547816  0.06397343  1
  N  N66  1  0.19750303  0.88400361  0.88595760  1
  N  N67  1  0.14413883  0.74584210  0.64417378  1
  N  N68  1  0.89403087  0.87312002  0.35782756  1
  N  N69  1  0.82030487  0.73967394  0.13224244  1
  N  N70  1  0.54016310  0.88030055  0.85663690  1
  N  N71  1  0.45164681  0.76353596  0.59016100  1
