# generated using pymatgen
data_Gd2Al7N9
_symmetry_space_group_name_H-M   'P 1'
_cell_length_a   9.99985667
_cell_length_b   9.87181954
_cell_length_c   10.45947393
_cell_angle_alpha   90.19134077
_cell_angle_beta   90.45317890
_cell_angle_gamma   60.66977515
_symmetry_Int_Tables_number   1
_chemical_formula_structural   Gd2Al7N9
_chemical_formula_sum   'Gd8 Al28 N36'
_cell_volume   900.13883250
_cell_formula_units_Z   4
loop_
 _symmetry_equiv_pos_site_id
 _symmetry_equiv_pos_as_xyz
  1  'x, y, z'
loop_
 _atom_site_type_symbol
 _atom_site_label
 _atom_site_symmetry_multiplicity
 _atom_site_fract_x
 _atom_site_fract_y
 _atom_site_fract_z
 _atom_site_occupancy
  Al  Al0  1  0.12468347  0.08757092  0.38740200  1
  Al  Al1  1  0.21397113  0.21376487  0.14248453  1
  Al  Al2  1  0.53599829  0.22186229  0.13806883  1
  Al  Al3  1  0.11838206  0.09205551  0.89570463  1
  Al  Al4  1  0.22854638  0.19934934  0.64748966  1
  Al  Al5  1  0.79047833  0.09098777  0.30187884  1
  Al  Al6  1  0.90498023  0.19882749  0.09607728  1
  Al  Al7  1  0.41712226  0.11723423  0.89549853  1
  Al  Al8  1  0.52698754  0.22066513  0.66085140  1
  Al  Al9  1  0.12648197  0.41891636  0.39184250  1
  Al  Al10  1  0.22061908  0.52960566  0.14601778  1
  Al  Al11  1  0.45575786  0.42678001  0.40056111  1
  Al  Al12  1  0.11771294  0.42527350  0.89315919  1
  Al  Al13  1  0.23186441  0.52621340  0.64060560  1
  Al  Al14  1  0.80008483  0.42031225  0.31792836  1
  Al  Al15  1  0.90936061  0.53332705  0.07672045  1
  Al  Al16  1  0.40668790  0.44405042  0.89386638  1
  Al  Al17  1  0.52218013  0.55483635  0.65345260  1
  Al  Al18  1  0.11935271  0.75832854  0.32377014  1
  Al  Al19  1  0.21953116  0.88193064  0.14641288  1
  Al  Al20  1  0.78862976  0.75722174  0.84058390  1
  Al  Al21  1  0.46255943  0.75098809  0.40516488  1
  Al  Al22  1  0.11479169  0.75770880  0.81869441  1
  Al  Al23  1  0.23053343  0.87674131  0.63919644  1
  Al  Al24  1  0.80198290  0.74206341  0.31065781  1
  Al  Al25  1  0.91984531  0.84784195  0.07681141  1
  Al  Al26  1  0.41043609  0.77673826  0.89134495  1
  Al  Al27  1  0.53857707  0.88090842  0.67059751  1
  Gd  Gd28  1  0.76154771  0.09323947  0.86954193  1
  Gd  Gd29  1  0.87387955  0.21282131  0.58873142  1
  Gd  Gd30  1  0.45510311  0.08744247  0.39532375  1
  Gd  Gd31  1  0.75225317  0.44352837  0.86735904  1
  Gd  Gd32  1  0.88165490  0.54127429  0.59404020  1
  Gd  Gd33  1  0.53804340  0.54556636  0.14240550  1
  Gd  Gd34  1  0.88175490  0.87585237  0.57415543  1
  Gd  Gd35  1  0.56278898  0.87267508  0.10677665  1
  N  N36  1  0.20554601  0.21422860  0.32320965  1
  N  N37  1  0.12065848  0.09117318  0.08483544  1
  N  N38  1  0.90977061  0.19566807  0.87732165  1
  N  N39  1  0.73931865  0.10858889  0.64647346  1
  N  N40  1  0.57071644  0.22281962  0.31845206  1
  N  N41  1  0.42225140  0.12657799  0.08381193  1
  N  N42  1  0.21034533  0.21040737  0.83429701  1
  N  N43  1  0.14098847  0.08214447  0.57237186  1
  N  N44  1  0.90089537  0.19732132  0.35115187  1
  N  N45  1  0.78445182  0.08855819  0.11327055  1
  N  N46  1  0.50156327  0.23772812  0.83974901  1
  N  N47  1  0.44265367  0.09005797  0.61294119  1
  N  N48  1  0.23522860  0.52835998  0.33384820  1
  N  N49  1  0.12254429  0.42092073  0.08037718  1
  N  N50  1  0.90035186  0.54867848  0.88763447  1
  N  N51  1  0.73541901  0.44964110  0.65202770  1
  N  N52  1  0.56825590  0.53337441  0.35785597  1
  N  N53  1  0.41875850  0.42377395  0.07468919  1
  N  N54  1  0.20843767  0.53694201  0.82629483  1
  N  N55  1  0.14789298  0.40359505  0.57638791  1
  N  N56  1  0.90317084  0.53214895  0.37153095  1
  N  N57  1  0.80503259  0.41930825  0.12557331  1
  N  N58  1  0.48943729  0.56986453  0.83824523  1
  N  N59  1  0.44026691  0.42693548  0.58401422  1
  N  N60  1  0.23925922  0.86893479  0.33463246  1
  N  N61  1  0.12167059  0.75650262  0.13720220  1
  N  N62  1  0.91682996  0.83846449  0.89292528  1
  N  N63  1  0.75107377  0.77768719  0.66420412  1
  N  N64  1  0.58299999  0.83589247  0.33359505  1
  N  N65  1  0.40643481  0.78099263  0.06820767  1
  N  N66  1  0.21134754  0.88940359  0.82561028  1
  N  N67  1  0.13407859  0.74961692  0.63038263  1
  N  N68  1  0.89525416  0.87264815  0.35559642  1
  N  N69  1  0.82366696  0.73677341  0.13095793  1
  N  N70  1  0.54162655  0.88207211  0.86188537  1
  N  N71  1  0.44328545  0.76676190  0.59201987  1
