# generated using pymatgen
data_Gd2Al7N9
_symmetry_space_group_name_H-M   'P 1'
_cell_length_a   9.93365899
_cell_length_b   9.83730935
_cell_length_c   10.69307126
_cell_angle_alpha   90.35902345
_cell_angle_beta   90.20390824
_cell_angle_gamma   60.38788840
_symmetry_Int_Tables_number   1
_chemical_formula_structural   Gd2Al7N9
_chemical_formula_sum   'Gd8 Al28 N36'
_cell_volume   908.43600316
_cell_formula_units_Z   4
loop_
 _symmetry_equiv_pos_site_id
 _symmetry_equiv_pos_as_xyz
  1  'x, y, z'
loop_
 _atom_site_type_symbol
 _atom_site_label
 _atom_site_symmetry_multiplicity
 _atom_site_fract_x
 _atom_site_fract_y
 _atom_site_fract_z
 _atom_site_occupancy
  Al  Al0  1  0.12767757  0.08372794  0.38652434  1
  Al  Al1  1  0.21606983  0.21291070  0.14426331  1
  Al  Al2  1  0.54036786  0.21934324  0.13841997  1
  Al  Al3  1  0.11874916  0.09178543  0.90076967  1
  Al  Al4  1  0.22390278  0.20105612  0.64834768  1
  Al  Al5  1  0.79537096  0.08842937  0.29733418  1
  Al  Al6  1  0.90286267  0.20039664  0.08266802  1
  Al  Al7  1  0.41573423  0.11756187  0.89521420  1
  Al  Al8  1  0.52622479  0.21911304  0.66101140  1
  Al  Al9  1  0.12460881  0.41829745  0.38454020  1
  Al  Al10  1  0.21259828  0.54540630  0.07277027  1
  Al  Al11  1  0.46888679  0.42124304  0.40121944  1
  Al  Al12  1  0.11190548  0.42430407  0.89738145  1
  Al  Al13  1  0.23257762  0.53433133  0.56838975  1
  Al  Al14  1  0.80473822  0.41660136  0.31164221  1
  Al  Al15  1  0.90482525  0.53494972  0.07996203  1
  Al  Al16  1  0.41594826  0.44150721  0.89189613  1
  Al  Al17  1  0.52412098  0.55274943  0.65228744  1
  Al  Al18  1  0.12200776  0.75115881  0.31876392  1
  Al  Al19  1  0.21969855  0.88143140  0.14642445  1
  Al  Al20  1  0.78679280  0.75847882  0.83963687  1
  Al  Al21  1  0.46287174  0.75078112  0.40604759  1
  Al  Al22  1  0.11656561  0.75171883  0.82135650  1
  Al  Al23  1  0.22913104  0.87563779  0.64323477  1
  Al  Al24  1  0.80150904  0.74529787  0.30737497  1
  Al  Al25  1  0.91403313  0.85368143  0.07482918  1
  Al  Al26  1  0.40904556  0.77697468  0.88989034  1
  Al  Al27  1  0.53806493  0.88051551  0.67158946  1
  Gd  Gd28  1  0.76062722  0.09583227  0.86509778  1
  Gd  Gd29  1  0.86584101  0.21470546  0.57117483  1
  Gd  Gd30  1  0.45820536  0.08795653  0.39932201  1
  Gd  Gd31  1  0.75233521  0.44567552  0.86219664  1
  Gd  Gd32  1  0.87596035  0.54363488  0.58133175  1
  Gd  Gd33  1  0.53611931  0.54763775  0.14940326  1
  Gd  Gd34  1  0.88598736  0.87186576  0.57461213  1
  Gd  Gd35  1  0.55861534  0.87365120  0.10811740  1
  N  N36  1  0.21054148  0.21039227  0.32251030  1
  N  N37  1  0.12432094  0.08947663  0.08701545  1
  N  N38  1  0.90595052  0.19940654  0.90299811  1
  N  N39  1  0.74359858  0.10477651  0.64950727  1
  N  N40  1  0.57261433  0.22188559  0.31602677  1
  N  N41  1  0.42391201  0.12779482  0.07908727  1
  N  N42  1  0.20632042  0.21219431  0.83339406  1
  N  N43  1  0.13630143  0.08091100  0.57138318  1
  N  N44  1  0.90254626  0.19603944  0.35190581  1
  N  N45  1  0.78492529  0.08641966  0.11423232  1
  N  N46  1  0.49763085  0.23869573  0.83436730  1
  N  N47  1  0.44094756  0.08936931  0.61293338  1
  N  N48  1  0.23310698  0.54005007  0.38137987  1
  N  N49  1  0.11912047  0.41847531  0.08517463  1
  N  N50  1  0.89541257  0.55331930  0.89548819  1
  N  N51  1  0.74130201  0.44493676  0.65357656  1
  N  N52  1  0.57559339  0.53112026  0.36080272  1
  N  N53  1  0.43199471  0.41839720  0.07146891  1
  N  N54  1  0.20236477  0.55259460  0.89004764  1
  N  N55  1  0.14199969  0.40377371  0.57556071  1
  N  N56  1  0.90367664  0.53280638  0.36383665  1
  N  N57  1  0.80220996  0.41974730  0.12790540  1
  N  N58  1  0.48877867  0.57131402  0.83009954  1
  N  N59  1  0.45232153  0.41847612  0.58060155  1
  N  N60  1  0.24183518  0.86505368  0.33130701  1
  N  N61  1  0.12020628  0.75481278  0.13838246  1
  N  N62  1  0.91182005  0.84259347  0.89371551  1
  N  N63  1  0.75345950  0.77576239  0.66596187  1
  N  N64  1  0.58056994  0.83779133  0.33211210  1
  N  N65  1  0.40563177  0.77722064  0.06284954  1
  N  N66  1  0.20750209  0.89206202  0.82486136  1
  N  N67  1  0.13950632  0.73821375  0.64032619  1
  N  N68  1  0.89623172  0.87247267  0.35783633  1
  N  N69  1  0.82018188  0.74107977  0.13171898  1
  N  N70  1  0.53920490  0.88279387  0.85974807  1
  N  N71  1  0.44358237  0.76546363  0.59044028  1
