# generated using pymatgen
data_Gd2Al7N9
_symmetry_space_group_name_H-M   'P 1'
_cell_length_a   10.11493026
_cell_length_b   9.88329563
_cell_length_c   10.20294457
_cell_angle_alpha   90.02165169
_cell_angle_beta   90.72755410
_cell_angle_gamma   60.84883508
_symmetry_Int_Tables_number   1
_chemical_formula_structural   Gd2Al7N9
_chemical_formula_sum   'Gd8 Al28 N36'
_cell_volume   890.69237739
_cell_formula_units_Z   4
loop_
 _symmetry_equiv_pos_site_id
 _symmetry_equiv_pos_as_xyz
  1  'x, y, z'
loop_
 _atom_site_type_symbol
 _atom_site_label
 _atom_site_symmetry_multiplicity
 _atom_site_fract_x
 _atom_site_fract_y
 _atom_site_fract_z
 _atom_site_occupancy
  Al  Al0  1  0.12707796  0.08580240  0.39957462  1
  Al  Al1  1  0.21402345  0.21238755  0.14902440  1
  Al  Al2  1  0.52924520  0.22550095  0.15181260  1
  Al  Al3  1  0.11460407  0.09069444  0.90192212  1
  Al  Al4  1  0.22702998  0.20145216  0.65838843  1
  Al  Al5  1  0.78069790  0.09760588  0.33104036  1
  Al  Al6  1  0.91193018  0.19547710  0.15420733  1
  Al  Al7  1  0.41708148  0.11761739  0.90297989  1
  Al  Al8  1  0.52620073  0.22199344  0.67043290  1
  Al  Al9  1  0.12820479  0.41906440  0.40208780  1
  Al  Al10  1  0.21667965  0.53890942  0.15375901  1
  Al  Al11  1  0.45332448  0.42897401  0.41332904  1
  Al  Al12  1  0.11153292  0.43265830  0.90150769  1
  Al  Al13  1  0.23006390  0.53495775  0.65064283  1
  Al  Al14  1  0.78751701  0.42570303  0.34042965  1
  Al  Al15  1  0.91774519  0.52593407  0.14100145  1
  Al  Al16  1  0.41010781  0.44236479  0.90299463  1
  Al  Al17  1  0.52723105  0.55147015  0.66616498  1
  Al  Al18  1  0.13849712  0.74945137  0.40106001  1
  Al  Al19  1  0.21652056  0.87777020  0.15379051  1
  Al  Al20  1  0.78427191  0.75842111  0.83899534  1
  Al  Al21  1  0.46094046  0.75069970  0.41597716  1
  Al  Al22  1  0.11128242  0.75855630  0.90026543  1
  Al  Al23  1  0.22951031  0.86973343  0.64882107  1
  Al  Al24  1  0.79302315  0.74718998  0.33354835  1
  Al  Al25  1  0.91583771  0.85898579  0.15429281  1
  Al  Al26  1  0.41242908  0.77401748  0.89935400  1
  Al  Al27  1  0.53188465  0.88279253  0.67546637  1
  Gd  Gd28  1  0.76601303  0.09332100  0.89137571  1
  Gd  Gd29  1  0.88237015  0.20693411  0.61892651  1
  Gd  Gd30  1  0.45032734  0.08820960  0.40546647  1
  Gd  Gd31  1  0.76814136  0.43533418  0.88572921  1
  Gd  Gd32  1  0.88546765  0.53834417  0.61489183  1
  Gd  Gd33  1  0.54008061  0.54442042  0.14421025  1
  Gd  Gd34  1  0.88486857  0.87500768  0.61133658  1
  Gd  Gd35  1  0.56558958  0.87072368  0.11290748  1
  N  N36  1  0.20280479  0.21519836  0.33340337  1
  N  N37  1  0.11370607  0.09268414  0.09559768  1
  N  N38  1  0.91608108  0.18883367  0.84770327  1
  N  N39  1  0.73056269  0.11472420  0.64443100  1
  N  N40  1  0.56655602  0.22505630  0.33521089  1
  N  N41  1  0.42162642  0.12494715  0.09797920  1
  N  N42  1  0.21023705  0.21123381  0.84935610  1
  N  N43  1  0.14673014  0.07763038  0.58379181  1
  N  N44  1  0.90231871  0.19772046  0.35440329  1
  N  N45  1  0.78676051  0.08963076  0.13462838  1
  N  N46  1  0.50634150  0.23502286  0.85383345  1
  N  N47  1  0.43665778  0.09460997  0.62581648  1
  N  N48  1  0.23296264  0.53384129  0.34231695  1
  N  N49  1  0.11853177  0.42499809  0.09316732  1
  N  N50  1  0.90566454  0.54633893  0.86095154  1
  N  N51  1  0.73463554  0.44944594  0.65550736  1
  N  N52  1  0.56505030  0.53449440  0.36722124  1
  N  N53  1  0.41455602  0.42617759  0.08871515  1
  N  N54  1  0.20924071  0.54612189  0.84083069  1
  N  N55  1  0.14977711  0.40636572  0.58755766  1
  N  N56  1  0.90653164  0.52856006  0.36761125  1
  N  N57  1  0.80603468  0.41678118  0.13983532  1
  N  N58  1  0.50352398  0.56227472  0.85738746  1
  N  N59  1  0.43767050  0.43005124  0.59927647  1
  N  N60  1  0.23639784  0.86691257  0.34269049  1
  N  N61  1  0.11823909  0.75915675  0.09712077  1
  N  N62  1  0.90768092  0.84761453  0.85235660  1
  N  N63  1  0.73671822  0.78058987  0.65443833  1
  N  N64  1  0.58027289  0.83605881  0.34708474  1
  N  N65  1  0.40515687  0.78403762  0.08158483  1
  N  N66  1  0.20998657  0.87924738  0.83872378  1
  N  N67  1  0.14883578  0.74262856  0.58496701  1
  N  N68  1  0.90314817  0.87007939  0.35752143  1
  N  N69  1  0.82229514  0.73855508  0.14629048  1
  N  N70  1  0.54144624  0.88056609  0.86983928  1
  N  N71  1  0.43997817  0.76555992  0.60538745  1
