# generated using pymatgen
data_Gd2Al7N9
_symmetry_space_group_name_H-M   'P 1'
_cell_length_a   9.94317568
_cell_length_b   9.86038829
_cell_length_c   10.57594401
_cell_angle_alpha   90.18141681
_cell_angle_beta   90.32705543
_cell_angle_gamma   60.54781533
_symmetry_Int_Tables_number   1
_chemical_formula_structural   Gd2Al7N9
_chemical_formula_sum   'Gd8 Al28 N36'
_cell_volume   902.88573632
_cell_formula_units_Z   4
loop_
 _symmetry_equiv_pos_site_id
 _symmetry_equiv_pos_as_xyz
  1  'x, y, z'
loop_
 _atom_site_type_symbol
 _atom_site_label
 _atom_site_symmetry_multiplicity
 _atom_site_fract_x
 _atom_site_fract_y
 _atom_site_fract_z
 _atom_site_occupancy
  Al  Al0  1  0.12612793  0.08654315  0.38675909  1
  Al  Al1  1  0.21514633  0.21332459  0.14402560  1
  Al  Al2  1  0.53907217  0.21996506  0.13715680  1
  Al  Al3  1  0.11927620  0.09230365  0.89983540  1
  Al  Al4  1  0.22637644  0.20022608  0.64772226  1
  Al  Al5  1  0.79277779  0.09084254  0.29805401  1
  Al  Al6  1  0.90389539  0.19968891  0.08349158  1
  Al  Al7  1  0.41651655  0.11734173  0.89611153  1
  Al  Al8  1  0.52734491  0.22012510  0.66159885  1
  Al  Al9  1  0.12791162  0.41869843  0.39186814  1
  Al  Al10  1  0.22126566  0.52860938  0.14558514  1
  Al  Al11  1  0.45647632  0.42649465  0.40078476  1
  Al  Al12  1  0.11624502  0.42565518  0.89462729  1
  Al  Al13  1  0.23155565  0.52547109  0.64199699  1
  Al  Al14  1  0.80352982  0.41801072  0.31429246  1
  Al  Al15  1  0.90778105  0.53341101  0.07720846  1
  Al  Al16  1  0.40668999  0.44391705  0.89407360  1
  Al  Al17  1  0.52141282  0.55532387  0.65307654  1
  Al  Al18  1  0.11957048  0.75798170  0.32175545  1
  Al  Al19  1  0.22076042  0.88151342  0.14711089  1
  Al  Al20  1  0.78823039  0.75724988  0.84047979  1
  Al  Al21  1  0.46306320  0.75076515  0.40599763  1
  Al  Al22  1  0.11413808  0.75712719  0.81873408  1
  Al  Al23  1  0.22869388  0.87836731  0.64065253  1
  Al  Al24  1  0.80297552  0.74207834  0.30954928  1
  Al  Al25  1  0.91903444  0.84879952  0.07641399  1
  Al  Al26  1  0.40926217  0.77733939  0.89160381  1
  Al  Al27  1  0.53821846  0.88153105  0.67162998  1
  Gd  Gd28  1  0.76283158  0.09260764  0.86677471  1
  Gd  Gd29  1  0.86751099  0.21654031  0.57484859  1
  Gd  Gd30  1  0.45788405  0.08733278  0.39681542  1
  Gd  Gd31  1  0.75046101  0.44518210  0.86478309  1
  Gd  Gd32  1  0.87879285  0.54303578  0.58939893  1
  Gd  Gd33  1  0.53726763  0.54519696  0.14622835  1
  Gd  Gd34  1  0.88267440  0.87561180  0.57271562  1
  Gd  Gd35  1  0.56235019  0.87258843  0.10784853  1
  N  N36  1  0.20797534  0.21337501  0.32376074  1
  N  N37  1  0.12425120  0.08983252  0.08755908  1
  N  N38  1  0.90672653  0.19866026  0.90050301  1
  N  N39  1  0.74238344  0.10807377  0.64845884  1
  N  N40  1  0.57136620  0.22360156  0.31688613  1
  N  N41  1  0.42328949  0.12662599  0.08205492  1
  N  N42  1  0.20804065  0.21126512  0.83356473  1
  N  N43  1  0.13696054  0.08385127  0.57209839  1
  N  N44  1  0.90111640  0.19698869  0.35285427  1
  N  N45  1  0.78358393  0.08720563  0.11314906  1
  N  N46  1  0.50155953  0.23726319  0.83874027  1
  N  N47  1  0.44242653  0.09025445  0.61284715  1
  N  N48  1  0.23645704  0.52786688  0.33255700  1
  N  N49  1  0.12275358  0.42019242  0.08031607  1
  N  N50  1  0.89788508  0.55026522  0.89130216  1
  N  N51  1  0.73720547  0.44776249  0.65387391  1
  N  N52  1  0.57028160  0.53248648  0.35998215  1
  N  N53  1  0.42062588  0.42258387  0.07292765  1
  N  N54  1  0.20763626  0.53590524  0.82590447  1
  N  N55  1  0.14649325  0.40449297  0.57562460  1
  N  N56  1  0.90419348  0.53171443  0.37020625  1
  N  N57  1  0.80430272  0.41918169  0.12743979  1
  N  N58  1  0.48668427  0.57159351  0.83540660  1
  N  N59  1  0.44116123  0.42571983  0.58329543  1
  N  N60  1  0.24063293  0.86769943  0.33426052  1
  N  N61  1  0.12210563  0.75627136  0.13778613  1
  N  N62  1  0.91639716  0.83807556  0.89477754  1
  N  N63  1  0.75262385  0.77761234  0.66568671  1
  N  N64  1  0.58266603  0.83632762  0.33310031  1
  N  N65  1  0.40776208  0.77839609  0.06654624  1
  N  N66  1  0.20835806  0.89203831  0.82561185  1
  N  N67  1  0.13408347  0.74916322  0.63288672  1
  N  N68  1  0.89565117  0.87308236  0.35589831  1
  N  N69  1  0.82414872  0.73670675  0.13223165  1
  N  N70  1  0.54058468  0.88263838  0.86128516  1
  N  N71  1  0.44315340  0.76749554  0.59176909  1
