# generated using pymatgen
data_Gd2Al7N9
_symmetry_space_group_name_H-M   'P 1'
_cell_length_a   10.01880986
_cell_length_b   9.86202177
_cell_length_c   10.26954139
_cell_angle_alpha   90.04411803
_cell_angle_beta   90.07836193
_cell_angle_gamma   60.74971757
_symmetry_Int_Tables_number   1
_chemical_formula_structural   Gd2Al7N9
_chemical_formula_sum   'Gd8 Al28 N36'
_cell_volume   885.30920818
_cell_formula_units_Z   4
loop_
 _symmetry_equiv_pos_site_id
 _symmetry_equiv_pos_as_xyz
  1  'x, y, z'
loop_
 _atom_site_type_symbol
 _atom_site_label
 _atom_site_symmetry_multiplicity
 _atom_site_fract_x
 _atom_site_fract_y
 _atom_site_fract_z
 _atom_site_occupancy
  Al  Al0  1  0.12493274  0.08794324  0.39879476  1
  Al  Al1  1  0.21488806  0.21177537  0.14611967  1
  Al  Al2  1  0.53359297  0.22357929  0.15453229  1
  Al  Al3  1  0.11275477  0.09091452  0.90556296  1
  Al  Al4  1  0.22843422  0.20171439  0.65986187  1
  Al  Al5  1  0.76675975  0.10636056  0.37989142  1
  Al  Al6  1  0.90415640  0.19740725  0.16917955  1
  Al  Al7  1  0.42302430  0.11645978  0.89673794  1
  Al  Al8  1  0.53567084  0.21818616  0.65701832  1
  Al  Al9  1  0.13042058  0.41815702  0.39982290  1
  Al  Al10  1  0.21668920  0.53899221  0.14979817  1
  Al  Al11  1  0.44470467  0.43296982  0.41420166  1
  Al  Al12  1  0.10951645  0.43464686  0.90455118  1
  Al  Al13  1  0.23214379  0.53402038  0.65211301  1
  Al  Al14  1  0.77760270  0.42723158  0.37538941  1
  Al  Al15  1  0.91652526  0.52193009  0.16414554  1
  Al  Al16  1  0.41875690  0.43871869  0.89746884  1
  Al  Al17  1  0.53287402  0.54968705  0.65719873  1
  Al  Al18  1  0.13543217  0.75091587  0.40053556  1
  Al  Al19  1  0.21601320  0.87788245  0.15244296  1
  Al  Al20  1  0.78068474  0.76052062  0.83450403  1
  Al  Al21  1  0.45366598  0.75675404  0.41635297  1
  Al  Al22  1  0.10957121  0.75918394  0.90215611  1
  Al  Al23  1  0.23061271  0.86884422  0.64989496  1
  Al  Al24  1  0.78939205  0.75035546  0.34007187  1
  Al  Al25  1  0.91244443  0.86380330  0.16962609  1
  Al  Al26  1  0.41647695  0.77044161  0.89786058  1
  Al  Al27  1  0.53221905  0.88193854  0.67312253  1
  Gd  Gd28  1  0.76816282  0.08982685  0.91740586  1
  Gd  Gd29  1  0.88949099  0.19690547  0.62715693  1
  Gd  Gd30  1  0.44811653  0.09039059  0.40916029  1
  Gd  Gd31  1  0.77182316  0.43555306  0.89668128  1
  Gd  Gd32  1  0.89422693  0.53626668  0.61769375  1
  Gd  Gd33  1  0.54101248  0.54244997  0.15464545  1
  Gd  Gd34  1  0.88847677  0.87454234  0.61452981  1
  Gd  Gd35  1  0.56764225  0.86981946  0.11343708  1
  N  N36  1  0.20290018  0.21507434  0.32993271  1
  N  N37  1  0.10918197  0.09383321  0.09733678  1
  N  N38  1  0.91020066  0.18743858  0.84867626  1
  N  N39  1  0.72417413  0.11792077  0.56778983  1
  N  N40  1  0.55460074  0.23377584  0.33363205  1
  N  N41  1  0.42495837  0.12549559  0.08995389  1
  N  N42  1  0.20990028  0.21230463  0.84982746  1
  N  N43  1  0.14946916  0.07758007  0.58221641  1
  N  N44  1  0.89932806  0.20024216  0.36209808  1
  N  N45  1  0.78210613  0.09062165  0.14043208  1
  N  N46  1  0.52283926  0.22829130  0.84086715  1
  N  N47  1  0.43891146  0.09328838  0.62912697  1
  N  N48  1  0.23048581  0.53664448  0.33866201  1
  N  N49  1  0.11419942  0.42660848  0.09410224  1
  N  N50  1  0.90611140  0.54665964  0.84924374  1
  N  N51  1  0.74100660  0.44309735  0.62283157  1
  N  N52  1  0.55584202  0.54025709  0.37329751  1
  N  N53  1  0.41936128  0.42296111  0.08175175  1
  N  N54  1  0.21193736  0.54473825  0.84181160  1
  N  N55  1  0.15687972  0.40261145  0.58327223  1
  N  N56  1  0.90513119  0.52742668  0.36752080  1
  N  N57  1  0.80328041  0.41606720  0.13682616  1
  N  N58  1  0.51291803  0.55923849  0.84678926  1
  N  N59  1  0.43842852  0.43041630  0.59893295  1
  N  N60  1  0.23399425  0.86863112  0.34131507  1
  N  N61  1  0.11430465  0.76189433  0.09705227  1
  N  N62  1  0.90418267  0.85249394  0.84700160  1
  N  N63  1  0.73815303  0.78088429  0.64944527  1
  N  N64  1  0.57483068  0.83954270  0.34695799  1
  N  N65  1  0.40811813  0.77943821  0.07876355  1
  N  N66  1  0.21023674  0.87915460  0.83906795  1
  N  N67  1  0.15108852  0.74078395  0.58378030  1
  N  N68  1  0.90420379  0.86842593  0.36415031  1
  N  N69  1  0.82371839  0.73723497  0.15409408  1
  N  N70  1  0.54561795  0.87778027  0.86719132  1
  N  N71  1  0.44031489  0.76652249  0.60446677  1
