# generated using pymatgen
data_Gd2Al7N9
_symmetry_space_group_name_H-M   'P 1'
_cell_length_a   10.09680841
_cell_length_b   9.86352723
_cell_length_c   10.25905995
_cell_angle_alpha   89.98646762
_cell_angle_beta   90.77600310
_cell_angle_gamma   60.74712795
_symmetry_Int_Tables_number   1
_chemical_formula_structural   Gd2Al7N9
_chemical_formula_sum   'Gd8 Al28 N36'
_cell_volume   891.29597945
_cell_formula_units_Z   4
loop_
 _symmetry_equiv_pos_site_id
 _symmetry_equiv_pos_as_xyz
  1  'x, y, z'
loop_
 _atom_site_type_symbol
 _atom_site_label
 _atom_site_symmetry_multiplicity
 _atom_site_fract_x
 _atom_site_fract_y
 _atom_site_fract_z
 _atom_site_occupancy
  Al  Al0  1  0.12694513  0.08615077  0.39890644  1
  Al  Al1  1  0.21243019  0.21472098  0.15058943  1
  Al  Al2  1  0.53036931  0.22479255  0.15138147  1
  Al  Al3  1  0.11424101  0.09083405  0.90145215  1
  Al  Al4  1  0.22854437  0.19934479  0.65795540  1
  Al  Al5  1  0.78510399  0.09161793  0.32450581  1
  Al  Al6  1  0.91205327  0.19807359  0.15324362  1
  Al  Al7  1  0.41702649  0.11615802  0.90558005  1
  Al  Al8  1  0.52490082  0.22152436  0.67095095  1
  Al  Al9  1  0.12524221  0.42080563  0.40323819  1
  Al  Al10  1  0.21694275  0.53805190  0.15593692  1
  Al  Al11  1  0.45537759  0.42804441  0.41229955  1
  Al  Al12  1  0.11880140  0.42768868  0.90160385  1
  Al  Al13  1  0.23091734  0.53486313  0.64919979  1
  Al  Al14  1  0.79374836  0.42950228  0.33532947  1
  Al  Al15  1  0.91144904  0.53466953  0.08840926  1
  Al  Al16  1  0.40789220  0.44332539  0.90367968  1
  Al  Al17  1  0.52593087  0.55237580  0.66530824  1
  Al  Al18  1  0.13440149  0.75174667  0.39978281  1
  Al  Al19  1  0.21626741  0.87755944  0.15505754  1
  Al  Al20  1  0.78101062  0.76025128  0.84993218  1
  Al  Al21  1  0.46306432  0.75027332  0.41616181  1
  Al  Al22  1  0.11491491  0.75743447  0.90239666  1
  Al  Al23  1  0.22897600  0.87043253  0.64868574  1
  Al  Al24  1  0.80087508  0.74217978  0.32904709  1
  Al  Al25  1  0.91132370  0.85932312  0.11754288  1
  Al  Al26  1  0.41190908  0.77423492  0.90096368  1
  Al  Al27  1  0.53458499  0.88071485  0.67862574  1
  Gd  Gd28  1  0.76269995  0.09895996  0.88692947  1
  Gd  Gd29  1  0.87945743  0.20809500  0.61375959  1
  Gd  Gd30  1  0.45167065  0.08834437  0.40537722  1
  Gd  Gd31  1  0.76226164  0.43244736  0.88171024  1
  Gd  Gd32  1  0.88687880  0.53706206  0.61434667  1
  Gd  Gd33  1  0.54114614  0.54309035  0.14662180  1
  Gd  Gd34  1  0.88199000  0.87464452  0.60399693  1
  Gd  Gd35  1  0.56257518  0.87108955  0.11826913  1
  N  N36  1  0.20263134  0.21606430  0.33402375  1
  N  N37  1  0.11385807  0.09309006  0.09428177  1
  N  N38  1  0.91763744  0.18835196  0.84229887  1
  N  N39  1  0.73172231  0.11215543  0.65089990  1
  N  N40  1  0.56922595  0.22350054  0.33378179  1
  N  N41  1  0.42103309  0.12536567  0.09851748  1
  N  N42  1  0.21082662  0.20993647  0.84776823  1
  N  N43  1  0.14490264  0.07868537  0.58313030  1
  N  N44  1  0.90298567  0.19803969  0.35071893  1
  N  N45  1  0.78596451  0.09118279  0.13061038  1
  N  N46  1  0.50211560  0.23651299  0.85306848  1
  N  N47  1  0.43927114  0.09151998  0.62500193  1
  N  N48  1  0.23303774  0.53362625  0.34353440  1
  N  N49  1  0.12235699  0.42403888  0.09145386  1
  N  N50  1  0.90144677  0.54837532  0.89400441  1
  N  N51  1  0.73465328  0.45036080  0.65901172  1
  N  N52  1  0.56758289  0.53390773  0.36737591  1
  N  N53  1  0.41511687  0.42592657  0.08810353  1
  N  N54  1  0.20665309  0.54764476  0.83793295  1
  N  N55  1  0.15116858  0.40521020  0.58980529  1
  N  N56  1  0.90347860  0.53200819  0.38684388  1
  N  N57  1  0.80763986  0.42042743  0.13688177  1
  N  N58  1  0.49969958  0.56320435  0.85540443  1
  N  N59  1  0.43914279  0.42901859  0.59772628  1
  N  N60  1  0.23659950  0.86706008  0.34305700  1
  N  N61  1  0.12311609  0.75621934  0.09729018  1
  N  N62  1  0.90347456  0.84787462  0.88563939  1
  N  N63  1  0.74297806  0.77643978  0.66902738  1
  N  N64  1  0.58349038  0.83553539  0.34821950  1
  N  N65  1  0.40491608  0.78239344  0.08190035  1
  N  N66  1  0.20965184  0.87917353  0.83813148  1
  N  N67  1  0.14638318  0.74428469  0.58560317  1
  N  N68  1  0.90099841  0.87008582  0.36529613  1
  N  N69  1  0.82197741  0.73751012  0.14495302  1
  N  N70  1  0.53949029  0.88103631  0.87283989  1
  N  N71  1  0.44098911  0.76597359  0.60528213  1
