# generated using pymatgen
data_Gd2Al7N9
_symmetry_space_group_name_H-M   'P 1'
_cell_length_a   10.02440722
_cell_length_b   9.86530354
_cell_length_c   10.27007222
_cell_angle_alpha   90.04906321
_cell_angle_beta   90.12632788
_cell_angle_gamma   60.76472562
_symmetry_Int_Tables_number   1
_chemical_formula_structural   Gd2Al7N9
_chemical_formula_sum   'Gd8 Al28 N36'
_cell_volume   886.27300122
_cell_formula_units_Z   4
loop_
 _symmetry_equiv_pos_site_id
 _symmetry_equiv_pos_as_xyz
  1  'x, y, z'
loop_
 _atom_site_type_symbol
 _atom_site_label
 _atom_site_symmetry_multiplicity
 _atom_site_fract_x
 _atom_site_fract_y
 _atom_site_fract_z
 _atom_site_occupancy
  Al  Al0  1  0.12552405  0.08749729  0.39909168  1
  Al  Al1  1  0.21504678  0.21168981  0.14618724  1
  Al  Al2  1  0.53354475  0.22339082  0.15467364  1
  Al  Al3  1  0.11284684  0.09064223  0.90505044  1
  Al  Al4  1  0.22810174  0.20199786  0.65993564  1
  Al  Al5  1  0.76693594  0.10621041  0.38020701  1
  Al  Al6  1  0.90563732  0.19423056  0.16776091  1
  Al  Al7  1  0.42287567  0.11653364  0.89659815  1
  Al  Al8  1  0.53555471  0.21859992  0.65709559  1
  Al  Al9  1  0.13077446  0.41816628  0.40022668  1
  Al  Al10  1  0.21642810  0.53891905  0.15013582  1
  Al  Al11  1  0.44663982  0.43274645  0.41407595  1
  Al  Al12  1  0.10933940  0.43457467  0.90374110  1
  Al  Al13  1  0.23148930  0.53412043  0.65201225  1
  Al  Al14  1  0.78182295  0.42561367  0.35356039  1
  Al  Al15  1  0.91774520  0.52326711  0.16220832  1
  Al  Al16  1  0.41734460  0.43873332  0.89808724  1
  Al  Al17  1  0.53092579  0.55045324  0.66129892  1
  Al  Al18  1  0.13579333  0.75077383  0.40073884  1
  Al  Al19  1  0.21573208  0.87830704  0.15287823  1
  Al  Al20  1  0.78141547  0.75972574  0.83414828  1
  Al  Al21  1  0.45565490  0.75503386  0.41631282  1
  Al  Al22  1  0.10970397  0.75908759  0.90184284  1
  Al  Al23  1  0.23059611  0.86905748  0.64976326  1
  Al  Al24  1  0.78974633  0.75071827  0.33975553  1
  Al  Al25  1  0.91276028  0.86390981  0.16938041  1
  Al  Al26  1  0.41521597  0.77194150  0.89856121  1
  Al  Al27  1  0.53230924  0.88194481  0.67326770  1
  Gd  Gd28  1  0.76801768  0.08947611  0.91659162  1
  Gd  Gd29  1  0.88809006  0.19918822  0.62592777  1
  Gd  Gd30  1  0.44839932  0.09007942  0.40918560  1
  Gd  Gd31  1  0.77046108  0.43552077  0.89029155  1
  Gd  Gd32  1  0.89034126  0.53634418  0.61500907  1
  Gd  Gd33  1  0.53834305  0.54406468  0.15155750  1
  Gd  Gd34  1  0.88888961  0.87468638  0.61496566  1
  Gd  Gd35  1  0.56778742  0.87025412  0.11324507  1
  N  N36  1  0.20301110  0.21512614  0.33007643  1
  N  N37  1  0.10939523  0.09386526  0.09705854  1
  N  N38  1  0.91111026  0.18526250  0.84877585  1
  N  N39  1  0.72404698  0.11832344  0.56789696  1
  N  N40  1  0.55510975  0.23323906  0.33365660  1
  N  N41  1  0.42490502  0.12547604  0.09004272  1
  N  N42  1  0.21001533  0.21210700  0.84983632  1
  N  N43  1  0.14941118  0.07769251  0.58247051  1
  N  N44  1  0.90033031  0.19897133  0.36149242  1
  N  N45  1  0.78232751  0.09030396  0.13970416  1
  N  N46  1  0.52224675  0.22874254  0.84091346  1
  N  N47  1  0.43875536  0.09354416  0.62905904  1
  N  N48  1  0.23110595  0.53648685  0.33890065  1
  N  N49  1  0.11462776  0.42624286  0.09358869  1
  N  N50  1  0.90650427  0.54676467  0.84964532  1
  N  N51  1  0.74018707  0.44322878  0.64699194  1
  N  N52  1  0.55971691  0.53831645  0.37206703  1
  N  N53  1  0.41839905  0.42248990  0.08229358  1
  N  N54  1  0.21145221  0.54472168  0.84161211  1
  N  N55  1  0.15501725  0.40349892  0.58397262  1
  N  N56  1  0.90597216  0.52779574  0.36679752  1
  N  N57  1  0.80327109  0.41598789  0.14471561  1
  N  N58  1  0.50872438  0.56132454  0.85092577  1
  N  N59  1  0.43825176  0.43099902  0.59889335  1
  N  N60  1  0.23462276  0.86812867  0.34154648  1
  N  N61  1  0.11461011  0.76177829  0.09711591  1
  N  N62  1  0.90433881  0.85218854  0.84693049  1
  N  N63  1  0.73825127  0.78106548  0.64909775  1
  N  N64  1  0.57548347  0.83937114  0.34693768  1
  N  N65  1  0.40715143  0.78172133  0.07937558  1
  N  N66  1  0.21006463  0.87935374  0.83886570  1
  N  N67  1  0.15107808  0.74088877  0.58387010  1
  N  N68  1  0.90434760  0.86855793  0.36396604  1
  N  N69  1  0.82384155  0.73776618  0.15369305  1
  N  N70  1  0.54553981  0.87784244  0.86715507  1
  N  N71  1  0.44076917  0.76579423  0.60457331  1
