# generated using pymatgen
data_Gd2Al7N9
_symmetry_space_group_name_H-M   'P 1'
_cell_length_a   9.88382288
_cell_length_b   9.83395034
_cell_length_c   10.78543207
_cell_angle_alpha   90.19964011
_cell_angle_beta   89.28042917
_cell_angle_gamma   60.16829458
_symmetry_Int_Tables_number   1
_chemical_formula_structural   Gd2Al7N9
_chemical_formula_sum   'Gd8 Al28 N36'
_cell_volume   909.27146552
_cell_formula_units_Z   4
loop_
 _symmetry_equiv_pos_site_id
 _symmetry_equiv_pos_as_xyz
  1  'x, y, z'
loop_
 _atom_site_type_symbol
 _atom_site_label
 _atom_site_symmetry_multiplicity
 _atom_site_fract_x
 _atom_site_fract_y
 _atom_site_fract_z
 _atom_site_occupancy
  Al  Al0  1  0.11548909  0.08248678  0.29487587  1
  Al  Al1  1  0.21927360  0.21059055  0.12197025  1
  Al  Al2  1  0.53981543  0.21903816  0.11701196  1
  Al  Al3  1  0.11188018  0.08711013  0.81188155  1
  Al  Al4  1  0.23538169  0.19762492  0.64743184  1
  Al  Al5  1  0.78795838  0.09246897  0.27664596  1
  Al  Al6  1  0.90839448  0.19788291  0.06065902  1
  Al  Al7  1  0.41744956  0.11620012  0.87973407  1
  Al  Al8  1  0.53099410  0.21861922  0.63986292  1
  Al  Al9  1  0.11412488  0.43658926  0.29600861  1
  Al  Al10  1  0.21076689  0.54345470  0.05081628  1
  Al  Al11  1  0.46359123  0.42373292  0.38188655  1
  Al  Al12  1  0.11443466  0.43638572  0.81204667  1
  Al  Al13  1  0.22922350  0.53499699  0.55703500  1
  Al  Al14  1  0.80060892  0.41969582  0.29096167  1
  Al  Al15  1  0.91255129  0.53240241  0.05545211  1
  Al  Al16  1  0.41888538  0.43935689  0.87121145  1
  Al  Al17  1  0.53098439  0.54844723  0.63033184  1
  Al  Al18  1  0.12075550  0.75921366  0.30144909  1
  Al  Al19  1  0.20425469  0.87816093  0.04608304  1
  Al  Al20  1  0.78659316  0.75686337  0.81935164  1
  Al  Al21  1  0.46904337  0.74772913  0.38901019  1
  Al  Al22  1  0.11779136  0.75392999  0.80568533  1
  Al  Al23  1  0.22933121  0.86962991  0.56085872  1
  Al  Al24  1  0.79770275  0.74859082  0.28738040  1
  Al  Al25  1  0.90964396  0.85526289  0.05612436  1
  Al  Al26  1  0.42070159  0.76932066  0.86979347  1
  Al  Al27  1  0.54067365  0.87812063  0.65042879  1
  Gd  Gd28  1  0.76347610  0.09617146  0.84414008  1
  Gd  Gd29  1  0.88540288  0.20407455  0.54783503  1
  Gd  Gd30  1  0.44885317  0.09398272  0.37986647  1
  Gd  Gd31  1  0.76288279  0.44038295  0.83730913  1
  Gd  Gd32  1  0.88961411  0.53717402  0.55699617  1
  Gd  Gd33  1  0.53935461  0.54051969  0.12781638  1
  Gd  Gd34  1  0.88760916  0.87108120  0.55380293  1
  Gd  Gd35  1  0.55669282  0.87267995  0.09516838  1
  N  N36  1  0.20654663  0.21348164  0.30488661  1
  N  N37  1  0.11896127  0.08205975  0.11485529  1
  N  N38  1  0.91579607  0.19413340  0.88610859  1
  N  N39  1  0.75028798  0.10584243  0.62846927  1
  N  N40  1  0.56412712  0.22679712  0.29343524  1
  N  N41  1  0.42453829  0.12679024  0.05830826  1
  N  N42  1  0.21169398  0.20976098  0.82760023  1
  N  N43  1  0.13293598  0.07641197  0.63064967  1
  N  N44  1  0.89404486  0.20019378  0.33095674  1
  N  N45  1  0.78231416  0.08816478  0.09378300  1
  N  N46  1  0.49983464  0.23622994  0.81226409  1
  N  N47  1  0.44413721  0.08919140  0.59144416  1
  N  N48  1  0.22102550  0.54221716  0.36885687  1
  N  N49  1  0.11713165  0.43273216  0.11576496  1
  N  N50  1  0.90546674  0.54911414  0.87600748  1
  N  N51  1  0.75210119  0.43762270  0.62794182  1
  N  N52  1  0.57019392  0.53348490  0.33776461  1
  N  N53  1  0.43208419  0.41613416  0.04765326  1
  N  N54  1  0.20250844  0.55227522  0.87363462  1
  N  N55  1  0.13958890  0.42081910  0.63110986  1
  N  N56  1  0.89859647  0.53634045  0.34383184  1
  N  N57  1  0.80769190  0.41782148  0.10635975  1
  N  N58  1  0.49671719  0.56552618  0.80675685  1
  N  N59  1  0.45197676  0.41899829  0.55940987  1
  N  N60  1  0.22335791  0.87246035  0.37260312  1
  N  N61  1  0.12158863  0.75657740  0.11921562  1
  N  N62  1  0.90732587  0.84329871  0.87545199  1
  N  N63  1  0.75894394  0.76947176  0.64541687  1
  N  N64  1  0.57519162  0.84250676  0.31276767  1
  N  N65  1  0.41896828  0.76685529  0.04392286  1
  N  N66  1  0.19981477  0.88020764  0.86652705  1
  N  N67  1  0.14280115  0.74425337  0.62565301  1
  N  N68  1  0.89001090  0.87665988  0.33694788  1
  N  N69  1  0.81863588  0.74018808  0.11194697  1
  N  N70  1  0.53947664  0.88097962  0.83633086  1
  N  N71  1  0.45310803  0.76091926  0.56996338  1
