# generated using pymatgen
data_Gd2Al7N9
_symmetry_space_group_name_H-M   'P 1'
_cell_length_a   10.05315267
_cell_length_b   9.86636709
_cell_length_c   10.33203446
_cell_angle_alpha   90.13658532
_cell_angle_beta   90.76711072
_cell_angle_gamma   60.74556145
_symmetry_Int_Tables_number   1
_chemical_formula_structural   Gd2Al7N9
_chemical_formula_sum   'Gd8 Al28 N36'
_cell_volume   894.01774252
_cell_formula_units_Z   4
loop_
 _symmetry_equiv_pos_site_id
 _symmetry_equiv_pos_as_xyz
  1  'x, y, z'
loop_
 _atom_site_type_symbol
 _atom_site_label
 _atom_site_symmetry_multiplicity
 _atom_site_fract_x
 _atom_site_fract_y
 _atom_site_fract_z
 _atom_site_occupancy
  Al  Al0  1  0.12687505  0.08721820  0.39933837  1
  Al  Al1  1  0.21234704  0.21502144  0.15103355  1
  Al  Al2  1  0.53278743  0.22411500  0.14990803  1
  Al  Al3  1  0.11373694  0.09207460  0.90237009  1
  Al  Al4  1  0.22892031  0.19898438  0.65899388  1
  Al  Al5  1  0.78569975  0.08831021  0.31828040  1
  Al  Al6  1  0.91055714  0.19725836  0.15137910  1
  Al  Al7  1  0.41726279  0.11684032  0.90720783  1
  Al  Al8  1  0.52556585  0.22142205  0.67230998  1
  Al  Al9  1  0.12563428  0.41885596  0.40389846  1
  Al  Al10  1  0.21744765  0.53618117  0.16089273  1
  Al  Al11  1  0.45690328  0.42612588  0.41251333  1
  Al  Al12  1  0.11870737  0.42684339  0.90296026  1
  Al  Al13  1  0.23171972  0.53176297  0.64422211  1
  Al  Al14  1  0.79434091  0.42823216  0.33368203  1
  Al  Al15  1  0.91049567  0.53394451  0.08898616  1
  Al  Al16  1  0.40722276  0.44456380  0.90477484  1
  Al  Al17  1  0.52533798  0.55330502  0.66569526  1
  Al  Al18  1  0.12731128  0.75469188  0.37631488  1
  Al  Al19  1  0.21596042  0.87921801  0.15963410  1
  Al  Al20  1  0.78395356  0.75881647  0.85437949  1
  Al  Al21  1  0.46365244  0.75088859  0.41714728  1
  Al  Al22  1  0.11489094  0.75843630  0.86247066  1
  Al  Al23  1  0.23028139  0.87234285  0.64366657  1
  Al  Al24  1  0.80108064  0.74304599  0.32468582  1
  Al  Al25  1  0.91542814  0.85223694  0.09563110  1
  Al  Al26  1  0.41171797  0.77506108  0.90172697  1
  Al  Al27  1  0.53752456  0.88079808  0.68150918  1
  Gd  Gd28  1  0.76272452  0.09849895  0.88387585  1
  Gd  Gd29  1  0.87850555  0.20933417  0.61360240  1
  Gd  Gd30  1  0.45226783  0.08856086  0.40636451  1
  Gd  Gd31  1  0.76103102  0.43359742  0.88145496  1
  Gd  Gd32  1  0.88489578  0.53995774  0.61198883  1
  Gd  Gd33  1  0.53871004  0.54537670  0.14872622  1
  Gd  Gd34  1  0.87855201  0.87697586  0.59119235  1
  Gd  Gd35  1  0.56004485  0.87279693  0.11980715  1
  N  N36  1  0.20310134  0.21556260  0.33332818  1
  N  N37  1  0.11380599  0.09302922  0.09369051  1
  N  N38  1  0.91697595  0.18908575  0.84228038  1
  N  N39  1  0.73411096  0.11058010  0.65575259  1
  N  N40  1  0.56992830  0.22254570  0.33209729  1
  N  N41  1  0.42075552  0.12668044  0.09746675  1
  N  N42  1  0.21109860  0.20987913  0.84777347  1
  N  N43  1  0.14391409  0.08081699  0.58257642  1
  N  N44  1  0.90337359  0.19605961  0.34846591  1
  N  N45  1  0.78399738  0.09091330  0.12674885  1
  N  N46  1  0.50173793  0.23790305  0.85344934  1
  N  N47  1  0.44113780  0.09067930  0.62561830  1
  N  N48  1  0.23641999  0.52717520  0.34820177  1
  N  N49  1  0.12245757  0.42389939  0.09172144  1
  N  N50  1  0.90179731  0.54753103  0.89588473  1
  N  N51  1  0.73499406  0.45138616  0.66077337  1
  N  N52  1  0.56794358  0.53380673  0.36790952  1
  N  N53  1  0.41481051  0.42640347  0.08779043  1
  N  N54  1  0.20741970  0.54400595  0.83365953  1
  N  N55  1  0.14982138  0.40326758  0.58926083  1
  N  N56  1  0.90302846  0.53300455  0.38533849  1
  N  N57  1  0.80630766  0.41993957  0.13671923  1
  N  N58  1  0.49720993  0.56526773  0.85411006  1
  N  N59  1  0.44138810  0.42725718  0.59705724  1
  N  N60  1  0.24076089  0.86908337  0.34759837  1
  N  N61  1  0.12064047  0.75687530  0.13864703  1
  N  N62  1  0.91018581  0.84298986  0.90476209  1
  N  N63  1  0.74790213  0.77772463  0.67613610  1
  N  N64  1  0.58356809  0.83606364  0.34780622  1
  N  N65  1  0.40234314  0.78349533  0.08063768  1
  N  N66  1  0.21073501  0.88189039  0.83411006  1
  N  N67  1  0.14127495  0.74655171  0.59375798  1
  N  N68  1  0.89349801  0.87269456  0.36940156  1
  N  N69  1  0.82018100  0.73811667  0.14205827  1
  N  N70  1  0.53990793  0.88195327  0.87452883  1
  N  N71  1  0.44389081  0.76601496  0.60535079  1
