# generated using pymatgen
data_Gd2Al7N9
_symmetry_space_group_name_H-M   'P 1'
_cell_length_a   10.01012402
_cell_length_b   9.86624397
_cell_length_c   10.44824308
_cell_angle_alpha   90.19055918
_cell_angle_beta   90.56888525
_cell_angle_gamma   60.67491560
_symmetry_Int_Tables_number   1
_chemical_formula_structural   Gd2Al7N9
_chemical_formula_sum   'Gd8 Al28 N36'
_cell_volume   899.61507473
_cell_formula_units_Z   4
loop_
 _symmetry_equiv_pos_site_id
 _symmetry_equiv_pos_as_xyz
  1  'x, y, z'
loop_
 _atom_site_type_symbol
 _atom_site_label
 _atom_site_symmetry_multiplicity
 _atom_site_fract_x
 _atom_site_fract_y
 _atom_site_fract_z
 _atom_site_occupancy
  Al  Al0  1  0.12642458  0.08654742  0.38890267  1
  Al  Al1  1  0.21332188  0.21436038  0.14176088  1
  Al  Al2  1  0.53550166  0.22201188  0.13949613  1
  Al  Al3  1  0.11409872  0.09397702  0.89271311  1
  Al  Al4  1  0.22887990  0.19905733  0.64928940  1
  Al  Al5  1  0.78597063  0.08796926  0.30636701  1
  Al  Al6  1  0.90956351  0.19804081  0.14122189  1
  Al  Al7  1  0.41853051  0.11669253  0.89654336  1
  Al  Al8  1  0.52700413  0.22051889  0.66268046  1
  Al  Al9  1  0.12556879  0.41923399  0.39357314  1
  Al  Al10  1  0.22015788  0.53009786  0.14759728  1
  Al  Al11  1  0.45489122  0.42715893  0.40274181  1
  Al  Al12  1  0.11824686  0.42548324  0.89455018  1
  Al  Al13  1  0.23190735  0.52654046  0.64188326  1
  Al  Al14  1  0.79419284  0.42765649  0.32340071  1
  Al  Al15  1  0.90905054  0.53391761  0.07817322  1
  Al  Al16  1  0.40795406  0.44329286  0.89549778  1
  Al  Al17  1  0.52253984  0.55477139  0.65619880  1
  Al  Al18  1  0.11910244  0.75864877  0.32520545  1
  Al  Al19  1  0.21785332  0.88268994  0.14575064  1
  Al  Al20  1  0.78675750  0.75817313  0.84269632  1
  Al  Al21  1  0.46174334  0.75144910  0.40685291  1
  Al  Al22  1  0.11492637  0.75820734  0.82023413  1
  Al  Al23  1  0.23084778  0.87648302  0.64069727  1
  Al  Al24  1  0.80120588  0.74238285  0.31307499  1
  Al  Al25  1  0.91874792  0.84885441  0.07853100  1
  Al  Al26  1  0.41229992  0.77585622  0.89292361  1
  Al  Al27  1  0.53837185  0.88055615  0.67229588  1
  Gd  Gd28  1  0.76597448  0.09560848  0.87217679  1
  Gd  Gd29  1  0.87878505  0.20991119  0.60542295  1
  Gd  Gd30  1  0.45262455  0.08801138  0.39795634  1
  Gd  Gd31  1  0.75821932  0.43519636  0.87042990  1
  Gd  Gd32  1  0.88279085  0.54030929  0.59917998  1
  Gd  Gd33  1  0.53779952  0.54612355  0.14185936  1
  Gd  Gd34  1  0.88086901  0.87540242  0.57684439  1
  Gd  Gd35  1  0.56227444  0.87319622  0.10873028  1
  N  N36  1  0.20379686  0.21503229  0.32270499  1
  N  N37  1  0.11333224  0.09475759  0.08275807  1
  N  N38  1  0.91698087  0.19074561  0.83102859  1
  N  N39  1  0.73661972  0.10791196  0.64530556  1
  N  N40  1  0.56902059  0.22254327  0.32089318  1
  N  N41  1  0.42154672  0.12681677  0.08522922  1
  N  N42  1  0.21164420  0.21043765  0.83668148  1
  N  N43  1  0.14444398  0.08055961  0.57073135  1
  N  N44  1  0.90322169  0.19585460  0.33689181  1
  N  N45  1  0.78446243  0.09001696  0.11583639  1
  N  N46  1  0.50474143  0.23640783  0.84221467  1
  N  N47  1  0.44216590  0.09005870  0.61561506  1
  N  N48  1  0.23444756  0.52881522  0.33549797  1
  N  N49  1  0.12191811  0.42203080  0.08160012  1
  N  N50  1  0.90005125  0.54797457  0.88847663  1
  N  N51  1  0.73328432  0.45225218  0.65234014  1
  N  N52  1  0.56716348  0.53384442  0.35856291  1
  N  N53  1  0.41797737  0.42414728  0.07679407  1
  N  N54  1  0.20935764  0.53699944  0.82806244  1
  N  N55  1  0.14908856  0.40281061  0.57763861  1
  N  N56  1  0.90206899  0.53326323  0.37537602  1
  N  N57  1  0.80494104  0.42052592  0.12786664  1
  N  N58  1  0.49388952  0.56729907  0.84211858  1
  N  N59  1  0.43951784  0.42780143  0.58608181  1
  N  N60  1  0.23882848  0.86933607  0.33452096  1
  N  N61  1  0.12055150  0.75705276  0.13843049  1
  N  N62  1  0.91599728  0.83961581  0.89414286  1
  N  N63  1  0.75023466  0.77744461  0.66606539  1
  N  N64  1  0.58249659  0.83635508  0.33577658  1
  N  N65  1  0.40524347  0.78267143  0.07004400  1
  N  N66  1  0.21369525  0.88751099  0.82772511  1
  N  N67  1  0.13375751  0.75005152  0.63190695  1
  N  N68  1  0.89495325  0.87200865  0.35782355  1
  N  N69  1  0.82321441  0.73723329  0.13297081  1
  N  N70  1  0.54236432  0.88158164  0.86406778  1
  N  N71  1  0.44274632  0.76658626  0.59371456  1
