# generated using pymatgen
data_Gd2Al7N9
_symmetry_space_group_name_H-M   'P 1'
_cell_length_a   9.90523777
_cell_length_b   9.83125556
_cell_length_c   10.74618379
_cell_angle_alpha   90.17861810
_cell_angle_beta   89.76736031
_cell_angle_gamma   60.30888997
_symmetry_Int_Tables_number   1
_chemical_formula_structural   Gd2Al7N9
_chemical_formula_sum   'Gd8 Al28 N36'
_cell_volume   909.05679161
_cell_formula_units_Z   4
loop_
 _symmetry_equiv_pos_site_id
 _symmetry_equiv_pos_as_xyz
  1  'x, y, z'
loop_
 _atom_site_type_symbol
 _atom_site_label
 _atom_site_symmetry_multiplicity
 _atom_site_fract_x
 _atom_site_fract_y
 _atom_site_fract_z
 _atom_site_occupancy
  Al  Al0  1  0.12605464  0.08406788  0.38781486  1
  Al  Al1  1  0.21904165  0.20633338  0.14547559  1
  Al  Al2  1  0.53957400  0.21892555  0.13829799  1
  Al  Al3  1  0.11312791  0.09801354  0.90002281  1
  Al  Al4  1  0.22621111  0.19553461  0.65684458  1
  Al  Al5  1  0.79411192  0.08834846  0.29693590  1
  Al  Al6  1  0.89802264  0.20384443  0.08272807  1
  Al  Al7  1  0.41518092  0.11690080  0.89775133  1
  Al  Al8  1  0.52384230  0.21977758  0.66159299  1
  Al  Al9  1  0.11772937  0.43222303  0.31705313  1
  Al  Al10  1  0.21101233  0.54119712  0.07067533  1
  Al  Al11  1  0.46604611  0.42094087  0.40271945  1
  Al  Al12  1  0.11516956  0.43540003  0.82750193  1
  Al  Al13  1  0.22877953  0.53353662  0.57364502  1
  Al  Al14  1  0.80482337  0.41677689  0.31122699  1
  Al  Al15  1  0.91516095  0.53109057  0.07557095  1
  Al  Al16  1  0.41702766  0.44098667  0.89260784  1
  Al  Al17  1  0.52581476  0.55172576  0.65299444  1
  Al  Al18  1  0.12510262  0.75543789  0.32159469  1
  Al  Al19  1  0.20966368  0.87742010  0.09214096  1
  Al  Al20  1  0.79053192  0.75571689  0.83964964  1
  Al  Al21  1  0.46557111  0.74724834  0.40923113  1
  Al  Al22  1  0.11801275  0.75539094  0.82392116  1
  Al  Al23  1  0.22956753  0.87067036  0.60355602  1
  Al  Al24  1  0.80081329  0.74508995  0.30672285  1
  Al  Al25  1  0.91118316  0.85449346  0.07488877  1
  Al  Al26  1  0.41424210  0.77463898  0.88656647  1
  Al  Al27  1  0.54157654  0.87910806  0.67214570  1
  Gd  Gd28  1  0.75909684  0.09667906  0.86373826  1
  Gd  Gd29  1  0.85991264  0.21792038  0.56880996  1
  Gd  Gd30  1  0.45636414  0.08776291  0.39955950  1
  Gd  Gd31  1  0.75486633  0.44928482  0.86124772  1
  Gd  Gd32  1  0.88649881  0.53798494  0.57780742  1
  Gd  Gd33  1  0.53666504  0.54453716  0.15178560  1
  Gd  Gd34  1  0.88648844  0.87199355  0.57359695  1
  Gd  Gd35  1  0.55947725  0.87186914  0.11138318  1
  N  N36  1  0.21123676  0.20649850  0.32438054  1
  N  N37  1  0.12004018  0.09381214  0.08682957  1
  N  N38  1  0.90013552  0.20393996  0.90438288  1
  N  N39  1  0.74204974  0.10409089  0.64986259  1
  N  N40  1  0.56960456  0.22310106  0.31512660  1
  N  N41  1  0.42336715  0.12699515  0.07869133  1
  N  N42  1  0.20947102  0.20620522  0.83794566  1
  N  N43  1  0.12996803  0.09077704  0.57521441  1
  N  N44  1  0.90143595  0.19569043  0.35093188  1
  N  N45  1  0.78309665  0.08691520  0.11467329  1
  N  N46  1  0.49527893  0.23879020  0.83400782  1
  N  N47  1  0.44029836  0.08944975  0.61200939  1
  N  N48  1  0.22554618  0.53738319  0.38666092  1
  N  N49  1  0.11909762  0.42962782  0.13677946  1
  N  N50  1  0.90906588  0.54728984  0.89538502  1
  N  N51  1  0.74423369  0.44688221  0.65295503  1
  N  N52  1  0.57580169  0.52880120  0.36221403  1
  N  N53  1  0.43228934  0.41733635  0.07024434  1
  N  N54  1  0.20170940  0.55237798  0.89307350  1
  N  N55  1  0.13826257  0.42070123  0.64724404  1
  N  N56  1  0.90332181  0.53259759  0.36399900  1
  N  N57  1  0.80365892  0.42169283  0.12749616  1
  N  N58  1  0.49080565  0.56905118  0.82856497  1
  N  N59  1  0.45122987  0.41888821  0.58053582  1
  N  N60  1  0.23885102  0.85793541  0.37316598  1
  N  N61  1  0.12115986  0.75513189  0.13841166  1
  N  N62  1  0.91035873  0.84366397  0.89495206  1
  N  N63  1  0.75869348  0.77018050  0.66544515  1
  N  N64  1  0.57949952  0.83678508  0.33192655  1
  N  N65  1  0.41551925  0.76981431  0.06115258  1
  N  N66  1  0.20225144  0.88855876  0.85465210  1
  N  N67  1  0.14068038  0.74174230  0.64273511  1
  N  N68  1  0.89456529  0.87268871  0.35672149  1
  N  N69  1  0.82083561  0.73900218  0.13064768  1
  N  N70  1  0.54230952  0.88077523  0.85845307  1
  N  N71  1  0.44978776  0.76392749  0.59348052  1
