# generated using pymatgen
data_Gd2Al7N9
_symmetry_space_group_name_H-M   'P 1'
_cell_length_a   10.11442747
_cell_length_b   9.88060357
_cell_length_c   10.20677122
_cell_angle_alpha   89.99452012
_cell_angle_beta   90.72102336
_cell_angle_gamma   60.84664722
_symmetry_Int_Tables_number   1
_chemical_formula_structural   Gd2Al7N9
_chemical_formula_sum   'Gd8 Al28 N36'
_cell_volume   890.71882282
_cell_formula_units_Z   4
loop_
 _symmetry_equiv_pos_site_id
 _symmetry_equiv_pos_as_xyz
  1  'x, y, z'
loop_
 _atom_site_type_symbol
 _atom_site_label
 _atom_site_symmetry_multiplicity
 _atom_site_fract_x
 _atom_site_fract_y
 _atom_site_fract_z
 _atom_site_occupancy
  Al  Al0  1  0.12703657  0.08591732  0.39949049  1
  Al  Al1  1  0.21380720  0.21272426  0.14954153  1
  Al  Al2  1  0.52933967  0.22552505  0.15180941  1
  Al  Al3  1  0.11457245  0.09065434  0.90191351  1
  Al  Al4  1  0.22734202  0.20114083  0.65823403  1
  Al  Al5  1  0.78075970  0.09774002  0.33083933  1
  Al  Al6  1  0.91195715  0.19588597  0.15426715  1
  Al  Al7  1  0.41724205  0.11742116  0.90318472  1
  Al  Al8  1  0.52624409  0.22192029  0.67042617  1
  Al  Al9  1  0.12664383  0.41982078  0.40211792  1
  Al  Al10  1  0.21679279  0.53882612  0.15423129  1
  Al  Al11  1  0.45348757  0.42897310  0.41320235  1
  Al  Al12  1  0.11375929  0.43134782  0.90145739  1
  Al  Al13  1  0.23032217  0.53493479  0.65040557  1
  Al  Al14  1  0.78923977  0.42704304  0.33939694  1
  Al  Al15  1  0.91510940  0.52892972  0.12101060  1
  Al  Al16  1  0.40994824  0.44242328  0.90310632  1
  Al  Al17  1  0.52705284  0.55166435  0.66590199  1
  Al  Al18  1  0.13837441  0.74954572  0.40104033  1
  Al  Al19  1  0.21641732  0.87782744  0.15384638  1
  Al  Al20  1  0.78365486  0.75885778  0.84047376  1
  Al  Al21  1  0.46126286  0.75060757  0.41589520  1
  Al  Al22  1  0.11132334  0.75862364  0.90029367  1
  Al  Al23  1  0.22945329  0.86979554  0.64883591  1
  Al  Al24  1  0.79439156  0.74428559  0.33285801  1
  Al  Al25  1  0.91591696  0.85916564  0.15486703  1
  Al  Al26  1  0.41228921  0.77416650  0.89954672  1
  Al  Al27  1  0.53219118  0.88246872  0.67580149  1
  Gd  Gd28  1  0.76632475  0.09269973  0.89124050  1
  Gd  Gd29  1  0.88213510  0.20690669  0.61818152  1
  Gd  Gd30  1  0.45041124  0.08819959  0.40541919  1
  Gd  Gd31  1  0.76612404  0.43411611  0.88467532  1
  Gd  Gd32  1  0.88589523  0.53770213  0.61446304  1
  Gd  Gd33  1  0.54018064  0.54442812  0.14472430  1
  Gd  Gd34  1  0.88456455  0.87449589  0.61097969  1
  Gd  Gd35  1  0.56499741  0.87107747  0.11363762  1
  N  N36  1  0.20273885  0.21539052  0.33371310  1
  N  N37  1  0.11368500  0.09288576  0.09550116  1
  N  N38  1  0.91630634  0.18818902  0.84712867  1
  N  N39  1  0.73065898  0.11435420  0.64440389  1
  N  N40  1  0.56660022  0.22504161  0.33514693  1
  N  N41  1  0.42151945  0.12510661  0.09806747  1
  N  N42  1  0.21034029  0.21108872  0.84906573  1
  N  N43  1  0.14655398  0.07771917  0.58377261  1
  N  N44  1  0.90230303  0.19815368  0.35394853  1
  N  N45  1  0.78671157  0.08989924  0.13448014  1
  N  N46  1  0.50637120  0.23504645  0.85381200  1
  N  N47  1  0.43706417  0.09421109  0.62578853  1
  N  N48  1  0.23288796  0.53386653  0.34258177  1
  N  N49  1  0.12044992  0.42424344  0.09284325  1
  N  N50  1  0.90404495  0.54740213  0.87316854  1
  N  N51  1  0.73481418  0.44939875  0.65658397  1
  N  N52  1  0.56547070  0.53439221  0.36724749  1
  N  N53  1  0.41469211  0.42629429  0.08870401  1
  N  N54  1  0.20910081  0.54618709  0.84041151  1
  N  N55  1  0.15002132  0.40627030  0.58835831  1
  N  N56  1  0.90515992  0.52938333  0.37509590  1
  N  N57  1  0.80635295  0.41757024  0.13908058  1
  N  N58  1  0.50265093  0.56266553  0.85708850  1
  N  N59  1  0.43791276  0.42998750  0.59913993  1
  N  N60  1  0.23641163  0.86698267  0.34267967  1
  N  N61  1  0.11815317  0.75916161  0.09707293  1
  N  N62  1  0.90792330  0.84719985  0.85198857  1
  N  N63  1  0.73750197  0.77903968  0.65662784  1
  N  N64  1  0.58065979  0.83599382  0.34704595  1
  N  N65  1  0.40504678  0.78394562  0.08162780  1
  N  N66  1  0.21001775  0.87928181  0.83871349  1
  N  N67  1  0.14862098  0.74283712  0.58500674  1
  N  N68  1  0.90329252  0.86989134  0.35722068  1
  N  N69  1  0.82222284  0.73875820  0.14622732  1
  N  N70  1  0.54117873  0.88090050  0.87024222  1
  N  N71  1  0.44006570  0.76562789  0.60535121  1
