# generated using pymatgen
data_Gd2Al7N9
_symmetry_space_group_name_H-M   'P 1'
_cell_length_a   9.92638380
_cell_length_b   9.82934657
_cell_length_c   10.33776491
_cell_angle_alpha   90.13781942
_cell_angle_beta   89.91290986
_cell_angle_gamma   60.58861418
_symmetry_Int_Tables_number   1
_chemical_formula_structural   Gd2Al7N9
_chemical_formula_sum   'Gd8 Al28 N36'
_cell_volume   878.64841406
_cell_formula_units_Z   4
loop_
 _symmetry_equiv_pos_site_id
 _symmetry_equiv_pos_as_xyz
  1  'x, y, z'
loop_
 _atom_site_type_symbol
 _atom_site_label
 _atom_site_symmetry_multiplicity
 _atom_site_fract_x
 _atom_site_fract_y
 _atom_site_fract_z
 _atom_site_occupancy
  Al  Al0  1  0.12164935  0.08953603  0.39797121  1
  Al  Al1  1  0.21235979  0.21464068  0.14717142  1
  Al  Al2  1  0.53481657  0.22263596  0.15658163  1
  Al  Al3  1  0.11482040  0.08983736  0.90807845  1
  Al  Al4  1  0.23199149  0.19840163  0.66355715  1
  Al  Al5  1  0.76641413  0.10415543  0.38303388  1
  Al  Al6  1  0.90015599  0.20277767  0.17542821  1
  Al  Al7  1  0.43087466  0.11009580  0.89444348  1
  Al  Al8  1  0.54079005  0.21671963  0.66017636  1
  Al  Al9  1  0.12133805  0.42285064  0.39801931  1
  Al  Al10  1  0.21730816  0.53902219  0.15199167  1
  Al  Al11  1  0.43957470  0.43364473  0.41492862  1
  Al  Al12  1  0.11502906  0.43021600  0.91090798  1
  Al  Al13  1  0.23438303  0.53295844  0.65264568  1
  Al  Al14  1  0.76997228  0.43549195  0.40660584  1
  Al  Al15  1  0.90554004  0.53206549  0.16741342  1
  Al  Al16  1  0.42379146  0.43787641  0.89831035  1
  Al  Al17  1  0.53901133  0.54699842  0.65077526  1
  Al  Al18  1  0.12600291  0.75338191  0.39985581  1
  Al  Al19  1  0.21274372  0.87725640  0.15232570  1
  Al  Al20  1  0.80056347  0.74881579  0.91563731  1
  Al  Al21  1  0.44404277  0.76107953  0.41885634  1
  Al  Al22  1  0.11435419  0.75699609  0.90634457  1
  Al  Al23  1  0.23342107  0.86762176  0.65179987  1
  Al  Al24  1  0.77159167  0.75860400  0.40081811  1
  Al  Al25  1  0.90200643  0.86204850  0.16969069  1
  Al  Al26  1  0.42536336  0.76662636  0.89507696  1
  Al  Al27  1  0.55178972  0.87135954  0.67114892  1
  Gd  Gd28  1  0.77140304  0.09080737  0.92262456  1
  Gd  Gd29  1  0.89412135  0.19737845  0.62786107  1
  Gd  Gd30  1  0.44105872  0.09577991  0.41841211  1
  Gd  Gd31  1  0.77265514  0.43286039  0.90784333  1
  Gd  Gd32  1  0.90243694  0.53806904  0.64004650  1
  Gd  Gd33  1  0.54296310  0.54283319  0.16312125  1
  Gd  Gd34  1  0.88948673  0.87482797  0.63428979  1
  Gd  Gd35  1  0.55380741  0.87652306  0.13008387  1
  N  N36  1  0.19978193  0.21691562  0.32957164  1
  N  N37  1  0.10737984  0.09430570  0.09845791  1
  N  N38  1  0.91190061  0.18848924  0.84585765  1
  N  N39  1  0.73057532  0.11556866  0.57071231  1
  N  N40  1  0.55129142  0.23270003  0.33628099  1
  N  N41  1  0.42290320  0.12900932  0.08571040  1
  N  N42  1  0.21264674  0.21039296  0.85127841  1
  N  N43  1  0.15447515  0.07512921  0.58064489  1
  N  N44  1  0.89548760  0.20431209  0.36530965  1
  N  N45  1  0.77843252  0.09362016  0.14278646  1
  N  N46  1  0.52874046  0.22701791  0.84221832  1
  N  N47  1  0.44597251  0.08890953  0.63820819  1
  N  N48  1  0.22677004  0.53776218  0.33969691  1
  N  N49  1  0.11075901  0.43027978  0.09823817  1
  N  N50  1  0.90771992  0.54425868  0.85654848  1
  N  N51  1  0.74776845  0.44615338  0.59427245  1
  N  N52  1  0.54753309  0.54453422  0.37773149  1
  N  N53  1  0.42254221  0.42386917  0.08238001  1
  N  N54  1  0.21438452  0.54274601  0.84223377  1
  N  N55  1  0.15802517  0.39969984  0.58114904  1
  N  N56  1  0.89644545  0.53740425  0.36102827  1
  N  N57  1  0.80275044  0.41639878  0.12832995  1
  N  N58  1  0.52018400  0.55481284  0.83880266  1
  N  N59  1  0.44130315  0.42763975  0.59897579  1
  N  N60  1  0.22783979  0.86991474  0.34100251  1
  N  N61  1  0.11066709  0.76167588  0.09929623  1
  N  N62  1  0.90497888  0.84883256  0.85381688  1
  N  N63  1  0.74176849  0.77870401  0.58245346  1
  N  N64  1  0.56298438  0.84590263  0.34702163  1
  N  N65  1  0.40698570  0.77595630  0.07478433  1
  N  N66  1  0.21324964  0.87741204  0.83965898  1
  N  N67  1  0.14836714  0.74213751  0.58309920  1
  N  N68  1  0.89516294  0.86545433  0.35858149  1
  N  N69  1  0.81418959  0.74193674  0.10188111  1
  N  N70  1  0.56340362  0.86641310  0.86393198  1
  N  N71  1  0.44435019  0.76563013  0.60650878  1
