# generated using pymatgen
data_Gd2Al7N9
_symmetry_space_group_name_H-M   'P 1'
_cell_length_a   10.08813636
_cell_length_b   9.88060382
_cell_length_c   10.21051676
_cell_angle_alpha   90.09192080
_cell_angle_beta   90.62017537
_cell_angle_gamma   60.85778790
_symmetry_Int_Tables_number   1
_chemical_formula_structural   Gd2Al7N9
_chemical_formula_sum   'Gd8 Al28 N36'
_cell_volume   888.85900115
_cell_formula_units_Z   4
loop_
 _symmetry_equiv_pos_site_id
 _symmetry_equiv_pos_as_xyz
  1  'x, y, z'
loop_
 _atom_site_type_symbol
 _atom_site_label
 _atom_site_symmetry_multiplicity
 _atom_site_fract_x
 _atom_site_fract_y
 _atom_site_fract_z
 _atom_site_occupancy
  Al  Al0  1  0.12745555  0.08581441  0.40113336  1
  Al  Al1  1  0.21474192  0.21183246  0.14915105  1
  Al  Al2  1  0.52906038  0.22542743  0.15532132  1
  Al  Al3  1  0.11360950  0.09082272  0.90459798  1
  Al  Al4  1  0.22613103  0.20245264  0.66062430  1
  Al  Al5  1  0.77700087  0.09939723  0.35067616  1
  Al  Al6  1  0.91056374  0.19439224  0.16123452  1
  Al  Al7  1  0.41922048  0.11748528  0.90101184  1
  Al  Al8  1  0.53043355  0.22077680  0.66568680  1
  Al  Al9  1  0.13049891  0.41777589  0.40327819  1
  Al  Al10  1  0.21622039  0.53864147  0.15378760  1
  Al  Al11  1  0.45165063  0.42994419  0.41556976  1
  Al  Al12  1  0.10943903  0.43429326  0.90359802  1
  Al  Al13  1  0.22957273  0.53507591  0.65271950  1
  Al  Al14  1  0.78461560  0.42447926  0.34481407  1
  Al  Al15  1  0.91929642  0.52336578  0.15914344  1
  Al  Al16  1  0.41269273  0.44068686  0.90259321  1
  Al  Al17  1  0.52769597  0.55132942  0.66746523  1
  Al  Al18  1  0.13843337  0.74911364  0.40261268  1
  Al  Al19  1  0.21643364  0.87785685  0.15513855  1
  Al  Al20  1  0.78329837  0.75922509  0.83705594  1
  Al  Al21  1  0.45933066  0.75156767  0.41748111  1
  Al  Al22  1  0.11046078  0.75892015  0.90231604  1
  Al  Al23  1  0.23004089  0.86941338  0.65036112  1
  Al  Al24  1  0.79116316  0.74965582  0.33763442  1
  Al  Al25  1  0.91566340  0.85915036  0.16230160  1
  Al  Al26  1  0.41302290  0.77382244  0.90076739  1
  Al  Al27  1  0.53120105  0.88307439  0.67600313  1
  Gd  Gd28  1  0.76700512  0.09228683  0.90757909  1
  Gd  Gd29  1  0.88472611  0.20551310  0.62335438  1
  Gd  Gd30  1  0.45108816  0.08797390  0.40970772  1
  Gd  Gd31  1  0.77033361  0.43704927  0.88878172  1
  Gd  Gd32  1  0.88453944  0.53938195  0.61446761  1
  Gd  Gd33  1  0.53922750  0.54443584  0.14645904  1
  Gd  Gd34  1  0.88729097  0.87495226  0.61449770  1
  Gd  Gd35  1  0.56697900  0.87065312  0.11396389  1
  N  N36  1  0.20415833  0.21439925  0.33390437  1
  N  N37  1  0.11229302  0.09281795  0.09777169  1
  N  N38  1  0.91299704  0.18758548  0.85068942  1
  N  N39  1  0.72611400  0.11806071  0.60299920  1
  N  N40  1  0.56219557  0.22797033  0.33637220  1
  N  N41  1  0.42264869  0.12519579  0.09582035  1
  N  N42  1  0.20955538  0.21207127  0.85150320  1
  N  N43  1  0.14804061  0.07710577  0.58493167  1
  N  N44  1  0.90262560  0.19780442  0.35862556  1
  N  N45  1  0.78593078  0.08884927  0.14075933  1
  N  N46  1  0.51401718  0.23202294  0.84979496  1
  N  N47  1  0.43559898  0.09520403  0.62986110  1
  N  N48  1  0.23268287  0.53418176  0.34265705  1
  N  N49  1  0.11563349  0.42571126  0.09510759  1
  N  N50  1  0.90733071  0.54684738  0.85137315  1
  N  N51  1  0.73541305  0.44824901  0.65692420  1
  N  N52  1  0.56340935  0.53538889  0.36960077  1
  N  N53  1  0.41510751  0.42465627  0.08790520  1
  N  N54  1  0.20994074  0.54570673  0.84308293  1
  N  N55  1  0.14964995  0.40631121  0.58800035  1
  N  N56  1  0.90710324  0.52742158  0.36530243  1
  N  N57  1  0.80515504  0.41577007  0.14390440  1
  N  N58  1  0.50555257  0.56196831  0.85880722  1
  N  N59  1  0.43638483  0.43161050  0.60131656  1
  N  N60  1  0.23615939  0.86684079  0.34394052  1
  N  N61  1  0.11716204  0.75976549  0.09865280  1
  N  N62  1  0.90537833  0.85110354  0.85194446  1
  N  N63  1  0.73581682  0.78301922  0.65209499  1
  N  N64  1  0.57866940  0.83681563  0.34867508  1
  N  N65  1  0.40572926  0.78420636  0.08269500  1
  N  N66  1  0.20967188  0.87952018  0.84033076  1
  N  N67  1  0.15038855  0.74177006  0.58602966  1
  N  N68  1  0.90458347  0.86832463  0.36126148  1
  N  N69  1  0.82320075  0.73729656  0.15042329  1
  N  N70  1  0.54336132  0.87913219  0.87015255  1
  N  N71  1  0.44024811  0.76527521  0.60690657  1
