# generated using pymatgen
data_Gd2Al7N9
_symmetry_space_group_name_H-M   'P 1'
_cell_length_a   9.96215468
_cell_length_b   9.83994251
_cell_length_c   10.33703912
_cell_angle_alpha   90.12327568
_cell_angle_beta   89.92203470
_cell_angle_gamma   60.26408511
_symmetry_Int_Tables_number   1
_chemical_formula_structural   Gd2Al7N9
_chemical_formula_sum   'Gd8 Al28 N36'
_cell_volume   879.87198451
_cell_formula_units_Z   4
loop_
 _symmetry_equiv_pos_site_id
 _symmetry_equiv_pos_as_xyz
  1  'x, y, z'
loop_
 _atom_site_type_symbol
 _atom_site_label
 _atom_site_symmetry_multiplicity
 _atom_site_fract_x
 _atom_site_fract_y
 _atom_site_fract_z
 _atom_site_occupancy
  Al  Al0  1  0.10691055  0.09543201  0.30045837  1
  Al  Al1  1  0.21807893  0.20958140  0.05502956  1
  Al  Al2  1  0.52634756  0.21777143  0.05770121  1
  Al  Al3  1  0.12796697  0.08520850  0.81787936  1
  Al  Al4  1  0.22465447  0.20511948  0.57129090  1
  Al  Al5  1  0.77109048  0.09957438  0.28594525  1
  Al  Al6  1  0.90339003  0.20188411  0.06925921  1
  Al  Al7  1  0.43176664  0.10645144  0.80039968  1
  Al  Al8  1  0.55527356  0.21553726  0.55965992  1
  Al  Al9  1  0.10575073  0.42945465  0.30115555  1
  Al  Al10  1  0.21640336  0.53638365  0.06117907  1
  Al  Al11  1  0.43704400  0.42836717  0.31686308  1
  Al  Al12  1  0.12571612  0.42633877  0.81696302  1
  Al  Al13  1  0.23428599  0.53419600  0.56360280  1
  Al  Al14  1  0.78061074  0.42958396  0.29090515  1
  Al  Al15  1  0.90606505  0.53512943  0.05950488  1
  Al  Al16  1  0.42662581  0.43829893  0.80319427  1
  Al  Al17  1  0.54866932  0.54104026  0.54969475  1
  Al  Al18  1  0.11238275  0.76184637  0.30238124  1
  Al  Al19  1  0.21450381  0.87690066  0.06102523  1
  Al  Al20  1  0.79073376  0.75593538  0.81299872  1
  Al  Al21  1  0.43899487  0.76203855  0.31995877  1
  Al  Al22  1  0.12578717  0.75177788  0.81720690  1
  Al  Al23  1  0.23329779  0.86708952  0.56389161  1
  Al  Al24  1  0.78168849  0.75583800  0.29418573  1
  Al  Al25  1  0.90175781  0.85913899  0.06258842  1
  Al  Al26  1  0.43193362  0.76353318  0.79699655  1
  Al  Al27  1  0.55539084  0.86897704  0.58483775  1
  Gd  Gd28  1  0.77114073  0.09520805  0.83858096  1
  Gd  Gd29  1  0.90180227  0.19699286  0.54170259  1
  Gd  Gd30  1  0.43493558  0.09737958  0.33318832  1
  Gd  Gd31  1  0.77620991  0.43279609  0.82024958  1
  Gd  Gd32  1  0.90254274  0.53376680  0.55105868  1
  Gd  Gd33  1  0.53770284  0.53904343  0.07403488  1
  Gd  Gd34  1  0.89699154  0.86992390  0.55556596  1
  Gd  Gd35  1  0.55075055  0.87289230  0.05274039  1
  N  N36  1  0.17396700  0.22803543  0.38637189  1
  N  N37  1  0.11858163  0.09242292  0.11708665  1
  N  N38  1  0.92664219  0.18831607  0.88475325  1
  N  N39  1  0.75582175  0.10968205  0.62185770  1
  N  N40  1  0.57229027  0.21824330  0.37357576  1
  N  N41  1  0.42334534  0.11603014  0.11529814  1
  N  N42  1  0.22413817  0.20516903  0.86884706  1
  N  N43  1  0.14555498  0.07579421  0.63426013  1
  N  N44  1  0.88479123  0.20500717  0.32008804  1
  N  N45  1  0.76418689  0.09850537  0.09605514  1
  N  N46  1  0.51147170  0.23129491  0.87261429  1
  N  N47  1  0.44507510  0.09899380  0.60431420  1
  N  N48  1  0.21327323  0.54197143  0.37287514  1
  N  N49  1  0.11482181  0.42354852  0.11540996  1
  N  N50  1  0.91289495  0.54637680  0.87135571  1
  N  N51  1  0.75486544  0.43769584  0.60187907  1
  N  N52  1  0.55129090  0.53807680  0.35458498  1
  N  N53  1  0.41590686  0.41596562  0.13599574  1
  N  N54  1  0.22424190  0.53997289  0.87572538  1
  N  N55  1  0.14773575  0.41329276  0.63421485  1
  N  N56  1  0.88931548  0.53926363  0.33478074  1
  N  N57  1  0.79860405  0.42355037  0.10290032  1
  N  N58  1  0.51962903  0.55669010  0.85734122  1
  N  N59  1  0.44507897  0.43026948  0.61280349  1
  N  N60  1  0.21158427  0.87939979  0.37518420  1
  N  N61  1  0.11562718  0.75862425  0.11653979  1
  N  N62  1  0.91387326  0.84125685  0.87391164  1
  N  N63  1  0.76305741  0.76868457  0.63301811  1
  N  N64  1  0.57655691  0.83929863  0.36957340  1
  N  N65  1  0.40784614  0.78274169  0.14050411  1
  N  N66  1  0.22762304  0.86994024  0.87416047  1
  N  N67  1  0.14606162  0.74468754  0.63125442  1
  N  N68  1  0.88681657  0.87679019  0.33419546  1
  N  N69  1  0.80180821  0.74791662  0.11174934  1
  N  N70  1  0.54984526  0.87663414  0.83213498  1
  N  N71  1  0.44524647  0.75725565  0.60936580  1
