# generated using pymatgen
data_Gd2Al7N9
_symmetry_space_group_name_H-M   'P 1'
_cell_length_a   9.90583471
_cell_length_b   9.83126283
_cell_length_c   10.74722827
_cell_angle_alpha   90.17909030
_cell_angle_beta   89.76774049
_cell_angle_gamma   60.31331922
_symmetry_Int_Tables_number   1
_chemical_formula_structural   Gd2Al7N9
_chemical_formula_sum   'Gd8 Al28 N36'
_cell_volume   909.24068065
_cell_formula_units_Z   4
loop_
 _symmetry_equiv_pos_site_id
 _symmetry_equiv_pos_as_xyz
  1  'x, y, z'
loop_
 _atom_site_type_symbol
 _atom_site_label
 _atom_site_symmetry_multiplicity
 _atom_site_fract_x
 _atom_site_fract_y
 _atom_site_fract_z
 _atom_site_occupancy
  Al  Al0  1  0.12567421  0.08473217  0.38778116  1
  Al  Al1  1  0.21898892  0.20628465  0.14549013  1
  Al  Al2  1  0.53953405  0.21893927  0.13826556  1
  Al  Al3  1  0.11274227  0.09871996  0.90027063  1
  Al  Al4  1  0.22620933  0.19549093  0.65682980  1
  Al  Al5  1  0.79410255  0.08835096  0.29691232  1
  Al  Al6  1  0.89810922  0.20386173  0.08282540  1
  Al  Al7  1  0.41516555  0.11691573  0.89779661  1
  Al  Al8  1  0.52383631  0.21977228  0.66160620  1
  Al  Al9  1  0.11772929  0.43227730  0.31704981  1
  Al  Al10  1  0.21100798  0.54122733  0.07072247  1
  Al  Al11  1  0.46602193  0.42094477  0.40274917  1
  Al  Al12  1  0.11514763  0.43543934  0.82749937  1
  Al  Al13  1  0.22879094  0.53362160  0.57377181  1
  Al  Al14  1  0.80486852  0.41677478  0.31117995  1
  Al  Al15  1  0.91518490  0.53106847  0.07559412  1
  Al  Al16  1  0.41696549  0.44098791  0.89261597  1
  Al  Al17  1  0.52576466  0.55180168  0.65306624  1
  Al  Al18  1  0.12515643  0.75558389  0.32148838  1
  Al  Al19  1  0.20886660  0.87712694  0.08618937  1
  Al  Al20  1  0.79055191  0.75567273  0.83963959  1
  Al  Al21  1  0.46655533  0.74675787  0.40937593  1
  Al  Al22  1  0.11809226  0.75550412  0.82404523  1
  Al  Al23  1  0.22974114  0.86967889  0.59670319  1
  Al  Al24  1  0.80090717  0.74506534  0.30672643  1
  Al  Al25  1  0.91123104  0.85445893  0.07495641  1
  Al  Al26  1  0.41481067  0.77431266  0.88676772  1
  Al  Al27  1  0.54152965  0.87912851  0.67214950  1
  Gd  Gd28  1  0.75907069  0.09667065  0.86378812  1
  Gd  Gd29  1  0.85985993  0.21795099  0.56890036  1
  Gd  Gd30  1  0.45639213  0.08780581  0.39959689  1
  Gd  Gd31  1  0.75476846  0.44938610  0.86129567  1
  Gd  Gd32  1  0.88650460  0.53795974  0.57783934  1
  Gd  Gd33  1  0.53673068  0.54437224  0.15180071  1
  Gd  Gd34  1  0.88651994  0.87198894  0.57370920  1
  Gd  Gd35  1  0.55950334  0.87191789  0.11149959  1
  N  N36  1  0.21131242  0.20650942  0.32442498  1
  N  N37  1  0.11993759  0.09412806  0.08712744  1
  N  N38  1  0.89992828  0.20412982  0.90436844  1
  N  N39  1  0.74200759  0.10405640  0.64988193  1
  N  N40  1  0.56959468  0.22314068  0.31512147  1
  N  N41  1  0.42330020  0.12705361  0.07867184  1
  N  N42  1  0.20951425  0.20612804  0.83785420  1
  N  N43  1  0.12976708  0.09115329  0.57533720  1
  N  N44  1  0.90138895  0.19572751  0.35095751  1
  N  N45  1  0.78308315  0.08693245  0.11468711  1
  N  N46  1  0.49526243  0.23878387  0.83399364  1
  N  N47  1  0.44028641  0.08947169  0.61198931  1
  N  N48  1  0.22551563  0.53747069  0.38670892  1
  N  N49  1  0.11910261  0.42966041  0.13683774  1
  N  N50  1  0.90907821  0.54725094  0.89539337  1
  N  N51  1  0.74420746  0.44689773  0.65299424  1
  N  N52  1  0.57585840  0.52875071  0.36223833  1
  N  N53  1  0.43223725  0.41731032  0.07017976  1
  N  N54  1  0.20166245  0.55236937  0.89307100  1
  N  N55  1  0.13825801  0.42078629  0.64727711  1
  N  N56  1  0.90332784  0.53259200  0.36403658  1
  N  N57  1  0.80368522  0.42170861  0.12753091  1
  N  N58  1  0.49072559  0.56908233  0.82850872  1
  N  N59  1  0.45122338  0.41892299  0.58054766  1
  N  N60  1  0.23831825  0.85768602  0.37722982  1
  N  N61  1  0.12147668  0.75536016  0.13851920  1
  N  N62  1  0.91023591  0.84364565  0.89495329  1
  N  N63  1  0.75870174  0.77018328  0.66545062  1
  N  N64  1  0.57954857  0.83680332  0.33198493  1
  N  N65  1  0.41635190  0.76940481  0.06159985  1
  N  N66  1  0.20145229  0.88780227  0.86046109  1
  N  N67  1  0.14102744  0.74223196  0.64293494  1
  N  N68  1  0.89459094  0.87271115  0.35676039  1
  N  N69  1  0.82092402  0.73895426  0.13070167  1
  N  N70  1  0.54217838  0.88081142  0.85836393  1
  N  N71  1  0.45017533  0.76380712  0.59355991  1
