# generated using pymatgen
data_Gd2Al7N9
_symmetry_space_group_name_H-M   'P 1'
_cell_length_a   10.03772809
_cell_length_b   9.84696260
_cell_length_c   10.49941104
_cell_angle_alpha   90.00177782
_cell_angle_beta   90.10158347
_cell_angle_gamma   60.22777918
_symmetry_Int_Tables_number   1
_chemical_formula_structural   Gd2Al7N9
_chemical_formula_sum   'Gd8 Al28 N36'
_cell_volume   900.79225174
_cell_formula_units_Z   4
loop_
 _symmetry_equiv_pos_site_id
 _symmetry_equiv_pos_as_xyz
  1  'x, y, z'
loop_
 _atom_site_type_symbol
 _atom_site_label
 _atom_site_symmetry_multiplicity
 _atom_site_fract_x
 _atom_site_fract_y
 _atom_site_fract_z
 _atom_site_occupancy
  Al  Al0  1  0.11397849  0.09316451  0.30351085  1
  Al  Al1  1  0.21122532  0.21274287  0.05903209  1
  Al  Al2  1  0.53962441  0.21564325  0.12054897  1
  Al  Al3  1  0.12059463  0.08940845  0.81126061  1
  Al  Al4  1  0.22083268  0.20448052  0.56473686  1
  Al  Al5  1  0.78931113  0.09303776  0.27836246  1
  Al  Al6  1  0.91282990  0.19560764  0.06223733  1
  Al  Al7  1  0.42186850  0.11326377  0.87737229  1
  Al  Al8  1  0.52573391  0.21980251  0.63336642  1
  Al  Al9  1  0.11397638  0.42707275  0.30498717  1
  Al  Al10  1  0.20723985  0.54247490  0.05685514  1
  Al  Al11  1  0.46281711  0.42767112  0.37589393  1
  Al  Al12  1  0.12224247  0.42673486  0.80836150  1
  Al  Al13  1  0.22794022  0.53719481  0.55553309  1
  Al  Al14  1  0.79289067  0.42534371  0.28654108  1
  Al  Al15  1  0.91919561  0.52962695  0.05657926  1
  Al  Al16  1  0.41389221  0.43429846  0.87419889  1
  Al  Al17  1  0.53190343  0.54417926  0.63703362  1
  Al  Al18  1  0.12019894  0.75811713  0.30211975  1
  Al  Al19  1  0.21169228  0.87766773  0.05660290  1
  Al  Al20  1  0.79601804  0.75444520  0.81809139  1
  Al  Al21  1  0.44595484  0.75757023  0.30384317  1
  Al  Al22  1  0.11905758  0.75571238  0.80820089  1
  Al  Al23  1  0.23384813  0.86867043  0.56176845  1
  Al  Al24  1  0.79882430  0.74823048  0.28519547  1
  Al  Al25  1  0.91215274  0.85662149  0.05567144  1
  Al  Al26  1  0.41711235  0.77158648  0.81558787  1
  Al  Al27  1  0.53940704  0.88631412  0.64845974  1
  Gd  Gd28  1  0.75970472  0.10100627  0.84595394  1
  Gd  Gd29  1  0.88108882  0.20746658  0.54980924  1
  Gd  Gd30  1  0.45561609  0.08540433  0.36117182  1
  Gd  Gd31  1  0.77576251  0.43437074  0.83867771  1
  Gd  Gd32  1  0.88485758  0.54103523  0.55714497  1
  Gd  Gd33  1  0.54891336  0.52842236  0.09590379  1
  Gd  Gd34  1  0.88521825  0.87513546  0.55730601  1
  Gd  Gd35  1  0.56677359  0.86105372  0.07484063  1
  N  N36  1  0.18968125  0.22063454  0.37737986  1
  N  N37  1  0.12027648  0.09033919  0.11977722  1
  N  N38  1  0.92371416  0.18515820  0.88039928  1
  N  N39  1  0.74246539  0.11211976  0.62498133  1
  N  N40  1  0.57082911  0.22338117  0.29841659  1
  N  N41  1  0.43025380  0.11727061  0.06908605  1
  N  N42  1  0.20657055  0.21346950  0.87376271  1
  N  N43  1  0.13366574  0.08249530  0.62832435  1
  N  N44  1  0.89246792  0.20291952  0.32848386  1
  N  N45  1  0.78177497  0.09080592  0.09121414  1
  N  N46  1  0.49692422  0.23463052  0.81039060  1
  N  N47  1  0.44133446  0.09129996  0.58006577  1
  N  N48  1  0.22034238  0.54089829  0.36635227  1
  N  N49  1  0.12155195  0.42114209  0.12137743  1
  N  N50  1  0.91464544  0.54626991  0.87064556  1
  N  N51  1  0.74563074  0.44316714  0.62476712  1
  N  N52  1  0.56669448  0.53310102  0.31877590  1
  N  N53  1  0.42095371  0.41242587  0.05473483  1
  N  N54  1  0.20182898  0.55115949  0.87237591  1
  N  N55  1  0.14082089  0.41588353  0.62638111  1
  N  N56  1  0.89691435  0.53592160  0.34082999  1
  N  N57  1  0.81372481  0.41667302  0.09726655  1
  N  N58  1  0.51058227  0.55112319  0.83210874  1
  N  N59  1  0.44789025  0.42648459  0.56082269  1
  N  N60  1  0.22794588  0.87160448  0.37182181  1
  N  N61  1  0.11842470  0.75893567  0.11710477  1
  N  N62  1  0.91085480  0.84758835  0.86940651  1
  N  N63  1  0.75315001  0.77467670  0.64268594  1
  N  N64  1  0.58433610  0.83699488  0.30681648  1
  N  N65  1  0.40621063  0.77768504  0.12061881  1
  N  N66  1  0.21368933  0.87604382  0.87280128  1
  N  N67  1  0.14106251  0.74715164  0.62446404  1
  N  N68  1  0.89339792  0.87549886  0.33676862  1
  N  N69  1  0.82533226  0.73808451  0.10668808  1
  N  N70  1  0.54133665  0.88279185  0.84184565  1
  N  N71  1  0.43572310  0.76864862  0.63009488  1
