# generated using pymatgen
data_Gd2Al7N9
_symmetry_space_group_name_H-M   'P 1'
_cell_length_a   10.11358812
_cell_length_b   9.87895801
_cell_length_c   10.20957590
_cell_angle_alpha   89.98192214
_cell_angle_beta   90.71879081
_cell_angle_gamma   60.84464937
_symmetry_Int_Tables_number   1
_chemical_formula_structural   Gd2Al7N9
_chemical_formula_sum   'Gd8 Al28 N36'
_cell_volume   890.72289316
_cell_formula_units_Z   4
loop_
 _symmetry_equiv_pos_site_id
 _symmetry_equiv_pos_as_xyz
  1  'x, y, z'
loop_
 _atom_site_type_symbol
 _atom_site_label
 _atom_site_symmetry_multiplicity
 _atom_site_fract_x
 _atom_site_fract_y
 _atom_site_fract_z
 _atom_site_occupancy
  Al  Al0  1  0.12700235  0.08596544  0.39944309  1
  Al  Al1  1  0.21359738  0.21301834  0.14974859  1
  Al  Al2  1  0.52939296  0.22552465  0.15180759  1
  Al  Al3  1  0.11454761  0.09063159  0.90195518  1
  Al  Al4  1  0.22749046  0.20098045  0.65815878  1
  Al  Al5  1  0.78081467  0.09778467  0.33069741  1
  Al  Al6  1  0.91191375  0.19622590  0.15423712  1
  Al  Al7  1  0.41732729  0.11731642  0.90333231  1
  Al  Al8  1  0.52626514  0.22187776  0.67043059  1
  Al  Al9  1  0.12606287  0.42011002  0.40212809  1
  Al  Al10  1  0.21674818  0.53873733  0.15440591  1
  Al  Al11  1  0.45355848  0.42896875  0.41314089  1
  Al  Al12  1  0.11498628  0.43064811  0.90155738  1
  Al  Al13  1  0.23043474  0.53493702  0.65029396  1
  Al  Al14  1  0.79000039  0.42759160  0.33877501  1
  Al  Al15  1  0.91385891  0.53058519  0.11117707  1
  Al  Al16  1  0.40987913  0.44243427  0.90319419  1
  Al  Al17  1  0.52696203  0.55175702  0.66576822  1
  Al  Al18  1  0.13830299  0.74960061  0.40102209  1
  Al  Al19  1  0.21637456  0.87785052  0.15386433  1
  Al  Al20  1  0.78333480  0.75907927  0.84116829  1
  Al  Al21  1  0.46138587  0.75056887  0.41585913  1
  Al  Al22  1  0.11134736  0.75866676  0.90034766  1
  Al  Al23  1  0.22942472  0.86982427  0.64884847  1
  Al  Al24  1  0.79499354  0.74303093  0.33245091  1
  Al  Al25  1  0.91591615  0.85914740  0.15509681  1
  Al  Al26  1  0.41223397  0.77422861  0.89966195  1
  Al  Al27  1  0.53233421  0.88231001  0.67595270  1
  Gd  Gd28  1  0.76647513  0.09238001  0.89120104  1
  Gd  Gd29  1  0.88201983  0.20690143  0.61783301  1
  Gd  Gd30  1  0.45044884  0.08818851  0.40537919  1
  Gd  Gd31  1  0.76515829  0.43358372  0.88416338  1
  Gd  Gd32  1  0.88609932  0.53739020  0.61400348  1
  Gd  Gd33  1  0.54028006  0.54440630  0.14499661  1
  Gd  Gd34  1  0.88442163  0.87425034  0.61080273  1
  Gd  Gd35  1  0.56482488  0.87116884  0.11400686  1
  N  N36  1  0.20269525  0.21548438  0.33385803  1
  N  N37  1  0.11367411  0.09296446  0.09545106  1
  N  N38  1  0.91637016  0.18795694  0.84688627  1
  N  N39  1  0.73072207  0.11417499  0.64444143  1
  N  N40  1  0.56662341  0.22502931  0.33512312  1
  N  N41  1  0.42147300  0.12516309  0.09810556  1
  N  N42  1  0.21036811  0.21103299  0.84890842  1
  N  N43  1  0.14646387  0.07776195  0.58376262  1
  N  N44  1  0.90230713  0.19833594  0.35376949  1
  N  N45  1  0.78667738  0.09001243  0.13440725  1
  N  N46  1  0.50638157  0.23505021  0.85379028  1
  N  N47  1  0.43726090  0.09401766  0.62576183  1
  N  N48  1  0.23284765  0.53387393  0.34270182  1
  N  N49  1  0.12108494  0.42400127  0.09274964  1
  N  N50  1  0.90329483  0.54804733  0.87969697  1
  N  N51  1  0.73491833  0.44939291  0.65713635  1
  N  N52  1  0.56564184  0.53435275  0.36729375  1
  N  N53  1  0.41475127  0.42634374  0.08869055  1
  N  N54  1  0.20900559  0.54622623  0.84019684  1
  N  N55  1  0.15012753  0.40622769  0.58871464  1
  N  N56  1  0.90455209  0.52973393  0.37837694  1
  N  N57  1  0.80654549  0.41807459  0.13871982  1
  N  N58  1  0.50228242  0.56280060  0.85694090  1
  N  N59  1  0.43802744  0.42995053  0.59907737  1
  N  N60  1  0.23642560  0.86700882  0.34267606  1
  N  N61  1  0.11811449  0.75916983  0.09703733  1
  N  N62  1  0.90804504  0.84694505  0.85180505  1
  N  N63  1  0.73790548  0.77824516  0.65769969  1
  N  N64  1  0.58083448  0.83595394  0.34707108  1
  N  N65  1  0.40501734  0.78389237  0.08163104  1
  N  N66  1  0.21003051  0.87929706  0.83870045  1
  N  N67  1  0.14851905  0.74293454  0.58502004  1
  N  N68  1  0.90337408  0.86980578  0.35713252  1
  N  N69  1  0.82229222  0.73861975  0.14625643  1
  N  N70  1  0.54108876  0.88102378  0.87041239  1
  N  N71  1  0.44010925  0.76565252  0.60534027  1
