# generated using pymatgen
data_Gd2Al7N9
_symmetry_space_group_name_H-M   'P 1'
_cell_length_a   9.90378002
_cell_length_b   9.83087965
_cell_length_c   10.74396284
_cell_angle_alpha   90.17998902
_cell_angle_beta   89.76960430
_cell_angle_gamma   60.29940281
_symmetry_Int_Tables_number   1
_chemical_formula_structural   Gd2Al7N9
_chemical_formula_sum   'Gd8 Al28 N36'
_cell_volume   908.61471467
_cell_formula_units_Z   4
loop_
 _symmetry_equiv_pos_site_id
 _symmetry_equiv_pos_as_xyz
  1  'x, y, z'
loop_
 _atom_site_type_symbol
 _atom_site_label
 _atom_site_symmetry_multiplicity
 _atom_site_fract_x
 _atom_site_fract_y
 _atom_site_fract_z
 _atom_site_occupancy
  Al  Al0  1  0.12666398  0.08306052  0.38790086  1
  Al  Al1  1  0.21909205  0.20637477  0.14538088  1
  Al  Al2  1  0.53965850  0.21889579  0.13834563  1
  Al  Al3  1  0.11388251  0.09675238  0.89966602  1
  Al  Al4  1  0.22618795  0.19557317  0.65674499  1
  Al  Al5  1  0.79411572  0.08835709  0.29696086  1
  Al  Al6  1  0.89799718  0.20371285  0.08256230  1
  Al  Al7  1  0.41520923  0.11688219  0.89766911  1
  Al  Al8  1  0.52385476  0.21979370  0.66155681  1
  Al  Al9  1  0.11773183  0.43212174  0.31703570  1
  Al  Al10  1  0.21098117  0.54124640  0.07063784  1
  Al  Al11  1  0.46609832  0.42092316  0.40267203  1
  Al  Al12  1  0.11521147  0.43530395  0.82748037  1
  Al  Al13  1  0.22874381  0.53346565  0.57347940  1
  Al  Al14  1  0.80473069  0.41678617  0.31128002  1
  Al  Al15  1  0.91511937  0.53112765  0.07553879  1
  Al  Al16  1  0.41713383  0.44098312  0.89260096  1
  Al  Al17  1  0.52582779  0.55170536  0.65277599  1
  Al  Al18  1  0.12483143  0.75502139  0.32160934  1
  Al  Al19  1  0.21146644  0.87789947  0.10439895  1
  Al  Al20  1  0.79050946  0.75577971  0.83964777  1
  Al  Al21  1  0.46401822  0.74806710  0.40898214  1
  Al  Al22  1  0.11777367  0.75500131  0.82361154  1
  Al  Al23  1  0.22914610  0.87275361  0.61767368  1
  Al  Al24  1  0.80064622  0.74513227  0.30669639  1
  Al  Al25  1  0.91121368  0.85451223  0.07481750  1
  Al  Al26  1  0.41334758  0.77517625  0.88631251  1
  Al  Al27  1  0.54162901  0.87903388  0.67202232  1
  Gd  Gd28  1  0.75908188  0.09670959  0.86367738  1
  Gd  Gd29  1  0.86006281  0.21782563  0.56866596  1
  Gd  Gd30  1  0.45632512  0.08769943  0.39950226  1
  Gd  Gd31  1  0.75503008  0.44908735  0.86116325  1
  Gd  Gd32  1  0.88648474  0.53802825  0.57775375  1
  Gd  Gd33  1  0.53647917  0.54492402  0.15168937  1
  Gd  Gd34  1  0.88649897  0.87198431  0.57343435  1
  Gd  Gd35  1  0.55935184  0.87177401  0.11115418  1
  N  N36  1  0.21111417  0.20647955  0.32427623  1
  N  N37  1  0.12037548  0.09298307  0.08611874  1
  N  N38  1  0.90058079  0.20349707  0.90432050  1
  N  N39  1  0.74213419  0.10415175  0.64985801  1
  N  N40  1  0.56961910  0.22303292  0.31513858  1
  N  N41  1  0.42349648  0.12689540  0.07870539  1
  N  N42  1  0.20941442  0.20626513  0.83804590  1
  N  N43  1  0.13045213  0.08977037  0.57488202  1
  N  N44  1  0.90151220  0.19563083  0.35087117  1
  N  N45  1  0.78311332  0.08689293  0.11463919  1
  N  N46  1  0.49528249  0.23881999  0.83402330  1
  N  N47  1  0.44033399  0.08942402  0.61203285  1
  N  N48  1  0.22559356  0.53726592  0.38659367  1
  N  N49  1  0.11910320  0.42955408  0.13666518  1
  N  N50  1  0.90904628  0.54734270  0.89535785  1
  N  N51  1  0.74426003  0.44687326  0.65289967  1
  N  N52  1  0.57568072  0.52890447  0.36214760  1
  N  N53  1  0.43239731  0.41737622  0.07034185  1
  N  N54  1  0.20179825  0.55238283  0.89307463  1
  N  N55  1  0.13827550  0.42053563  0.64718090  1
  N  N56  1  0.90330884  0.53260839  0.36392493  1
  N  N57  1  0.80361718  0.42164455  0.12740697  1
  N  N58  1  0.49085590  0.56909287  0.82862924  1
  N  N59  1  0.45124577  0.41881713  0.58050711  1
  N  N60  1  0.23978717  0.85856759  0.36443327  1
  N  N61  1  0.12061546  0.75469025  0.13814545  1
  N  N62  1  0.91063643  0.84369936  0.89493242  1
  N  N63  1  0.75866868  0.77017940  0.66544131  1
  N  N64  1  0.57942470  0.83676122  0.33181972  1
  N  N65  1  0.41366932  0.77073854  0.06028718  1
  N  N66  1  0.20389205  0.88986045  0.84364281  1
  N  N67  1  0.14009045  0.74095803  0.64234551  1
  N  N68  1  0.89452502  0.87265530  0.35667003  1
  N  N69  1  0.82064316  0.73910577  0.13053041  1
  N  N70  1  0.54248267  0.88071600  0.85856901  1
  N  N71  1  0.44869933  0.76432334  0.59319763  1
