# generated using pymatgen
data_Gd2Al7N9
_symmetry_space_group_name_H-M   'P 1'
_cell_length_a   9.92264781
_cell_length_b   9.83975551
_cell_length_c   10.68317976
_cell_angle_alpha   90.40493338
_cell_angle_beta   90.18209158
_cell_angle_gamma   60.40267334
_symmetry_Int_Tables_number   1
_chemical_formula_structural   Gd2Al7N9
_chemical_formula_sum   'Gd8 Al28 N36'
_cell_volume   906.94324516
_cell_formula_units_Z   4
loop_
 _symmetry_equiv_pos_site_id
 _symmetry_equiv_pos_as_xyz
  1  'x, y, z'
loop_
 _atom_site_type_symbol
 _atom_site_label
 _atom_site_symmetry_multiplicity
 _atom_site_fract_x
 _atom_site_fract_y
 _atom_site_fract_z
 _atom_site_occupancy
  Al  Al0  1  0.12764322  0.08419157  0.38770563  1
  Al  Al1  1  0.21857034  0.20828917  0.14331511  1
  Al  Al2  1  0.54066856  0.21942184  0.13844815  1
  Al  Al3  1  0.11844593  0.09046175  0.90183131  1
  Al  Al4  1  0.22458681  0.19939195  0.65168296  1
  Al  Al5  1  0.79516894  0.08866023  0.29761121  1
  Al  Al6  1  0.90188526  0.20092760  0.08254771  1
  Al  Al7  1  0.41666113  0.11664788  0.89606895  1
  Al  Al8  1  0.52485697  0.21986819  0.66097148  1
  Al  Al9  1  0.11979491  0.42861994  0.33035878  1
  Al  Al10  1  0.21178823  0.54444381  0.07382328  1
  Al  Al11  1  0.46859925  0.42103790  0.40124137  1
  Al  Al12  1  0.11123727  0.42919655  0.86197509  1
  Al  Al13  1  0.22937781  0.53125470  0.56964428  1
  Al  Al14  1  0.80358466  0.41665168  0.31124229  1
  Al  Al15  1  0.90879312  0.53369259  0.08043855  1
  Al  Al16  1  0.41666774  0.44091620  0.89281841  1
  Al  Al17  1  0.52446189  0.55232674  0.65156931  1
  Al  Al18  1  0.12139139  0.75239467  0.31945980  1
  Al  Al19  1  0.21944955  0.88120813  0.14680900  1
  Al  Al20  1  0.78810874  0.75707472  0.83986606  1
  Al  Al21  1  0.46276059  0.75088727  0.40628300  1
  Al  Al22  1  0.11695960  0.75165655  0.82125917  1
  Al  Al23  1  0.22910037  0.87521458  0.64312670  1
  Al  Al24  1  0.79972498  0.74711452  0.30676829  1
  Al  Al25  1  0.91407212  0.85383984  0.07478084  1
  Al  Al26  1  0.40951049  0.77657393  0.88978167  1
  Al  Al27  1  0.53950630  0.87896716  0.67115261  1
  Gd  Gd28  1  0.76014341  0.09552158  0.86490329  1
  Gd  Gd29  1  0.86555711  0.21451202  0.57190349  1
  Gd  Gd30  1  0.45740590  0.08879893  0.40000069  1
  Gd  Gd31  1  0.75352394  0.44586428  0.86142494  1
  Gd  Gd32  1  0.88186810  0.54016725  0.57754387  1
  Gd  Gd33  1  0.53628310  0.54786139  0.14872221  1
  Gd  Gd34  1  0.88602695  0.87137352  0.57533441  1
  Gd  Gd35  1  0.55848374  0.87365985  0.10834819  1
  N  N36  1  0.21190076  0.20749016  0.32315359  1
  N  N37  1  0.12348683  0.08922338  0.08713696  1
  N  N38  1  0.90526896  0.19954755  0.90251784  1
  N  N39  1  0.74273679  0.10469832  0.64969074  1
  N  N40  1  0.57221974  0.22210438  0.31589935  1
  N  N41  1  0.42417047  0.12787609  0.07861633  1
  N  N42  1  0.20830233  0.20779203  0.83796504  1
  N  N43  1  0.13617057  0.08120936  0.57238627  1
  N  N44  1  0.90225366  0.19643616  0.35228559  1
  N  N45  1  0.78477274  0.08652477  0.11424443  1
  N  N46  1  0.49687093  0.23890317  0.83448770  1
  N  N47  1  0.44094624  0.08863776  0.61331183  1
  N  N48  1  0.23007437  0.53845094  0.38153362  1
  N  N49  1  0.11853362  0.42633762  0.12162343  1
  N  N50  1  0.90056715  0.55059429  0.89848504  1
  N  N51  1  0.74233297  0.44545879  0.65289955  1
  N  N52  1  0.57486338  0.53142396  0.36033842  1
  N  N53  1  0.43219579  0.41824668  0.07165043  1
  N  N54  1  0.20207988  0.55181246  0.89302806  1
  N  N55  1  0.13774345  0.41225146  0.61606442  1
  N  N56  1  0.90294357  0.53366856  0.36097595  1
  N  N57  1  0.80257887  0.41977716  0.12715429  1
  N  N58  1  0.48919739  0.57058110  0.83018888  1
  N  N59  1  0.45149414  0.41851783  0.57959657  1
  N  N60  1  0.24151434  0.86508075  0.33196048  1
  N  N61  1  0.12020014  0.75517637  0.13865963  1
  N  N62  1  0.91233701  0.84226651  0.89340910  1
  N  N63  1  0.75532412  0.77251672  0.66600436  1
  N  N64  1  0.57978241  0.83843378  0.33226363  1
  N  N65  1  0.40533000  0.77753858  0.06282637  1
  N  N66  1  0.20775353  0.89130326  0.82524925  1
  N  N67  1  0.14005963  0.73792616  0.64009311  1
  N  N68  1  0.89567261  0.87285073  0.35802173  1
  N  N69  1  0.81918383  0.74201130  0.13066321  1
  N  N70  1  0.54067327  0.88143142  0.85991553  1
  N  N71  1  0.44360004  0.76525271  0.59054594  1
