# generated using pymatgen
data_Gd2Al7N9
_symmetry_space_group_name_H-M   'P 1'
_cell_length_a   9.93151224
_cell_length_b   9.84022620
_cell_length_c   10.68474536
_cell_angle_alpha   90.38948537
_cell_angle_beta   90.19010749
_cell_angle_gamma   60.38908175
_symmetry_Int_Tables_number   1
_chemical_formula_structural   Gd2Al7N9
_chemical_formula_sum   'Gd8 Al28 N36'
_cell_volume   907.80931550
_cell_formula_units_Z   4
loop_
 _symmetry_equiv_pos_site_id
 _symmetry_equiv_pos_as_xyz
  1  'x, y, z'
loop_
 _atom_site_type_symbol
 _atom_site_label
 _atom_site_symmetry_multiplicity
 _atom_site_fract_x
 _atom_site_fract_y
 _atom_site_fract_z
 _atom_site_occupancy
  Al  Al0  1  0.12752974  0.08400507  0.38722574  1
  Al  Al1  1  0.21695526  0.21127395  0.14329231  1
  Al  Al2  1  0.54057190  0.21929858  0.13845229  1
  Al  Al3  1  0.11865807  0.09102108  0.90122536  1
  Al  Al4  1  0.22389939  0.20109217  0.65008281  1
  Al  Al5  1  0.79524223  0.08860420  0.29753692  1
  Al  Al6  1  0.90237884  0.20063845  0.08248934  1
  Al  Al7  1  0.41639743  0.11687122  0.89547824  1
  Al  Al8  1  0.52548218  0.21947138  0.66098641  1
  Al  Al9  1  0.12273395  0.42241162  0.36735196  1
  Al  Al10  1  0.21265800  0.54545907  0.07336169  1
  Al  Al11  1  0.46907265  0.42102372  0.40122892  1
  Al  Al12  1  0.11213210  0.42515265  0.89226164  1
  Al  Al13  1  0.23118871  0.53278425  0.56914442  1
  Al  Al14  1  0.80392084  0.41646098  0.31121360  1
  Al  Al15  1  0.90552038  0.53492154  0.08049768  1
  Al  Al16  1  0.41632446  0.44129191  0.89223623  1
  Al  Al17  1  0.52439808  0.55248331  0.65187646  1
  Al  Al18  1  0.12149942  0.75217113  0.31902851  1
  Al  Al19  1  0.21951606  0.88142924  0.14656972  1
  Al  Al20  1  0.78764861  0.75759986  0.83961310  1
  Al  Al21  1  0.46283124  0.75087539  0.40624173  1
  Al  Al22  1  0.11684960  0.75152411  0.82112460  1
  Al  Al23  1  0.22920769  0.87543603  0.64312334  1
  Al  Al24  1  0.80039351  0.74678079  0.30690456  1
  Al  Al25  1  0.91403307  0.85382412  0.07465132  1
  Al  Al26  1  0.40931707  0.77670764  0.88974741  1
  Al  Al27  1  0.53894452  0.87960381  0.67140082  1
  Gd  Gd28  1  0.76032115  0.09571252  0.86500723  1
  Gd  Gd29  1  0.86593317  0.21437966  0.57179166  1
  Gd  Gd30  1  0.45778873  0.08836967  0.39991546  1
  Gd  Gd31  1  0.75306264  0.44570978  0.86154934  1
  Gd  Gd32  1  0.87851536  0.54203489  0.57920244  1
  Gd  Gd33  1  0.53615898  0.54786825  0.14888982  1
  Gd  Gd34  1  0.88604525  0.87159411  0.57517846  1
  Gd  Gd35  1  0.55846915  0.87365735  0.10801084  1
  N  N36  1  0.21096918  0.20947496  0.32205258  1
  N  N37  1  0.12385490  0.08928660  0.08711805  1
  N  N38  1  0.90569690  0.19936670  0.90266319  1
  N  N39  1  0.74302575  0.10478580  0.64958017  1
  N  N40  1  0.57243377  0.22187813  0.31611452  1
  N  N41  1  0.42432250  0.12760590  0.07894255  1
  N  N42  1  0.20712601  0.21059401  0.83561665  1
  N  N43  1  0.13642710  0.08102731  0.57187371  1
  N  N44  1  0.90238848  0.19632403  0.35220392  1
  N  N45  1  0.78486982  0.08651083  0.11429483  1
  N  N46  1  0.49726197  0.23879894  0.83447778  1
  N  N47  1  0.44103041  0.08881805  0.61333747  1
  N  N48  1  0.23204552  0.53969411  0.38070352  1
  N  N49  1  0.11913157  0.42055370  0.09314436  1
  N  N50  1  0.89673527  0.55269822  0.89696076  1
  N  N51  1  0.74182821  0.44507498  0.65298895  1
  N  N52  1  0.57523950  0.53133332  0.36049052  1
  N  N53  1  0.43224275  0.41827034  0.07169450  1
  N  N54  1  0.20256440  0.55266216  0.89108449  1
  N  N55  1  0.14005225  0.40677493  0.58803860  1
  N  N56  1  0.90315773  0.53346934  0.36120659  1
  N  N57  1  0.80215947  0.41968641  0.12759754  1
  N  N58  1  0.48923058  0.57086069  0.83014524  1
  N  N59  1  0.45192099  0.41858453  0.58004260  1
  N  N60  1  0.24163130  0.86524529  0.33167634  1
  N  N61  1  0.12004289  0.75519214  0.13859919  1
  N  N62  1  0.91210089  0.84247173  0.89343673  1
  N  N63  1  0.75449067  0.77408873  0.66588345  1
  N  N64  1  0.58013293  0.83824811  0.33233186  1
  N  N65  1  0.40533448  0.77745706  0.06281756  1
  N  N66  1  0.20770677  0.89161672  0.82498783  1
  N  N67  1  0.13990853  0.73808872  0.63994655  1
  N  N68  1  0.89593349  0.87273582  0.35803533  1
  N  N69  1  0.81954661  0.74189062  0.13128876  1
  N  N70  1  0.53997915  0.88205312  0.85985884  1
  N  N71  1  0.44368175  0.76527721  0.59048084  1
