# generated using pymatgen
data_Gd2Al7N9
_symmetry_space_group_name_H-M   'P 1'
_cell_length_a   9.96678006
_cell_length_b   9.84186081
_cell_length_c   10.33629762
_cell_angle_alpha   90.10456809
_cell_angle_beta   89.93255467
_cell_angle_gamma   60.26116194
_symmetry_Int_Tables_number   1
_chemical_formula_structural   Gd2Al7N9
_chemical_formula_sum   'Gd8 Al28 N36'
_cell_volume   880.36478236
_cell_formula_units_Z   4
loop_
 _symmetry_equiv_pos_site_id
 _symmetry_equiv_pos_as_xyz
  1  'x, y, z'
loop_
 _atom_site_type_symbol
 _atom_site_label
 _atom_site_symmetry_multiplicity
 _atom_site_fract_x
 _atom_site_fract_y
 _atom_site_fract_z
 _atom_site_occupancy
  Al  Al0  1  0.10698800  0.09537652  0.30048246  1
  Al  Al1  1  0.21803776  0.20956913  0.05526880  1
  Al  Al2  1  0.52631098  0.21769296  0.05798239  1
  Al  Al3  1  0.12779868  0.08532824  0.81782297  1
  Al  Al4  1  0.22444180  0.20531730  0.57119265  1
  Al  Al5  1  0.77117431  0.09951395  0.28594409  1
  Al  Al6  1  0.90341125  0.20191697  0.06929282  1
  Al  Al7  1  0.43077382  0.10806472  0.80117447  1
  Al  Al8  1  0.55540501  0.21573429  0.55966946  1
  Al  Al9  1  0.10602531  0.42920589  0.30122223  1
  Al  Al10  1  0.21639787  0.53636533  0.06122886  1
  Al  Al11  1  0.43707848  0.42819833  0.31695538  1
  Al  Al12  1  0.12562084  0.42645038  0.81687828  1
  Al  Al13  1  0.23425424  0.53426552  0.56348321  1
  Al  Al14  1  0.78071732  0.42968855  0.29087242  1
  Al  Al15  1  0.90635891  0.53487366  0.05950467  1
  Al  Al16  1  0.42649233  0.43837729  0.80317800  1
  Al  Al17  1  0.54870439  0.54123185  0.54948934  1
  Al  Al18  1  0.11251474  0.76177192  0.30233297  1
  Al  Al19  1  0.21419262  0.87683493  0.06089919  1
  Al  Al20  1  0.79216642  0.75528044  0.81347204  1
  Al  Al21  1  0.43941832  0.76198569  0.31896399  1
  Al  Al22  1  0.12563986  0.75183388  0.81700382  1
  Al  Al23  1  0.23340549  0.86714710  0.56360807  1
  Al  Al24  1  0.78170319  0.75570839  0.29314880  1
  Al  Al25  1  0.90193093  0.85914075  0.06262152  1
  Al  Al26  1  0.43085208  0.76298830  0.79752952  1
  Al  Al27  1  0.55436382  0.87048689  0.59431827  1
  Gd  Gd28  1  0.77106981  0.09532736  0.83864687  1
  Gd  Gd29  1  0.90179334  0.19706364  0.54170778  1
  Gd  Gd30  1  0.43556503  0.09649875  0.33364818  1
  Gd  Gd31  1  0.77614984  0.43289076  0.82024418  1
  Gd  Gd32  1  0.90229538  0.53400012  0.55076498  1
  Gd  Gd33  1  0.53793370  0.53846493  0.07413481  1
  Gd  Gd34  1  0.89679940  0.87002459  0.55519543  1
  Gd  Gd35  1  0.55064135  0.87265093  0.05288990  1
  N  N36  1  0.17401951  0.22781910  0.38643163  1
  N  N37  1  0.11853276  0.09235829  0.11703906  1
  N  N38  1  0.92655186  0.18840057  0.88464263  1
  N  N39  1  0.75589931  0.10962234  0.62188245  1
  N  N40  1  0.57255863  0.21807293  0.37367149  1
  N  N41  1  0.42335588  0.11580316  0.11513623  1
  N  N42  1  0.22372168  0.20546959  0.86902927  1
  N  N43  1  0.14567548  0.07578081  0.63422962  1
  N  N44  1  0.88485521  0.20498149  0.32008835  1
  N  N45  1  0.76417291  0.09859893  0.09600299  1
  N  N46  1  0.51144944  0.23155546  0.87286642  1
  N  N47  1  0.44474443  0.09979677  0.60515292  1
  N  N48  1  0.21338946  0.54188481  0.37286108  1
  N  N49  1  0.11497646  0.42342981  0.11544650  1
  N  N50  1  0.91317291  0.54600571  0.87134681  1
  N  N51  1  0.75485002  0.43777200  0.60184478  1
  N  N52  1  0.55123515  0.53803311  0.35452323  1
  N  N53  1  0.41580927  0.41584939  0.13608960  1
  N  N54  1  0.22416786  0.54002170  0.87563500  1
  N  N55  1  0.14755590  0.41346045  0.63410774  1
  N  N56  1  0.88967047  0.53912990  0.33455536  1
  N  N57  1  0.79877392  0.42351537  0.10282680  1
  N  N58  1  0.51963058  0.55640733  0.85746531  1
  N  N59  1  0.44506003  0.43042743  0.61280418  1
  N  N60  1  0.21189978  0.87925209  0.37496002  1
  N  N61  1  0.11559123  0.75854386  0.11649460  1
  N  N62  1  0.91410691  0.84144758  0.87390426  1
  N  N63  1  0.76380891  0.76838644  0.63359692  1
  N  N64  1  0.57682456  0.83904105  0.36401534  1
  N  N65  1  0.40755083  0.78215719  0.13941632  1
  N  N66  1  0.22708397  0.87008914  0.87408439  1
  N  N67  1  0.14596737  0.74484013  0.63102676  1
  N  N68  1  0.88701885  0.87662834  0.33384613  1
  N  N69  1  0.80225110  0.74766702  0.11069441  1
  N  N70  1  0.54915155  0.87705565  0.83011228  1
  N  N71  1  0.44515759  0.75725502  0.60985514  1
