# generated using pymatgen
data_Gd2Al7N9
_symmetry_space_group_name_H-M   'P 1'
_cell_length_a   9.90191010
_cell_length_b   9.83149313
_cell_length_c   10.73265614
_cell_angle_alpha   90.22736498
_cell_angle_beta   89.16874390
_cell_angle_gamma   60.18087697
_symmetry_Int_Tables_number   1
_chemical_formula_structural   Gd2Al7N9
_chemical_formula_sum   'Gd8 Al28 N36'
_cell_volume   906.32340027
_cell_formula_units_Z   4
loop_
 _symmetry_equiv_pos_site_id
 _symmetry_equiv_pos_as_xyz
  1  'x, y, z'
loop_
 _atom_site_type_symbol
 _atom_site_label
 _atom_site_symmetry_multiplicity
 _atom_site_fract_x
 _atom_site_fract_y
 _atom_site_fract_z
 _atom_site_occupancy
  Al  Al0  1  0.11741423  0.08868379  0.29441067  1
  Al  Al1  1  0.21310477  0.21348573  0.07063391  1
  Al  Al2  1  0.53864110  0.21948324  0.11716826  1
  Al  Al3  1  0.11204423  0.08645414  0.81537167  1
  Al  Al4  1  0.23551456  0.19757551  0.64488957  1
  Al  Al5  1  0.78635087  0.09289485  0.27707822  1
  Al  Al6  1  0.90562009  0.19906747  0.06305419  1
  Al  Al7  1  0.42787863  0.10953039  0.87441126  1
  Al  Al8  1  0.53360835  0.21862268  0.63886812  1
  Al  Al9  1  0.11585259  0.42766452  0.29534528  1
  Al  Al10  1  0.20999627  0.54414366  0.05245155  1
  Al  Al11  1  0.46171684  0.42429332  0.38086325  1
  Al  Al12  1  0.11410607  0.43783136  0.81550244  1
  Al  Al13  1  0.22970173  0.53393219  0.55772831  1
  Al  Al14  1  0.79871441  0.42084998  0.29112297  1
  Al  Al15  1  0.90956767  0.53421636  0.05659620  1
  Al  Al16  1  0.41878783  0.43977086  0.87162704  1
  Al  Al17  1  0.53235930  0.54732071  0.62893140  1
  Al  Al18  1  0.11976564  0.75966654  0.30285047  1
  Al  Al19  1  0.20397839  0.87839575  0.04739849  1
  Al  Al20  1  0.78726129  0.75616331  0.81868816  1
  Al  Al21  1  0.46734123  0.74872124  0.38864178  1
  Al  Al22  1  0.11768410  0.75404845  0.80606993  1
  Al  Al23  1  0.22979862  0.86978900  0.56188521  1
  Al  Al24  1  0.79660927  0.74930012  0.28843502  1
  Al  Al25  1  0.90877392  0.85597886  0.05632325  1
  Al  Al26  1  0.42085373  0.76888182  0.86992841  1
  Al  Al27  1  0.54290187  0.87504768  0.64917889  1
  Gd  Gd28  1  0.76503051  0.09647800  0.84412681  1
  Gd  Gd29  1  0.89056241  0.20193428  0.54565839  1
  Gd  Gd30  1  0.44568857  0.09615379  0.38171761  1
  Gd  Gd31  1  0.76345272  0.44031520  0.83614342  1
  Gd  Gd32  1  0.89455441  0.53352248  0.55532917  1
  Gd  Gd33  1  0.53850052  0.54109521  0.12734131  1
  Gd  Gd34  1  0.88825279  0.87057083  0.55373957  1
  Gd  Gd35  1  0.55534270  0.87374625  0.09791788  1
  N  N36  1  0.19913094  0.21681427  0.33352285  1
  N  N37  1  0.11994693  0.08631620  0.11224341  1
  N  N38  1  0.91551313  0.19508740  0.88722347  1
  N  N39  1  0.75240593  0.10668006  0.62686105  1
  N  N40  1  0.56304495  0.22724452  0.29316714  1
  N  N41  1  0.42898817  0.12484526  0.05384132  1
  N  N42  1  0.21085373  0.21040894  0.84784066  1
  N  N43  1  0.13550379  0.07650484  0.63629782  1
  N  N44  1  0.89286186  0.20041545  0.32750978  1
  N  N45  1  0.78191189  0.08826707  0.09325851  1
  N  N46  1  0.50228686  0.23680231  0.81137581  1
  N  N47  1  0.44547436  0.08835048  0.59632748  1
  N  N48  1  0.21939758  0.54147068  0.36860146  1
  N  N49  1  0.11701338  0.42840839  0.11289470  1
  N  N50  1  0.90503023  0.54937935  0.87650397  1
  N  N51  1  0.75360706  0.43651626  0.62503199  1
  N  N52  1  0.56827080  0.53434098  0.33762911  1
  N  N53  1  0.43024297  0.41687446  0.04872952  1
  N  N54  1  0.20278536  0.55313601  0.87483490  1
  N  N55  1  0.14207023  0.41841216  0.63671693  1
  N  N56  1  0.89741844  0.53714447  0.34166990  1
  N  N57  1  0.80529606  0.41948058  0.10560145  1
  N  N58  1  0.49793749  0.56476151  0.80687228  1
  N  N59  1  0.45164842  0.41892215  0.55924167  1
  N  N60  1  0.22154597  0.87422326  0.37291489  1
  N  N61  1  0.12021221  0.75762218  0.11995850  1
  N  N62  1  0.90725336  0.84336759  0.87454354  1
  N  N63  1  0.76074233  0.76658602  0.64372858  1
  N  N64  1  0.57418691  0.84300017  0.31406099  1
  N  N65  1  0.41799600  0.76842940  0.04476429  1
  N  N66  1  0.20009429  0.87932888  0.86758049  1
  N  N67  1  0.14308722  0.74399814  0.62585331  1
  N  N68  1  0.88899377  0.87719595  0.33718207  1
  N  N69  1  0.81733509  0.74155429  0.11195938  1
  N  N70  1  0.54158595  0.87833692  0.83501093  1
  N  N71  1  0.45271074  0.76063139  0.57041506  1
