# generated using pymatgen
data_Gd2Al7N9
_symmetry_space_group_name_H-M   'P 1'
_cell_length_a   10.03130277
_cell_length_b   9.86432156
_cell_length_c   10.30780223
_cell_angle_alpha   90.10645701
_cell_angle_beta   90.13682931
_cell_angle_gamma   60.28796734
_symmetry_Int_Tables_number   1
_chemical_formula_structural   Gd2Al7N9
_chemical_formula_sum   'Gd8 Al28 N36'
_cell_volume   885.87575081
_cell_formula_units_Z   4
loop_
 _symmetry_equiv_pos_site_id
 _symmetry_equiv_pos_as_xyz
  1  'x, y, z'
loop_
 _atom_site_type_symbol
 _atom_site_label
 _atom_site_symmetry_multiplicity
 _atom_site_fract_x
 _atom_site_fract_y
 _atom_site_fract_z
 _atom_site_occupancy
  Al  Al0  1  0.11031719  0.09496767  0.30137677  1
  Al  Al1  1  0.21953223  0.20954560  0.05811242  1
  Al  Al2  1  0.52975893  0.21621044  0.06946771  1
  Al  Al3  1  0.12405586  0.08747677  0.81709791  1
  Al  Al4  1  0.22122172  0.20598678  0.57023030  1
  Al  Al5  1  0.77602562  0.09744058  0.28607865  1
  Al  Al6  1  0.90682522  0.20326763  0.06905105  1
  Al  Al7  1  0.42397024  0.11249913  0.80901978  1
  Al  Al8  1  0.54979471  0.21684115  0.57540134  1
  Al  Al9  1  0.11005210  0.42732575  0.30199256  1
  Al  Al10  1  0.21684792  0.53732917  0.06074340  1
  Al  Al11  1  0.43957272  0.42696318  0.31707437  1
  Al  Al12  1  0.12567405  0.42612630  0.81583592  1
  Al  Al13  1  0.23221502  0.53604280  0.56090700  1
  Al  Al14  1  0.78439930  0.42957432  0.29154380  1
  Al  Al15  1  0.91109122  0.53153809  0.05766811  1
  Al  Al16  1  0.42222222  0.44177936  0.80376702  1
  Al  Al17  1  0.54704862  0.54401939  0.54877666  1
  Al  Al18  1  0.11525983  0.76090760  0.30282917  1
  Al  Al19  1  0.21165100  0.87710391  0.05901028  1
  Al  Al20  1  0.79721357  0.75203509  0.81845910  1
  Al  Al21  1  0.44031804  0.76066688  0.31109026  1
  Al  Al22  1  0.12260851  0.75353780  0.81393232  1
  Al  Al23  1  0.23291867  0.86823398  0.56222097  1
  Al  Al24  1  0.78964172  0.75149785  0.28601382  1
  Al  Al25  1  0.90648238  0.85644430  0.06075601  1
  Al  Al26  1  0.42351299  0.76213381  0.80340970  1
  Al  Al27  1  0.54944478  0.87299064  0.63400009  1
  Gd  Gd28  1  0.76807589  0.09753586  0.84451460  1
  Gd  Gd29  1  0.89661114  0.19799099  0.54355220  1
  Gd  Gd30  1  0.44348721  0.08964021  0.34332407  1
  Gd  Gd31  1  0.77274929  0.43526713  0.81994001  1
  Gd  Gd32  1  0.90015682  0.53571479  0.55269474  1
  Gd  Gd33  1  0.54193375  0.53540465  0.07460136  1
  Gd  Gd34  1  0.89050548  0.87225708  0.55702418  1
  Gd  Gd35  1  0.55229903  0.87132035  0.06581354  1
  N  N36  1  0.17861720  0.22595425  0.38501031  1
  N  N37  1  0.11968318  0.09203588  0.11678977  1
  N  N38  1  0.92418382  0.19154733  0.88334168  1
  N  N39  1  0.75259821  0.11052406  0.62615519  1
  N  N40  1  0.57627780  0.21556330  0.36779463  1
  N  N41  1  0.42272407  0.11750024  0.11909529  1
  N  N42  1  0.21981484  0.20690040  0.87091262  1
  N  N43  1  0.14180956  0.07775025  0.63272073  1
  N  N44  1  0.88881162  0.20381041  0.32122615  1
  N  N45  1  0.76686334  0.09775280  0.09572978  1
  N  N46  1  0.50956177  0.23308364  0.86703670  1
  N  N47  1  0.44103989  0.09842388  0.60911776  1
  N  N48  1  0.21656480  0.54078475  0.37116747  1
  N  N49  1  0.11726876  0.42315138  0.11546852  1
  N  N50  1  0.91519529  0.54241977  0.86904326  1
  N  N51  1  0.75272406  0.43951895  0.60110842  1
  N  N52  1  0.55227715  0.53880932  0.35423943  1
  N  N53  1  0.41561781  0.41890902  0.13485312  1
  N  N54  1  0.22102104  0.54247094  0.87424801  1
  N  N55  1  0.14711714  0.41386915  0.63232746  1
  N  N56  1  0.89429198  0.53798242  0.33593964  1
  N  N57  1  0.80251970  0.42317901  0.10332264  1
  N  N58  1  0.51739289  0.55596720  0.85844707  1
  N  N59  1  0.44150353  0.43460828  0.61239316  1
  N  N60  1  0.21715828  0.87760729  0.37298781  1
  N  N61  1  0.11569078  0.75881735  0.11623979  1
  N  N62  1  0.91442763  0.84274062  0.87169015  1
  N  N63  1  0.76070506  0.76862032  0.63813431  1
  N  N64  1  0.58113694  0.83486381  0.32277331  1
  N  N65  1  0.40400668  0.77790118  0.13155407  1
  N  N66  1  0.22058097  0.87242196  0.87212874  1
  N  N67  1  0.14198506  0.74742485  0.62716980  1
  N  N68  1  0.89100664  0.87449358  0.33417778  1
  N  N69  1  0.81047758  0.74347444  0.10358555  1
  N  N70  1  0.54289592  0.87877360  0.83179855  1
  N  N71  1  0.44311022  0.75901275  0.61367653  1
