# generated using pymatgen
data_Gd2Al7N9
_symmetry_space_group_name_H-M   'P 1'
_cell_length_a   10.01051562
_cell_length_b   9.86624283
_cell_length_c   10.44733013
_cell_angle_alpha   90.19000513
_cell_angle_beta   90.57185519
_cell_angle_gamma   60.67773164
_symmetry_Int_Tables_number   1
_chemical_formula_structural   Gd2Al7N9
_chemical_formula_sum   'Gd8 Al28 N36'
_cell_volume   899.59586193
_cell_formula_units_Z   4
loop_
 _symmetry_equiv_pos_site_id
 _symmetry_equiv_pos_as_xyz
  1  'x, y, z'
loop_
 _atom_site_type_symbol
 _atom_site_label
 _atom_site_symmetry_multiplicity
 _atom_site_fract_x
 _atom_site_fract_y
 _atom_site_fract_z
 _atom_site_occupancy
  Al  Al0  1  0.12626503  0.08669511  0.39885064  1
  Al  Al1  1  0.21315028  0.21451155  0.15170437  1
  Al  Al2  1  0.53531692  0.22217284  0.14943839  1
  Al  Al3  1  0.11394924  0.09409685  0.90264763  1
  Al  Al4  1  0.22871258  0.19920138  0.65923401  1
  Al  Al5  1  0.78580217  0.08811954  0.31630777  1
  Al  Al6  1  0.90941835  0.19817328  0.15116109  1
  Al  Al7  1  0.41836316  0.11683925  0.90649295  1
  Al  Al8  1  0.52682176  0.22067928  0.67261710  1
  Al  Al9  1  0.12540346  0.41938179  0.40352416  1
  Al  Al10  1  0.21999043  0.53026363  0.15755687  1
  Al  Al11  1  0.45473675  0.42731251  0.41267114  1
  Al  Al12  1  0.11810623  0.42562757  0.90448069  1
  Al  Al13  1  0.23174880  0.52669853  0.65180344  1
  Al  Al14  1  0.79404079  0.42780675  0.33333250  1
  Al  Al15  1  0.90891035  0.53406026  0.08810472  1
  Al  Al16  1  0.40779857  0.44343745  0.90544000  1
  Al  Al17  1  0.52240068  0.55490986  0.66615128  1
  Al  Al18  1  0.11893886  0.75879759  0.33519328  1
  Al  Al19  1  0.21769089  0.88282404  0.15571100  1
  Al  Al20  1  0.78659127  0.75832007  0.85264427  1
  Al  Al21  1  0.46159454  0.75158582  0.41678810  1
  Al  Al22  1  0.11475892  0.75835543  0.83016515  1
  Al  Al23  1  0.23068344  0.87662074  0.65062204  1
  Al  Al24  1  0.80104513  0.74252883  0.32301612  1
  Al  Al25  1  0.91858345  0.84900554  0.08847501  1
  Al  Al26  1  0.41214410  0.77598930  0.90287406  1
  Al  Al27  1  0.53819449  0.88070717  0.68223764  1
  Gd  Gd28  1  0.76580817  0.09575655  0.88211093  1
  Gd  Gd29  1  0.87860758  0.21005922  0.61532080  1
  Gd  Gd30  1  0.45246051  0.08815985  0.40788276  1
  Gd  Gd31  1  0.75811274  0.43529820  0.88036689  1
  Gd  Gd32  1  0.88264818  0.54045695  0.60915465  1
  Gd  Gd33  1  0.53768042  0.54624311  0.15174467  1
  Gd  Gd34  1  0.88067205  0.87556937  0.58680142  1
  Gd  Gd35  1  0.56210477  0.87334341  0.11867418  1
  N  N36  1  0.20362668  0.21518626  0.33265923  1
  N  N37  1  0.11317514  0.09488951  0.09270738  1
  N  N38  1  0.91684145  0.19085564  0.84095244  1
  N  N39  1  0.73641955  0.10808773  0.65522402  1
  N  N40  1  0.56886782  0.22269061  0.33084216  1
  N  N41  1  0.42137090  0.12696196  0.09519625  1
  N  N42  1  0.21148675  0.21057655  0.84663635  1
  N  N43  1  0.14426489  0.08070997  0.58068981  1
  N  N44  1  0.90305944  0.19600297  0.34684155  1
  N  N45  1  0.78429930  0.09016600  0.12577029  1
  N  N46  1  0.50457738  0.23655429  0.85217058  1
  N  N47  1  0.44198316  0.09021271  0.62555729  1
  N  N48  1  0.23428558  0.52896424  0.34546558  1
  N  N49  1  0.12176095  0.42218584  0.09154529  1
  N  N50  1  0.89992167  0.54810602  0.89837755  1
  N  N51  1  0.73313245  0.45239150  0.66225692  1
  N  N52  1  0.56700796  0.53399347  0.36847125  1
  N  N53  1  0.41779031  0.42430888  0.08675277  1
  N  N54  1  0.20921298  0.53715512  0.83799970  1
  N  N55  1  0.14892818  0.40295647  0.58759674  1
  N  N56  1  0.90191538  0.53341137  0.38531958  1
  N  N57  1  0.80481712  0.42065158  0.13778513  1
  N  N58  1  0.49378627  0.56741489  0.85209974  1
  N  N59  1  0.43935364  0.42796503  0.59602783  1
  N  N60  1  0.23866692  0.86948663  0.34448959  1
  N  N61  1  0.12037037  0.75720836  0.14839252  1
  N  N62  1  0.91583727  0.83976808  0.90406265  1
  N  N63  1  0.75003930  0.77760086  0.67600071  1
  N  N64  1  0.58235113  0.83649944  0.34573247  1
  N  N65  1  0.40506924  0.78281754  0.08001059  1
  N  N66  1  0.21354975  0.88762836  0.83766592  1
  N  N67  1  0.13357557  0.75020504  0.64181125  1
  N  N68  1  0.89478558  0.87215850  0.36776720  1
  N  N69  1  0.82303789  0.73738164  0.14288680  1
  N  N70  1  0.54219570  0.88172839  0.87402224  1
  N  N71  1  0.44257749  0.76672515  0.60366449  1
