# generated using pymatgen
data_Gd2Al7N9
_symmetry_space_group_name_H-M   'P 1'
_cell_length_a   10.03697867
_cell_length_b   9.87029846
_cell_length_c   10.31474593
_cell_angle_alpha   90.13252474
_cell_angle_beta   90.14953299
_cell_angle_gamma   60.29978942
_symmetry_Int_Tables_number   1
_chemical_formula_structural   Gd2Al7N9
_chemical_formula_sum   'Gd8 Al28 N36'
_cell_volume   887.61516572
_cell_formula_units_Z   4
loop_
 _symmetry_equiv_pos_site_id
 _symmetry_equiv_pos_as_xyz
  1  'x, y, z'
loop_
 _atom_site_type_symbol
 _atom_site_label
 _atom_site_symmetry_multiplicity
 _atom_site_fract_x
 _atom_site_fract_y
 _atom_site_fract_z
 _atom_site_occupancy
  Al  Al0  1  0.11079356  0.09501357  0.30145986  1
  Al  Al1  1  0.21951469  0.20977192  0.05814873  1
  Al  Al2  1  0.53533288  0.21341972  0.09062204  1
  Al  Al3  1  0.12369597  0.08749220  0.81708301  1
  Al  Al4  1  0.22041904  0.20606576  0.56982122  1
  Al  Al5  1  0.77903617  0.09591066  0.28557701  1
  Al  Al6  1  0.90756484  0.20348922  0.06863898  1
  Al  Al7  1  0.42242646  0.11112954  0.80922768  1
  Al  Al8  1  0.54549878  0.21706100  0.59881324  1
  Al  Al9  1  0.11008662  0.42721679  0.30189488  1
  Al  Al10  1  0.21631603  0.53771503  0.06017784  1
  Al  Al11  1  0.43942788  0.42799579  0.31677074  1
  Al  Al12  1  0.12601299  0.42593397  0.81567125  1
  Al  Al13  1  0.23184431  0.53639644  0.56022047  1
  Al  Al14  1  0.78446636  0.42936196  0.29153960  1
  Al  Al15  1  0.91112211  0.53145998  0.05759437  1
  Al  Al16  1  0.42037446  0.44473333  0.80306760  1
  Al  Al17  1  0.54717201  0.54416519  0.54823116  1
  Al  Al18  1  0.11544398  0.76075059  0.30273935  1
  Al  Al19  1  0.21164398  0.87713320  0.05900025  1
  Al  Al20  1  0.79740143  0.75183230  0.81835400  1
  Al  Al21  1  0.44039013  0.76079768  0.31098275  1
  Al  Al22  1  0.12219266  0.75389653  0.81377374  1
  Al  Al23  1  0.23287152  0.86820171  0.56216354  1
  Al  Al24  1  0.78978425  0.75136118  0.28589864  1
  Al  Al25  1  0.90709658  0.85556399  0.06036260  1
  Al  Al26  1  0.42333947  0.76232294  0.80340438  1
  Al  Al27  1  0.54956012  0.87211134  0.63398775  1
  Gd  Gd28  1  0.76717664  0.09785574  0.84653772  1
  Gd  Gd29  1  0.89632838  0.19816313  0.54367251  1
  Gd  Gd30  1  0.44512081  0.08913139  0.34677167  1
  Gd  Gd31  1  0.77266107  0.43530857  0.81972861  1
  Gd  Gd32  1  0.90018232  0.53573110  0.55260077  1
  Gd  Gd33  1  0.54202934  0.53583775  0.07420623  1
  Gd  Gd34  1  0.89022518  0.87245161  0.55691881  1
  Gd  Gd35  1  0.55220847  0.87145799  0.06618955  1
  N  N36  1  0.17870804  0.22623146  0.38484554  1
  N  N37  1  0.11980540  0.09201759  0.11680089  1
  N  N38  1  0.92397831  0.19185977  0.88314666  1
  N  N39  1  0.75306631  0.11028451  0.62545974  1
  N  N40  1  0.57685090  0.21456223  0.35018144  1
  N  N41  1  0.42224994  0.11738496  0.11870426  1
  N  N42  1  0.21924507  0.20696197  0.87127139  1
  N  N43  1  0.14160182  0.07772066  0.63275937  1
  N  N44  1  0.88974948  0.20357055  0.32154501  1
  N  N45  1  0.76884440  0.09661096  0.09489874  1
  N  N46  1  0.50962633  0.23318584  0.84747727  1
  N  N47  1  0.43983972  0.09651963  0.60787941  1
  N  N48  1  0.21655913  0.54078957  0.37082066  1
  N  N49  1  0.11717942  0.42325995  0.11539323  1
  N  N50  1  0.91526048  0.54230307  0.86897122  1
  N  N51  1  0.75265300  0.43975897  0.60109602  1
  N  N52  1  0.55242088  0.53909858  0.35424578  1
  N  N53  1  0.41396536  0.42170048  0.13356397  1
  N  N54  1  0.22035036  0.54308037  0.87422799  1
  N  N55  1  0.14739736  0.41367362  0.63216420  1
  N  N56  1  0.89427876  0.53799770  0.33593288  1
  N  N57  1  0.80265689  0.42296615  0.10336187  1
  N  N58  1  0.51729447  0.55638222  0.85834059  1
  N  N59  1  0.44058944  0.43675649  0.61073325  1
  N  N60  1  0.21736357  0.87750654  0.37295243  1
  N  N61  1  0.11560782  0.75898362  0.11615904  1
  N  N62  1  0.91425922  0.84268792  0.87150754  1
  N  N63  1  0.76059570  0.76864810  0.63817269  1
  N  N64  1  0.58143555  0.83463104  0.32239854  1
  N  N65  1  0.40391549  0.77797715  0.13146034  1
  N  N66  1  0.22043502  0.87250114  0.87210884  1
  N  N67  1  0.14176583  0.74755112  0.62709271  1
  N  N68  1  0.89171662  0.87393215  0.33412417  1
  N  N69  1  0.81054001  0.74344049  0.10348481  1
  N  N70  1  0.54260245  0.87862798  0.83186988  1
  N  N71  1  0.44298619  0.75888005  0.61373146  1
