# generated using pymatgen
data_Gd2Al7N9
_symmetry_space_group_name_H-M   'P 1'
_cell_length_a   10.01932928
_cell_length_b   9.84413564
_cell_length_c   10.51324166
_cell_angle_alpha   90.02809564
_cell_angle_beta   89.98132145
_cell_angle_gamma   60.26401978
_symmetry_Int_Tables_number   1
_chemical_formula_structural   Gd2Al7N9
_chemical_formula_sum   'Gd8 Al28 N36'
_cell_volume   900.39411779
_cell_formula_units_Z   4
loop_
 _symmetry_equiv_pos_site_id
 _symmetry_equiv_pos_as_xyz
  1  'x, y, z'
loop_
 _atom_site_type_symbol
 _atom_site_label
 _atom_site_symmetry_multiplicity
 _atom_site_fract_x
 _atom_site_fract_y
 _atom_site_fract_z
 _atom_site_occupancy
  Al  Al0  1  0.11611578  0.09109799  0.30335498  1
  Al  Al1  1  0.21163432  0.21260815  0.05799889  1
  Al  Al2  1  0.53960462  0.21736314  0.11962378  1
  Al  Al3  1  0.11795227  0.09128506  0.80880969  1
  Al  Al4  1  0.22097601  0.20458081  0.56475390  1
  Al  Al5  1  0.78985869  0.09271646  0.27789900  1
  Al  Al6  1  0.91248809  0.19571091  0.06211294  1
  Al  Al7  1  0.42253676  0.11226835  0.87668726  1
  Al  Al8  1  0.52507539  0.22002523  0.63441619  1
  Al  Al9  1  0.11467539  0.42684357  0.30445972  1
  Al  Al10  1  0.20838267  0.54201363  0.05574842  1
  Al  Al11  1  0.46140317  0.42640891  0.37861646  1
  Al  Al12  1  0.12207443  0.42649503  0.80857737  1
  Al  Al13  1  0.22774484  0.53658404  0.55583376  1
  Al  Al14  1  0.79677458  0.42308827  0.28747730  1
  Al  Al15  1  0.91892454  0.52949859  0.05533997  1
  Al  Al16  1  0.41468673  0.43616009  0.87337302  1
  Al  Al17  1  0.52912500  0.54855410  0.63765563  1
  Al  Al18  1  0.12164959  0.75800181  0.30230825  1
  Al  Al19  1  0.20640095  0.88050887  0.04870317  1
  Al  Al20  1  0.79301828  0.75562660  0.81758230  1
  Al  Al21  1  0.46099639  0.75008310  0.36969430  1
  Al  Al22  1  0.11735756  0.75556619  0.80560247  1
  Al  Al23  1  0.23050368  0.87001017  0.56450361  1
  Al  Al24  1  0.80050978  0.74652245  0.28587393  1
  Al  Al25  1  0.91313136  0.85590172  0.05518867  1
  Al  Al26  1  0.41964618  0.76901976  0.86427941  1
  Al  Al27  1  0.53689642  0.88326292  0.64914881  1
  Gd  Gd28  1  0.75977341  0.10073368  0.84561643  1
  Gd  Gd29  1  0.87961534  0.20833220  0.54974256  1
  Gd  Gd30  1  0.45594944  0.08692407  0.36271901  1
  Gd  Gd31  1  0.77139239  0.43673024  0.83958301  1
  Gd  Gd32  1  0.88527514  0.54041601  0.55901281  1
  Gd  Gd33  1  0.54566242  0.53350729  0.10858446  1
  Gd  Gd34  1  0.88385918  0.87540089  0.55700376  1
  Gd  Gd35  1  0.56749067  0.86409322  0.08144304  1
  N  N36  1  0.19108575  0.22029082  0.37645388  1
  N  N37  1  0.12249666  0.08792892  0.11965433  1
  N  N38  1  0.92156406  0.18804437  0.88120780  1
  N  N39  1  0.74209908  0.11201819  0.62541112  1
  N  N40  1  0.57069693  0.22490948  0.29765499  1
  N  N41  1  0.42969280  0.11948706  0.06887389  1
  N  N42  1  0.20653858  0.21278040  0.87327801  1
  N  N43  1  0.13232446  0.08395732  0.62671942  1
  N  N44  1  0.89361471  0.20211015  0.32816691  1
  N  N45  1  0.78270786  0.08968720  0.09161317  1
  N  N46  1  0.49681202  0.23522642  0.81117236  1
  N  N47  1  0.44149584  0.09071619  0.58015861  1
  N  N48  1  0.22079180  0.54037743  0.36603571  1
  N  N49  1  0.12143482  0.42112349  0.12084102  1
  N  N50  1  0.91328758  0.54658880  0.87016362  1
  N  N51  1  0.74577576  0.44269678  0.62557517  1
  N  N52  1  0.56513363  0.53536809  0.32568763  1
  N  N53  1  0.42332186  0.41424855  0.05374141  1
  N  N54  1  0.20158760  0.55135770  0.87224199  1
  N  N55  1  0.14114782  0.41526317  0.62672666  1
  N  N56  1  0.89740200  0.53555341  0.34190704  1
  N  N57  1  0.81177598  0.41720124  0.09885435  1
  N  N58  1  0.50667191  0.55454829  0.82296595  1
  N  N59  1  0.44750379  0.42568263  0.56134964  1
  N  N60  1  0.22819272  0.87094071  0.37074736  1
  N  N61  1  0.12137149  0.75858365  0.11758851  1
  N  N62  1  0.90930126  0.84705526  0.86986340  1
  N  N63  1  0.75256483  0.77460838  0.64198348  1
  N  N64  1  0.58126764  0.83477913  0.30707650  1
  N  N65  1  0.41592344  0.77107745  0.04793775  1
  N  N66  1  0.20249486  0.88117536  0.86341040  1
  N  N67  1  0.13959326  0.74641653  0.62280779  1
  N  N68  1  0.89279147  0.87543854  0.33648562  1
  N  N69  1  0.82699389  0.73691061  0.10767277  1
  N  N70  1  0.54215811  0.88282491  0.83932276  1
  N  N71  1  0.44452255  0.76413662  0.59191823  1
