# generated using pymatgen
data_Gd2Al7N9
_symmetry_space_group_name_H-M   'P 1'
_cell_length_a   10.01013946
_cell_length_b   9.86624403
_cell_length_c   10.44821299
_cell_angle_alpha   90.19060105
_cell_angle_beta   90.56900824
_cell_angle_gamma   60.67496521
_symmetry_Int_Tables_number   1
_chemical_formula_structural   Gd2Al7N9
_chemical_formula_sum   'Gd8 Al28 N36'
_cell_volume   899.61429480
_cell_formula_units_Z   4
loop_
 _symmetry_equiv_pos_site_id
 _symmetry_equiv_pos_as_xyz
  1  'x, y, z'
loop_
 _atom_site_type_symbol
 _atom_site_label
 _atom_site_symmetry_multiplicity
 _atom_site_fract_x
 _atom_site_fract_y
 _atom_site_fract_z
 _atom_site_occupancy
  Al  Al0  1  0.12634021  0.08662422  0.39413387  1
  Al  Al1  1  0.21323664  0.21443669  0.14699150  1
  Al  Al2  1  0.53541613  0.22208949  0.14472761  1
  Al  Al3  1  0.11401588  0.09405208  0.89793814  1
  Al  Al4  1  0.22879576  0.19913430  0.65451713  1
  Al  Al5  1  0.78588925  0.08804409  0.31159245  1
  Al  Al6  1  0.90948058  0.19811627  0.14644534  1
  Al  Al7  1  0.41844583  0.11676937  0.90177765  1
  Al  Al8  1  0.52691860  0.22059520  0.66791203  1
  Al  Al9  1  0.12548438  0.41930977  0.39879919  1
  Al  Al10  1  0.22007339  0.53017501  0.15282989  1
  Al  Al11  1  0.45480988  0.42723432  0.40796927  1
  Al  Al12  1  0.11816473  0.42555932  0.89977590  1
  Al  Al13  1  0.23182352  0.52661651  0.64710640  1
  Al  Al14  1  0.79411040  0.42773184  0.32862561  1
  Al  Al15  1  0.90896786  0.53399411  0.08339706  1
  Al  Al16  1  0.40786913  0.44336966  0.90072639  1
  Al  Al17  1  0.52245561  0.55484772  0.66142924  1
  Al  Al18  1  0.11901834  0.75872538  0.33043976  1
  Al  Al19  1  0.21776914  0.88276633  0.15098360  1
  Al  Al20  1  0.78667351  0.75824934  0.84792086  1
  Al  Al21  1  0.46166099  0.75152429  0.41208115  1
  Al  Al22  1  0.11484315  0.75828268  0.82545667  1
  Al  Al23  1  0.23076428  0.87655927  0.64592495  1
  Al  Al24  1  0.80112343  0.74245868  0.31830191  1
  Al  Al25  1  0.91866708  0.84892797  0.08375491  1
  Al  Al26  1  0.41221547  0.77593277  0.89815432  1
  Al  Al27  1  0.53828603  0.88063340  0.67752350  1
  Gd  Gd28  1  0.76589039  0.09568513  0.87740589  1
  Gd  Gd29  1  0.87869804  0.20998816  0.61064924  1
  Gd  Gd30  1  0.45254223  0.08808716  0.40318397  1
  Gd  Gd31  1  0.75813743  0.43527185  0.87565714  1
  Gd  Gd32  1  0.88270625  0.54038532  0.60440621  1
  Gd  Gd33  1  0.53771682  0.54619898  0.14708446  1
  Gd  Gd34  1  0.88078251  0.87548054  0.58207378  1
  Gd  Gd35  1  0.56219182  0.87327137  0.11395918  1
  N  N36  1  0.20371335  0.21510750  0.32793532  1
  N  N37  1  0.11324970  0.09483261  0.08798553  1
  N  N38  1  0.91689738  0.19082110  0.83625631  1
  N  N39  1  0.73653355  0.10798927  0.65053622  1
  N  N40  1  0.56893971  0.22261842  0.32612317  1
  N  N41  1  0.42146246  0.12689249  0.09046283  1
  N  N42  1  0.21156170  0.21051320  0.84191007  1
  N  N43  1  0.14435767  0.08063728  0.57596263  1
  N  N44  1  0.90313883  0.19593058  0.34211857  1
  N  N45  1  0.78437969  0.09009214  0.12106300  1
  N  N46  1  0.50465682  0.23648364  0.84744676  1
  N  N47  1  0.44208094  0.09013565  0.62084292  1
  N  N48  1  0.23436447  0.52889085  0.34072937  1
  N  N49  1  0.12183496  0.42210717  0.08682824  1
  N  N50  1  0.89996934  0.54805059  0.89370131  1
  N  N51  1  0.73319968  0.45232872  0.65756789  1
  N  N52  1  0.56708072  0.53392031  0.36378885  1
  N  N53  1  0.41789137  0.42422426  0.08202415  1
  N  N54  1  0.20927493  0.53707554  0.83328701  1
  N  N55  1  0.14900329  0.40288715  0.58286533  1
  N  N56  1  0.90198569  0.53333885  0.38060195  1
  N  N57  1  0.80485857  0.42060166  0.13309139  1
  N  N58  1  0.49380728  0.56737458  0.84735031  1
  N  N59  1  0.43943504  0.42787708  0.59131039  1
  N  N60  1  0.23874480  0.86941263  0.33975345  1
  N  N61  1  0.12046682  0.75712953  0.14366317  1
  N  N62  1  0.91591480  0.83969132  0.89936612  1
  N  N63  1  0.75014812  0.77752098  0.67129066  1
  N  N64  1  0.58241454  0.83643040  0.34100536  1
  N  N65  1  0.40515828  0.78274904  0.07527515  1
  N  N66  1  0.21361238  0.88758522  0.83295228  1
  N  N67  1  0.13367374  0.75012789  0.63712994  1
  N  N68  1  0.89486892  0.87208513  0.36305335  1
  N  N69  1  0.82313178  0.73730929  0.13819667  1
  N  N70  1  0.54228052  0.88165801  0.86929710  1
  N  N71  1  0.44266234  0.76666198  0.59894322  1
