# generated using pymatgen
data_Gd2Al7N9
_symmetry_space_group_name_H-M   'P 1'
_cell_length_a   9.91392033
_cell_length_b   9.81692190
_cell_length_c   10.69260439
_cell_angle_alpha   90.19453692
_cell_angle_beta   89.33454107
_cell_angle_gamma   60.17429867
_symmetry_Int_Tables_number   1
_chemical_formula_structural   Gd2Al7N9
_chemical_formula_sum   'Gd8 Al28 N36'
_cell_volume   902.69579465
_cell_formula_units_Z   4
loop_
 _symmetry_equiv_pos_site_id
 _symmetry_equiv_pos_as_xyz
  1  'x, y, z'
loop_
 _atom_site_type_symbol
 _atom_site_label
 _atom_site_symmetry_multiplicity
 _atom_site_fract_x
 _atom_site_fract_y
 _atom_site_fract_z
 _atom_site_occupancy
  Al  Al0  1  0.11745446  0.09032795  0.30141734  1
  Al  Al1  1  0.21155262  0.21424339  0.05431784  1
  Al  Al2  1  0.54048704  0.21890138  0.11629239  1
  Al  Al3  1  0.11570690  0.09168671  0.81341589  1
  Al  Al4  1  0.22554785  0.20178291  0.58085396  1
  Al  Al5  1  0.78808354  0.09331381  0.27655680  1
  Al  Al6  1  0.90811381  0.19902981  0.06391638  1
  Al  Al7  1  0.42586758  0.11027021  0.87400571  1
  Al  Al8  1  0.53127605  0.21816685  0.63777168  1
  Al  Al9  1  0.11597324  0.42591533  0.30245396  1
  Al  Al10  1  0.21011247  0.54174877  0.05413528  1
  Al  Al11  1  0.46137162  0.42510121  0.38153303  1
  Al  Al12  1  0.11864600  0.42880249  0.81331185  1
  Al  Al13  1  0.22940196  0.53426202  0.55855583  1
  Al  Al14  1  0.79692388  0.42214408  0.29155694  1
  Al  Al15  1  0.91300621  0.53154911  0.05767736  1
  Al  Al16  1  0.41725283  0.43967534  0.87118456  1
  Al  Al17  1  0.53173573  0.54758333  0.62971495  1
  Al  Al18  1  0.11972151  0.75968278  0.30303013  1
  Al  Al19  1  0.20385119  0.88103525  0.04905029  1
  Al  Al20  1  0.78909278  0.75499171  0.81866792  1
  Al  Al21  1  0.46673101  0.74888439  0.38867971  1
  Al  Al22  1  0.11758564  0.75423517  0.80743472  1
  Al  Al23  1  0.22957224  0.86937783  0.56287128  1
  Al  Al24  1  0.79800573  0.74797319  0.28748517  1
  Al  Al25  1  0.91040483  0.85557130  0.05614257  1
  Al  Al26  1  0.41879724  0.76974171  0.86947502  1
  Al  Al27  1  0.54084163  0.87752910  0.64832311  1
  Gd  Gd28  1  0.76459882  0.09756182  0.84479134  1
  Gd  Gd29  1  0.88739024  0.20333653  0.54678082  1
  Gd  Gd30  1  0.45638360  0.09057248  0.37346214  1
  Gd  Gd31  1  0.76294739  0.44085933  0.83836794  1
  Gd  Gd32  1  0.89144065  0.53532054  0.55652329  1
  Gd  Gd33  1  0.53802727  0.54104750  0.12684098  1
  Gd  Gd34  1  0.88794533  0.87085860  0.55471661  1
  Gd  Gd35  1  0.55926966  0.87018795  0.09302748  1
  N  N36  1  0.19195088  0.22003461  0.37684730  1
  N  N37  1  0.12254996  0.08909971  0.11911411  1
  N  N38  1  0.91735699  0.19453389  0.88681055  1
  N  N39  1  0.75056464  0.10701911  0.62709786  1
  N  N40  1  0.56546045  0.22903984  0.29257241  1
  N  N41  1  0.43130258  0.12270914  0.05880900  1
  N  N42  1  0.20655784  0.21321146  0.87185007  1
  N  N43  1  0.13629265  0.07914194  0.63387558  1
  N  N44  1  0.89277482  0.20158547  0.32828894  1
  N  N45  1  0.78374673  0.08815300  0.09298586  1
  N  N46  1  0.50078224  0.23603344  0.81068571  1
  N  N47  1  0.44644685  0.08794115  0.58711876  1
  N  N48  1  0.21927025  0.54155417  0.36949674  1
  N  N49  1  0.12030684  0.42265494  0.12007058  1
  N  N50  1  0.90749563  0.54738592  0.87590394  1
  N  N51  1  0.75201289  0.43737970  0.62626239  1
  N  N52  1  0.56763411  0.53477663  0.33797326  1
  N  N53  1  0.43010382  0.41643480  0.04849122  1
  N  N54  1  0.20129403  0.55136999  0.87493252  1
  N  N55  1  0.14263574  0.41479494  0.63386501  1
  N  N56  1  0.89682424  0.53687916  0.34239895  1
  N  N57  1  0.80470936  0.42027031  0.10539217  1
  N  N58  1  0.49675042  0.56490310  0.80757234  1
  N  N59  1  0.45098512  0.41967006  0.55987769  1
  N  N60  1  0.22142197  0.87396284  0.37385766  1
  N  N61  1  0.12119357  0.75744568  0.12010922  1
  N  N62  1  0.90723312  0.84403990  0.87423217  1
  N  N63  1  0.75888666  0.76836731  0.64390053  1
  N  N64  1  0.57602041  0.83938369  0.31134563  1
  N  N65  1  0.41707768  0.76882937  0.04486272  1
  N  N66  1  0.19857849  0.88264563  0.86742003  1
  N  N67  1  0.14292306  0.74406741  0.62670798  1
  N  N68  1  0.88843179  0.87762225  0.33737914  1
  N  N69  1  0.82094113  0.73952801  0.11133468  1
  N  N70  1  0.53987136  0.87971645  0.83466961  1
  N  N71  1  0.45220772  0.76103068  0.57074266  1
