# generated using pymatgen
data_Gd2Al7N9
_symmetry_space_group_name_H-M   'P 1'
_cell_length_a   10.07996294
_cell_length_b   9.85456145
_cell_length_c   10.29541370
_cell_angle_alpha   90.06167024
_cell_angle_beta   90.81858831
_cell_angle_gamma   60.74464002
_symmetry_Int_Tables_number   1
_chemical_formula_structural   Gd2Al7N9
_chemical_formula_sum   'Gd8 Al28 N36'
_cell_volume   892.12653151
_cell_formula_units_Z   4
loop_
 _symmetry_equiv_pos_site_id
 _symmetry_equiv_pos_as_xyz
  1  'x, y, z'
loop_
 _atom_site_type_symbol
 _atom_site_label
 _atom_site_symmetry_multiplicity
 _atom_site_fract_x
 _atom_site_fract_y
 _atom_site_fract_z
 _atom_site_occupancy
  Al  Al0  1  0.12669131  0.08596041  0.39866289  1
  Al  Al1  1  0.21244877  0.21450789  0.15081665  1
  Al  Al2  1  0.53169333  0.22394833  0.15119178  1
  Al  Al3  1  0.11394297  0.09120111  0.90162597  1
  Al  Al4  1  0.22848975  0.19916727  0.65806938  1
  Al  Al5  1  0.78692253  0.08751218  0.32185714  1
  Al  Al6  1  0.91152283  0.19719986  0.15287513  1
  Al  Al7  1  0.41670324  0.11617266  0.90647897  1
  Al  Al8  1  0.52423990  0.22176471  0.67106634  1
  Al  Al9  1  0.12526160  0.42058968  0.40316504  1
  Al  Al10  1  0.21680466  0.53827338  0.15633315  1
  Al  Al11  1  0.45602236  0.42739700  0.41200118  1
  Al  Al12  1  0.11855325  0.42752838  0.90212381  1
  Al  Al13  1  0.23105153  0.53457620  0.64892677  1
  Al  Al14  1  0.79424473  0.42896714  0.33464571  1
  Al  Al15  1  0.91130912  0.53438742  0.08937553  1
  Al  Al16  1  0.40714319  0.44399791  0.90408348  1
  Al  Al17  1  0.52578067  0.55262923  0.66542308  1
  Al  Al18  1  0.13306279  0.75219642  0.40008534  1
  Al  Al19  1  0.21579576  0.87717375  0.15533702  1
  Al  Al20  1  0.78026467  0.76078110  0.85229500  1
  Al  Al21  1  0.46349234  0.75014491  0.41634629  1
  Al  Al22  1  0.11800970  0.75629887  0.90285568  1
  Al  Al23  1  0.22939275  0.87062572  0.64859509  1
  Al  Al24  1  0.80269474  0.74350389  0.32852572  1
  Al  Al25  1  0.90945911  0.85676969  0.09490480  1
  Al  Al26  1  0.41223021  0.77453570  0.90150491  1
  Al  Al27  1  0.53576173  0.88067021  0.67946092  1
  Gd  Gd28  1  0.76025922  0.10249497  0.88459312  1
  Gd  Gd29  1  0.87850532  0.20910162  0.61271607  1
  Gd  Gd30  1  0.45205163  0.08837473  0.40573728  1
  Gd  Gd31  1  0.76237386  0.43326787  0.88139038  1
  Gd  Gd32  1  0.88630564  0.53862231  0.61325614  1
  Gd  Gd33  1  0.54088639  0.54319013  0.14729799  1
  Gd  Gd34  1  0.88225946  0.87573918  0.60157632  1
  Gd  Gd35  1  0.56239906  0.87120031  0.12000015  1
  N  N36  1  0.20279934  0.21571433  0.33378300  1
  N  N37  1  0.11366714  0.09285021  0.09384348  1
  N  N38  1  0.91764921  0.18903715  0.84122039  1
  N  N39  1  0.73212812  0.11226027  0.65419474  1
  N  N40  1  0.57017423  0.22256645  0.33323838  1
  N  N41  1  0.42101328  0.12543528  0.09816279  1
  N  N42  1  0.21071113  0.20990106  0.84747602  1
  N  N43  1  0.14441289  0.07882749  0.58273972  1
  N  N44  1  0.90314204  0.19688538  0.34966194  1
  N  N45  1  0.78539927  0.09004181  0.12894035  1
  N  N46  1  0.50026324  0.23766325  0.85255303  1
  N  N47  1  0.43973818  0.09107050  0.62486403  1
  N  N48  1  0.23289370  0.53364240  0.34362117  1
  N  N49  1  0.12257860  0.42370354  0.09139681  1
  N  N50  1  0.90132070  0.54899238  0.89513986  1
  N  N51  1  0.73481852  0.45129946  0.65949854  1
  N  N52  1  0.56796817  0.53363625  0.36741737  1
  N  N53  1  0.41538538  0.42550316  0.08783973  1
  N  N54  1  0.20552561  0.54825621  0.83717455  1
  N  N55  1  0.15096325  0.40499545  0.58953665  1
  N  N56  1  0.90340004  0.53234280  0.38653973  1
  N  N57  1  0.80749597  0.42000246  0.13684249  1
  N  N58  1  0.49912401  0.56354618  0.85493072  1
  N  N59  1  0.43960617  0.42860620  0.59718030  1
  N  N60  1  0.23634541  0.86673955  0.34308650  1
  N  N61  1  0.12466609  0.75503663  0.09671153  1
  N  N62  1  0.90169137  0.84837501  0.90092813  1
  N  N63  1  0.74528159  0.77759632  0.67262684  1
  N  N64  1  0.58393167  0.83554472  0.34845143  1
  N  N65  1  0.40488812  0.78244325  0.08176577  1
  N  N66  1  0.20961953  0.87939029  0.83770338  1
  N  N67  1  0.14678501  0.74410170  0.58618504  1
  N  N68  1  0.89868444  0.87077696  0.37372025  1
  N  N69  1  0.82264714  0.73770972  0.14559171  1
  N  N70  1  0.53948666  0.88112753  0.87339461  1
  N  N71  1  0.44190121  0.76607770  0.60526295  1
