# generated using pymatgen
data_Gd2Al7N9
_symmetry_space_group_name_H-M   'P 1'
_cell_length_a   9.90666192
_cell_length_b   9.83056037
_cell_length_c   10.75178731
_cell_angle_alpha   90.18257760
_cell_angle_beta   89.77102318
_cell_angle_gamma   60.32207868
_symmetry_Int_Tables_number   1
_chemical_formula_structural   Gd2Al7N9
_chemical_formula_sum   'Gd8 Al28 N36'
_cell_volume   909.71663008
_cell_formula_units_Z   4
loop_
 _symmetry_equiv_pos_site_id
 _symmetry_equiv_pos_as_xyz
  1  'x, y, z'
loop_
 _atom_site_type_symbol
 _atom_site_label
 _atom_site_symmetry_multiplicity
 _atom_site_fract_x
 _atom_site_fract_y
 _atom_site_fract_z
 _atom_site_occupancy
  Al  Al0  1  0.12473140  0.08638972  0.38770857  1
  Al  Al1  1  0.21883642  0.20612173  0.14547609  1
  Al  Al2  1  0.53943507  0.21896996  0.13818127  1
  Al  Al3  1  0.11189855  0.10033983  0.90094424  1
  Al  Al4  1  0.22616790  0.19534680  0.65665054  1
  Al  Al5  1  0.79406840  0.08837414  0.29683823  1
  Al  Al6  1  0.89839475  0.20382378  0.08306746  1
  Al  Al7  1  0.41511309  0.11694799  0.89789487  1
  Al  Al8  1  0.52381526  0.21977090  0.66163427  1
  Al  Al9  1  0.11774911  0.43241983  0.31702214  1
  Al  Al10  1  0.21095177  0.54137623  0.07084920  1
  Al  Al11  1  0.46595660  0.42096802  0.40283851  1
  Al  Al12  1  0.11508695  0.43550021  0.82744935  1
  Al  Al13  1  0.22879732  0.53393743  0.57412378  1
  Al  Al14  1  0.80498069  0.41677004  0.31104356  1
  Al  Al15  1  0.91524428  0.53101040  0.07565718  1
  Al  Al16  1  0.41678996  0.44099467  0.89262981  1
  Al  Al17  1  0.52556503  0.55210194  0.65314147  1
  Al  Al18  1  0.12519122  0.75585854  0.32103675  1
  Al  Al19  1  0.20749551  0.87629244  0.07472001  1
  Al  Al20  1  0.79061619  0.75553266  0.83957791  1
  Al  Al21  1  0.46911123  0.74551638  0.40973447  1
  Al  Al22  1  0.11820290  0.75560304  0.82424388  1
  Al  Al23  1  0.23004556  0.86784000  0.58394628  1
  Al  Al24  1  0.80118539  0.74500626  0.30672724  1
  Al  Al25  1  0.91143026  0.85433591  0.07515225  1
  Al  Al26  1  0.41619388  0.77355518  0.88734963  1
  Al  Al27  1  0.54138528  0.87914638  0.67203008  1
  Gd  Gd28  1  0.75892238  0.09667097  0.86393141  1
  Gd  Gd29  1  0.85974496  0.21800849  0.56911069  1
  Gd  Gd30  1  0.45646206  0.08793304  0.39971392  1
  Gd  Gd31  1  0.75447056  0.44964647  0.86141250  1
  Gd  Gd32  1  0.88651548  0.53788881  0.57791203  1
  Gd  Gd33  1  0.53680336  0.54404229  0.15183934  1
  Gd  Gd34  1  0.88670248  0.87194446  0.57399295  1
  Gd  Gd35  1  0.55949017  0.87203720  0.11184876  1
  N  N36  1  0.21151780  0.20654266  0.32446483  1
  N  N37  1  0.11984231  0.09455242  0.08752727  1
  N  N38  1  0.89947561  0.20450280  0.90427817  1
  N  N39  1  0.74192747  0.10395435  0.64998436  1
  N  N40  1  0.56954610  0.22325666  0.31508155  1
  N  N41  1  0.42313946  0.12719262  0.07857203  1
  N  N42  1  0.20963257  0.20583303  0.83753585  1
  N  N43  1  0.12938798  0.09174833  0.57535621  1
  N  N44  1  0.90123701  0.19585407  0.35100000  1
  N  N45  1  0.78304770  0.08697819  0.11471795  1
  N  N46  1  0.49517602  0.23878831  0.83393615  1
  N  N47  1  0.44026464  0.08954407  0.61191952  1
  N  N48  1  0.22544195  0.53772636  0.38683561  1
  N  N49  1  0.11912543  0.42972196  0.13697458  1
  N  N50  1  0.90910356  0.54712679  0.89542171  1
  N  N51  1  0.74411965  0.44695944  0.65314858  1
  N  N52  1  0.57607267  0.52856212  0.36227789  1
  N  N53  1  0.43213127  0.41723995  0.06997473  1
  N  N54  1  0.20153421  0.55233643  0.89306471  1
  N  N55  1  0.13824683  0.42099359  0.64737126  1
  N  N56  1  0.90335861  0.53257621  0.36413391  1
  N  N57  1  0.80375617  0.42172632  0.12760464  1
  N  N58  1  0.49036739  0.56930384  0.82830321  1
  N  N59  1  0.45121780  0.41899821  0.58056559  1
  N  N60  1  0.23713376  0.85721278  0.38452177  1
  N  N61  1  0.12219113  0.75581557  0.13855536  1
  N  N62  1  0.90998609  0.84360508  0.89494908  1
  N  N63  1  0.75872244  0.77018864  0.66548380  1
  N  N64  1  0.57975199  0.83686719  0.33213207  1
  N  N65  1  0.41793495  0.76861501  0.06249434  1
  N  N66  1  0.19979366  0.88601741  0.87260709  1
  N  N67  1  0.14186678  0.74340486  0.64332738  1
  N  N68  1  0.89467299  0.87277991  0.35686114  1
  N  N69  1  0.82110359  0.73885333  0.13082802  1
  N  N70  1  0.54174314  0.88091148  0.85806867  1
  N  N71  1  0.45076009  0.76365961  0.59344779  1
