# generated using pymatgen
data_Gd2Al7N9
_symmetry_space_group_name_H-M   'P 1'
_cell_length_a   10.05529368
_cell_length_b   9.82638759
_cell_length_c   10.46270005
_cell_angle_alpha   90.05620914
_cell_angle_beta   90.01153267
_cell_angle_gamma   60.17777959
_symmetry_Int_Tables_number   1
_chemical_formula_structural   Gd2Al7N9
_chemical_formula_sum   'Gd8 Al28 N36'
_cell_volume   896.88765360
_cell_formula_units_Z   4
loop_
 _symmetry_equiv_pos_site_id
 _symmetry_equiv_pos_as_xyz
  1  'x, y, z'
loop_
 _atom_site_type_symbol
 _atom_site_label
 _atom_site_symmetry_multiplicity
 _atom_site_fract_x
 _atom_site_fract_y
 _atom_site_fract_z
 _atom_site_occupancy
  Al  Al0  1  0.11204505  0.09467831  0.30223975  1
  Al  Al1  1  0.21710509  0.20987437  0.06022494  1
  Al  Al2  1  0.53964965  0.21230431  0.12223829  1
  Al  Al3  1  0.12258698  0.08842896  0.81478686  1
  Al  Al4  1  0.22545405  0.20267143  0.56676657  1
  Al  Al5  1  0.78926274  0.09425342  0.27862146  1
  Al  Al6  1  0.91038801  0.20112348  0.06132223  1
  Al  Al7  1  0.42138592  0.10921911  0.84476005  1
  Al  Al8  1  0.53062477  0.22420471  0.63138687  1
  Al  Al9  1  0.11181477  0.42732045  0.30242793  1
  Al  Al10  1  0.20427258  0.54244356  0.05867625  1
  Al  Al11  1  0.45072939  0.42475676  0.37080806  1
  Al  Al12  1  0.12269458  0.42710695  0.81174855  1
  Al  Al13  1  0.23155653  0.53678928  0.55881769  1
  Al  Al14  1  0.79391077  0.42604883  0.29231150  1
  Al  Al15  1  0.91252623  0.53003561  0.05644883  1
  Al  Al16  1  0.41644506  0.43699392  0.88092273  1
  Al  Al17  1  0.55184725  0.54818349  0.54775139  1
  Al  Al18  1  0.11590549  0.76031539  0.30200413  1
  Al  Al19  1  0.21110357  0.87579144  0.05823209  1
  Al  Al20  1  0.79708229  0.75295635  0.81771415  1
  Al  Al21  1  0.43833060  0.76481405  0.30995853  1
  Al  Al22  1  0.11917800  0.75589288  0.81006997  1
  Al  Al23  1  0.23398968  0.86762082  0.56313861  1
  Al  Al24  1  0.79341590  0.75140969  0.28429751  1
  Al  Al25  1  0.90774500  0.85755863  0.05644537  1
  Al  Al26  1  0.42200512  0.75823264  0.80771813  1
  Al  Al27  1  0.54471049  0.87941511  0.64092950  1
  Gd  Gd28  1  0.76126779  0.10227918  0.84801254  1
  Gd  Gd29  1  0.89413329  0.19832006  0.54939652  1
  Gd  Gd30  1  0.45292543  0.08740335  0.35397483  1
  Gd  Gd31  1  0.76580449  0.44061760  0.82194282  1
  Gd  Gd32  1  0.89978045  0.53708429  0.55404321  1
  Gd  Gd33  1  0.54566449  0.52882286  0.09676677  1
  Gd  Gd34  1  0.88511937  0.87592585  0.55752074  1
  Gd  Gd35  1  0.55693936  0.86099852  0.07047313  1
  N  N36  1  0.18591221  0.22264027  0.38056543  1
  N  N37  1  0.11821330  0.09148703  0.11795663  1
  N  N38  1  0.92163797  0.19311137  0.87835703  1
  N  N39  1  0.74632355  0.11364506  0.62589437  1
  N  N40  1  0.57324911  0.22404626  0.29948311  1
  N  N41  1  0.42756194  0.11218863  0.09854553  1
  N  N42  1  0.21218773  0.21113042  0.87479569  1
  N  N43  1  0.14244304  0.07845467  0.63270400  1
  N  N44  1  0.89200746  0.20331119  0.32991824  1
  N  N45  1  0.78081237  0.09217206  0.09067452  1
  N  N46  1  0.50001007  0.23831565  0.81086047  1
  N  N47  1  0.44420318  0.09159675  0.58604565  1
  N  N48  1  0.21665995  0.54138039  0.36552644  1
  N  N49  1  0.11626742  0.42219418  0.11915322  1
  N  N50  1  0.91244880  0.54336792  0.87010473  1
  N  N51  1  0.75255711  0.44209423  0.60584994  1
  N  N52  1  0.55982767  0.54172087  0.35166040  1
  N  N53  1  0.41669054  0.41046231  0.06267460  1
  N  N54  1  0.20383207  0.55099066  0.87395910  1
  N  N55  1  0.14876226  0.41277162  0.63028310  1
  N  N56  1  0.89646684  0.53888211  0.33970038  1
  N  N57  1  0.80862178  0.41877280  0.10571572  1
  N  N58  1  0.51613624  0.55652505  0.87382517  1
  N  N59  1  0.44909783  0.42607280  0.55469204  1
  N  N60  1  0.21974053  0.87625196  0.37507192  1
  N  N61  1  0.11383889  0.75990732  0.11713356  1
  N  N62  1  0.91067028  0.84724325  0.86919998  1
  N  N63  1  0.75755521  0.77004395  0.64098828  1
  N  N64  1  0.58214665  0.83617219  0.31289488  1
  N  N65  1  0.39956092  0.77750641  0.13406230  1
  N  N66  1  0.21808295  0.87305912  0.87235452  1
  N  N67  1  0.14071397  0.74775595  0.62587225  1
  N  N68  1  0.89053370  0.87659048  0.33616898  1
  N  N69  1  0.81600791  0.74202000  0.10451657  1
  N  N70  1  0.54022604  0.88098627  0.83532803  1
  N  N71  1  0.44330850  0.75791494  0.61991531  1
