# generated using pymatgen
data_Gd2Al7N9
_symmetry_space_group_name_H-M   'P 1'
_cell_length_a   10.02440075
_cell_length_b   9.84812380
_cell_length_c   10.50795356
_cell_angle_alpha   90.02439220
_cell_angle_beta   89.99421483
_cell_angle_gamma   60.25480738
_symmetry_Int_Tables_number   1
_chemical_formula_structural   Gd2Al7N9
_chemical_formula_sum   'Gd8 Al28 N36'
_cell_volume   900.67894488
_cell_formula_units_Z   4
loop_
 _symmetry_equiv_pos_site_id
 _symmetry_equiv_pos_as_xyz
  1  'x, y, z'
loop_
 _atom_site_type_symbol
 _atom_site_label
 _atom_site_symmetry_multiplicity
 _atom_site_fract_x
 _atom_site_fract_y
 _atom_site_fract_z
 _atom_site_occupancy
  Al  Al0  1  0.11591010  0.09162261  0.30329925  1
  Al  Al1  1  0.21158202  0.21257581  0.05814657  1
  Al  Al2  1  0.53939447  0.21723409  0.11985383  1
  Al  Al3  1  0.11807390  0.09111659  0.80884434  1
  Al  Al4  1  0.22091696  0.20459066  0.56482874  1
  Al  Al5  1  0.78980061  0.09279241  0.27795760  1
  Al  Al6  1  0.91268191  0.19555607  0.06206449  1
  Al  Al7  1  0.42248668  0.11251438  0.87692979  1
  Al  Al8  1  0.52502370  0.22010139  0.63432534  1
  Al  Al9  1  0.11458022  0.42689151  0.30446184  1
  Al  Al10  1  0.20814950  0.54212331  0.05587878  1
  Al  Al11  1  0.46126888  0.42662206  0.37839148  1
  Al  Al12  1  0.12209517  0.42655346  0.80855538  1
  Al  Al13  1  0.22769565  0.53671691  0.55589554  1
  Al  Al14  1  0.79676129  0.42316762  0.28707024  1
  Al  Al15  1  0.91910428  0.52946325  0.05533662  1
  Al  Al16  1  0.41452653  0.43566282  0.87368808  1
  Al  Al17  1  0.52908414  0.54834242  0.63880011  1
  Al  Al18  1  0.12145533  0.75771025  0.30223074  1
  Al  Al19  1  0.20672372  0.88025751  0.04867110  1
  Al  Al20  1  0.79320457  0.75573929  0.81766991  1
  Al  Al21  1  0.45903917  0.75092320  0.36016092  1
  Al  Al22  1  0.11733542  0.75565176  0.80568542  1
  Al  Al23  1  0.23152226  0.86958028  0.56551839  1
  Al  Al24  1  0.80065819  0.74651097  0.28568366  1
  Al  Al25  1  0.91312529  0.85594491  0.05517310  1
  Al  Al26  1  0.41974769  0.76912589  0.86049346  1
  Al  Al27  1  0.53692678  0.88377090  0.65005586  1
  Gd  Gd28  1  0.75957397  0.10084778  0.84571529  1
  Gd  Gd29  1  0.87948140  0.20839842  0.54987596  1
  Gd  Gd30  1  0.45580494  0.08700533  0.36261601  1
  Gd  Gd31  1  0.77225170  0.43624587  0.83934574  1
  Gd  Gd32  1  0.88512412  0.54053721  0.55903186  1
  Gd  Gd33  1  0.54647869  0.53226769  0.10603825  1
  Gd  Gd34  1  0.88379919  0.87548972  0.55721543  1
  Gd  Gd35  1  0.56783086  0.86395696  0.07999673  1
  N  N36  1  0.19105242  0.22036456  0.37641102  1
  N  N37  1  0.12242482  0.08789335  0.11972433  1
  N  N38  1  0.92174632  0.18767050  0.88111537  1
  N  N39  1  0.74194597  0.11214188  0.62542174  1
  N  N40  1  0.57076856  0.22482804  0.29794199  1
  N  N41  1  0.42950283  0.11943290  0.06924334  1
  N  N42  1  0.20653545  0.21276263  0.87330392  1
  N  N43  1  0.13196888  0.08428257  0.62658267  1
  N  N44  1  0.89358585  0.20214082  0.32821911  1
  N  N45  1  0.78255824  0.08982009  0.09164413  1
  N  N46  1  0.49669576  0.23515556  0.81113291  1
  N  N47  1  0.44142198  0.09081315  0.58013089  1
  N  N48  1  0.22076694  0.54038586  0.36600663  1
  N  N49  1  0.12141606  0.42110784  0.12088378  1
  N  N50  1  0.91346186  0.54671406  0.87015545  1
  N  N51  1  0.74551001  0.44290523  0.62534433  1
  N  N52  1  0.56486851  0.53536413  0.32429740  1
  N  N53  1  0.42265225  0.41392492  0.05411707  1
  N  N54  1  0.20156811  0.55140108  0.87220227  1
  N  N55  1  0.14114341  0.41530942  0.62663348  1
  N  N56  1  0.89725782  0.53563572  0.34183790  1
  N  N57  1  0.81249824  0.41685199  0.09869103  1
  N  N58  1  0.50804979  0.55264708  0.82505427  1
  N  N59  1  0.44748970  0.42599349  0.56135959  1
  N  N60  1  0.22942383  0.87042921  0.37064131  1
  N  N61  1  0.12114704  0.75871538  0.11763499  1
  N  N62  1  0.90942636  0.84719395  0.86978526  1
  N  N63  1  0.75252199  0.77467557  0.64196217  1
  N  N64  1  0.58144857  0.83514025  0.30658515  1
  N  N65  1  0.41584277  0.77111204  0.04941332  1
  N  N66  1  0.20270674  0.88099549  0.86379833  1
  N  N67  1  0.13936129  0.74652107  0.62268322  1
  N  N68  1  0.89290424  0.87545195  0.33655023  1
  N  N69  1  0.82723649  0.73681766  0.10765533  1
  N  N70  1  0.54312443  0.88340755  0.84024569  1
  N  N71  1  0.44204746  0.76543849  0.60268204  1
