# generated using pymatgen
data_Al11BN12
_symmetry_space_group_name_H-M   'P 1'
_cell_length_a   9.27859425
_cell_length_b   9.28654076
_cell_length_c   10.11142287
_cell_angle_alpha   89.93539796
_cell_angle_beta   89.70631497
_cell_angle_gamma   59.83027578
_symmetry_Int_Tables_number   1
_chemical_formula_structural   Al11BN12
_chemical_formula_sum   'Al33 B3 N36'
_cell_volume   753.22971736
_cell_formula_units_Z   3
loop_
 _symmetry_equiv_pos_site_id
 _symmetry_equiv_pos_as_xyz
  1  'x, y, z'
loop_
 _atom_site_type_symbol
 _atom_site_label
 _atom_site_symmetry_multiplicity
 _atom_site_fract_x
 _atom_site_fract_y
 _atom_site_fract_z
 _atom_site_occupancy
  Al  Al0  1  0.11362735  0.09353442  0.40600587  1
  Al  Al1  1  0.22048736  0.20136041  0.14814721  1
  Al  Al2  1  0.78212892  0.08211674  0.82672898  1
  Al  Al3  1  0.89170116  0.20345712  0.61849387  1
  Al  Al4  1  0.44159580  0.08950995  0.39937731  1
  Al  Al5  1  0.56959290  0.19650686  0.07846371  1
  Al  Al6  1  0.10089982  0.09867214  0.89415271  1
  Al  Al7  1  0.22196805  0.20810451  0.65468917  1
  Al  Al8  1  0.78085903  0.10221630  0.32556703  1
  Al  Al9  1  0.44579988  0.08588314  0.88642233  1
  Al  Al10  1  0.56890647  0.19450697  0.57978436  1
  Al  Al11  1  0.11067295  0.42631916  0.40027953  1
  Al  Al12  1  0.22548858  0.53643187  0.15605082  1
  Al  Al13  1  0.78071451  0.42167379  0.89259903  1
  Al  Al14  1  0.89152303  0.54709325  0.65315241  1
  Al  Al15  1  0.44393581  0.43307891  0.39976334  1
  Al  Al16  1  0.56137627  0.53523734  0.14905169  1
  Al  Al17  1  0.11078094  0.43043618  0.90240229  1
  Al  Al18  1  0.21684168  0.54312721  0.64819643  1
  Al  Al19  1  0.77486229  0.43299950  0.40694885  1
  Al  Al20  1  0.88442430  0.53434455  0.15179662  1
  Al  Al21  1  0.43997687  0.43409047  0.89845998  1
  Al  Al22  1  0.55345298  0.54183522  0.65559471  1
  Al  Al23  1  0.10188370  0.76795769  0.39201091  1
  Al  Al24  1  0.21996279  0.87908774  0.15216684  1
  Al  Al25  1  0.77103223  0.76237956  0.90276371  1
  Al  Al26  1  0.44316847  0.76012965  0.40282158  1
  Al  Al27  1  0.11357317  0.75996755  0.90797386  1
  Al  Al28  1  0.21428993  0.87495383  0.65283750  1
  Al  Al29  1  0.77969887  0.76522728  0.39139376  1
  Al  Al30  1  0.88903233  0.87463746  0.11864419  1
  Al  Al31  1  0.44447148  0.76535896  0.89588790  1
  Al  Al32  1  0.55886428  0.87186955  0.63339505  1
  B  B33  1  0.88758653  0.20875032  0.10813255  1
  B  B34  1  0.89008574  0.86917735  0.60839865  1
  B  B35  1  0.55324271  0.86818349  0.11163391  1
  N  N36  1  0.22152440  0.20463200  0.33551732  1
  N  N37  1  0.07952832  0.11062893  0.09026164  1
  N  N38  1  0.88779750  0.20796574  0.82402163  1
  N  N39  1  0.79443993  0.05485847  0.63478279  1
  N  N40  1  0.56163368  0.20147786  0.38436150  1
  N  N41  1  0.45832174  0.05977770  0.08971305  1
  N  N42  1  0.21966238  0.20712529  0.84439125  1
  N  N43  1  0.12273473  0.09109103  0.59377402  1
  N  N44  1  0.88493148  0.20409390  0.40026499  1
  N  N45  1  0.79286956  0.11894736  0.13259196  1
  N  N46  1  0.56067622  0.20191268  0.88485215  1
  N  N47  1  0.43929559  0.09807842  0.59532512  1
  N  N48  1  0.22169299  0.53942955  0.34402114  1
  N  N49  1  0.11148614  0.42885002  0.09123604  1
  N  N50  1  0.88886286  0.54096222  0.84293562  1
  N  N51  1  0.77254924  0.44431009  0.59565179  1
  N  N52  1  0.55676996  0.53901956  0.33594158  1
  N  N53  1  0.44357898  0.43026689  0.09058412  1
  N  N54  1  0.21950916  0.54212283  0.83690299  1
  N  N55  1  0.11130268  0.42781681  0.58959855  1
  N  N56  1  0.88900984  0.53768519  0.33892671  1
  N  N57  1  0.79317795  0.39858931  0.08881752  1
  N  N58  1  0.55464309  0.54105831  0.84468062  1
  N  N59  1  0.44469568  0.43163701  0.59277733  1
  N  N60  1  0.22104201  0.87407610  0.33950843  1
  N  N61  1  0.12635807  0.75396932  0.09476517  1
  N  N62  1  0.88444127  0.87688749  0.90612192  1
  N  N63  1  0.79891385  0.77370315  0.59100320  1
  N  N64  1  0.55645624  0.86783718  0.36958724  1
  N  N65  1  0.45474292  0.77594029  0.09046624  1
  N  N66  1  0.21955600  0.87312832  0.84244558  1
  N  N67  1  0.08107562  0.77763935  0.58978299  1
  N  N68  1  0.88907559  0.86905296  0.31991500  1
  N  N69  1  0.74214119  0.76684019  0.09533912  1
  N  N70  1  0.55894040  0.86741010  0.82572996  1
  N  N71  1  0.43680371  0.75909189  0.59292752  1
