# generated using pymatgen
data_Al11BN12
_symmetry_space_group_name_H-M   'P 1'
_cell_length_a   9.27734897
_cell_length_b   9.28466645
_cell_length_c   10.19426256
_cell_angle_alpha   90.08015487
_cell_angle_beta   89.66558420
_cell_angle_gamma   59.93737535
_symmetry_Int_Tables_number   1
_chemical_formula_structural   Al11BN12
_chemical_formula_sum   'Al33 B3 N36'
_cell_volume   759.95770854
_cell_formula_units_Z   3
loop_
 _symmetry_equiv_pos_site_id
 _symmetry_equiv_pos_as_xyz
  1  'x, y, z'
loop_
 _atom_site_type_symbol
 _atom_site_label
 _atom_site_symmetry_multiplicity
 _atom_site_fract_x
 _atom_site_fract_y
 _atom_site_fract_z
 _atom_site_occupancy
  Al  Al0  1  0.11562035  0.09380127  0.39516816  1
  Al  Al1  1  0.21391789  0.20382666  0.13470236  1
  Al  Al2  1  0.78089574  0.08318888  0.81570866  1
  Al  Al3  1  0.89042456  0.20213346  0.60663327  1
  Al  Al4  1  0.45410612  0.08369138  0.32154216  1
  Al  Al5  1  0.56318223  0.20110782  0.06437834  1
  Al  Al6  1  0.10123555  0.09838585  0.88188014  1
  Al  Al7  1  0.21646841  0.21107920  0.64072476  1
  Al  Al8  1  0.78401966  0.10226706  0.31332811  1
  Al  Al9  1  0.44998458  0.09105974  0.81408321  1
  Al  Al10  1  0.56243279  0.19824128  0.56225212  1
  Al  Al11  1  0.11079842  0.42688844  0.38873333  1
  Al  Al12  1  0.21697632  0.54076864  0.14317612  1
  Al  Al13  1  0.77878780  0.42093995  0.88157311  1
  Al  Al14  1  0.89272885  0.54505743  0.64263070  1
  Al  Al15  1  0.44945578  0.42210243  0.32158192  1
  Al  Al16  1  0.56364078  0.53867558  0.13499351  1
  Al  Al17  1  0.11118685  0.42828952  0.89029638  1
  Al  Al18  1  0.21111133  0.54713593  0.63344422  1
  Al  Al19  1  0.77635037  0.43281718  0.39629650  1
  Al  Al20  1  0.88752587  0.52642919  0.13535947  1
  Al  Al21  1  0.44490472  0.42040144  0.81932815  1
  Al  Al22  1  0.55747018  0.54580968  0.64487113  1
  Al  Al23  1  0.10027634  0.76934815  0.38452945  1
  Al  Al24  1  0.21915546  0.87954024  0.14215208  1
  Al  Al25  1  0.77550495  0.76487567  0.85741195  1
  Al  Al26  1  0.44126114  0.75881214  0.39508349  1
  Al  Al27  1  0.11488434  0.75859663  0.89649848  1
  Al  Al28  1  0.21485744  0.87507991  0.64307853  1
  Al  Al29  1  0.77153120  0.76507389  0.32349636  1
  Al  Al30  1  0.88842454  0.87832912  0.10174527  1
  Al  Al31  1  0.44310877  0.76653475  0.88856933  1
  Al  Al32  1  0.56336839  0.87372460  0.59178771  1
  B  B33  1  0.88582503  0.20776706  0.09497244  1
  B  B34  1  0.88776821  0.86986295  0.60280922  1
  B  B35  1  0.55506204  0.86876880  0.10081607  1
  N  N36  1  0.21977403  0.20655962  0.32225108  1
  N  N37  1  0.07828888  0.10982901  0.07771594  1
  N  N38  1  0.88725700  0.20743733  0.81259808  1
  N  N39  1  0.79152569  0.05837183  0.62346316  1
  N  N40  1  0.56062336  0.20133772  0.37498218  1
  N  N41  1  0.46542542  0.05884539  0.12343072  1
  N  N42  1  0.21641314  0.20802431  0.83259200  1
  N  N43  1  0.12265260  0.09034168  0.58100245  1
  N  N44  1  0.88660300  0.20419053  0.38806223  1
  N  N45  1  0.79051021  0.12000960  0.12024189  1
  N  N46  1  0.55722217  0.20204030  0.87987664  1
  N  N47  1  0.44546034  0.10181578  0.62545610  1
  N  N48  1  0.21661584  0.54336720  0.33368893  1
  N  N49  1  0.11133189  0.42789915  0.07695381  1
  N  N50  1  0.88974711  0.53615996  0.83301349  1
  N  N51  1  0.77448407  0.44326611  0.58314401  1
  N  N52  1  0.56151573  0.54320403  0.32423036  1
  N  N53  1  0.44780353  0.41924624  0.12678927  1
  N  N54  1  0.21169296  0.54474421  0.82412865  1
  N  N55  1  0.11034735  0.42783609  0.57505433  1
  N  N56  1  0.89191437  0.53259329  0.32238923  1
  N  N57  1  0.79242294  0.39710807  0.07473155  1
  N  N58  1  0.55397010  0.54234735  0.83722636  1
  N  N59  1  0.45061446  0.42086154  0.62492507  1
  N  N60  1  0.22213686  0.87425612  0.32813803  1
  N  N61  1  0.12712843  0.75447111  0.08124894  1
  N  N62  1  0.88237843  0.87867859  0.89993015  1
  N  N63  1  0.80157824  0.77425603  0.61272065  1
  N  N64  1  0.55951093  0.87284235  0.39130849  1
  N  N65  1  0.45403105  0.77875870  0.08222621  1
  N  N66  1  0.21876636  0.87281902  0.83110934  1
  N  N67  1  0.08076891  0.77968072  0.57840104  1
  N  N68  1  0.89148974  0.87167869  0.30690271  1
  N  N69  1  0.74205951  0.76775547  0.11147153  1
  N  N70  1  0.55544812  0.86677644  0.82866384  1
  N  N71  1  0.43536722  0.75887359  0.58158188  1
