# generated using pymatgen
data_Al11BN12
_symmetry_space_group_name_H-M   'P 1'
_cell_length_a   9.29064843
_cell_length_b   9.31561491
_cell_length_c   10.09456780
_cell_angle_alpha   90.00606575
_cell_angle_beta   89.45611486
_cell_angle_gamma   59.87258169
_symmetry_Int_Tables_number   1
_chemical_formula_structural   Al11BN12
_chemical_formula_sum   'Al33 B3 N36'
_cell_volume   755.59733026
_cell_formula_units_Z   3
loop_
 _symmetry_equiv_pos_site_id
 _symmetry_equiv_pos_as_xyz
  1  'x, y, z'
loop_
 _atom_site_type_symbol
 _atom_site_label
 _atom_site_symmetry_multiplicity
 _atom_site_fract_x
 _atom_site_fract_y
 _atom_site_fract_z
 _atom_site_occupancy
  Al  Al0  1  0.11757269  0.09097436  0.39624368  1
  Al  Al1  1  0.21802479  0.20157085  0.12900955  1
  Al  Al2  1  0.78092552  0.08639091  0.82146310  1
  Al  Al3  1  0.88957607  0.20205752  0.60089792  1
  Al  Al4  1  0.45566475  0.08353708  0.31487629  1
  Al  Al5  1  0.56318303  0.20479390  0.06869129  1
  Al  Al6  1  0.09645297  0.10165230  0.89022873  1
  Al  Al7  1  0.22441146  0.19686749  0.64638348  1
  Al  Al8  1  0.78352158  0.09724091  0.32056921  1
  Al  Al9  1  0.45097181  0.08929317  0.83616879  1
  Al  Al10  1  0.56183949  0.19299225  0.56904574  1
  Al  Al11  1  0.10620900  0.42901793  0.32510199  1
  Al  Al12  1  0.22233668  0.54488649  0.13940138  1
  Al  Al13  1  0.77446857  0.43239283  0.81274070  1
  Al  Al14  1  0.89074018  0.54562443  0.56796721  1
  Al  Al15  1  0.45156833  0.42314915  0.32725291  1
  Al  Al16  1  0.56032364  0.53719700  0.07243651  1
  Al  Al17  1  0.10366608  0.43417611  0.82415616  1
  Al  Al18  1  0.21660451  0.54500238  0.62605339  1
  Al  Al19  1  0.78318540  0.42000987  0.32752478  1
  Al  Al20  1  0.88432067  0.53594679  0.06828238  1
  Al  Al21  1  0.45077777  0.42593503  0.81848938  1
  Al  Al22  1  0.55602080  0.54270193  0.56692792  1
  Al  Al23  1  0.09935953  0.76855183  0.38715518  1
  Al  Al24  1  0.21245655  0.88329795  0.13983823  1
  Al  Al25  1  0.77791645  0.76579506  0.83473555  1
  Al  Al26  1  0.45139167  0.76190216  0.31778557  1
  Al  Al27  1  0.11302872  0.76051619  0.89726776  1
  Al  Al28  1  0.21044115  0.87596721  0.64690880  1
  Al  Al29  1  0.77087637  0.76094685  0.30972272  1
  Al  Al30  1  0.88398950  0.87772059  0.10057840  1
  Al  Al31  1  0.44757436  0.76104796  0.83133963  1
  Al  Al32  1  0.56032178  0.87207902  0.57485802  1
  B  B33  1  0.88467583  0.21083093  0.10894141  1
  B  B34  1  0.88579884  0.87087859  0.61123781  1
  B  B35  1  0.55851691  0.86662370  0.06662407  1
  N  N36  1  0.22295431  0.19843245  0.32462657  1
  N  N37  1  0.07528623  0.11331317  0.08337669  1
  N  N38  1  0.88808473  0.20544053  0.81915497  1
  N  N39  1  0.79171415  0.05643157  0.62533928  1
  N  N40  1  0.55867312  0.19933494  0.37992873  1
  N  N41  1  0.46566868  0.06649671  0.12002373  1
  N  N42  1  0.21830597  0.20465687  0.84554084  1
  N  N43  1  0.12408118  0.08658558  0.58208520  1
  N  N44  1  0.88353675  0.20640649  0.39510229  1
  N  N45  1  0.79076201  0.11953707  0.12540402  1
  N  N46  1  0.55735494  0.20753565  0.88200422  1
  N  N47  1  0.45510225  0.08687176  0.64181814  1
  N  N48  1  0.22126738  0.54185925  0.34845754  1
  N  N49  1  0.10429491  0.43491718  0.12655612  1
  N  N50  1  0.88381698  0.54007531  0.88120996  1
  N  N51  1  0.77404274  0.44106904  0.62498733  1
  N  N52  1  0.55601929  0.54181891  0.37782388  1
  N  N53  1  0.45239290  0.42367115  0.13485867  1
  N  N54  1  0.21905669  0.54801049  0.82771088  1
  N  N55  1  0.10789441  0.42495795  0.62592593  1
  N  N56  1  0.88478074  0.54320052  0.37909934  1
  N  N57  1  0.79371504  0.39953076  0.13052519  1
  N  N58  1  0.55605188  0.53817725  0.88511328  1
  N  N59  1  0.45597940  0.42025236  0.62498885  1
  N  N60  1  0.21732384  0.87387523  0.32973523  1
  N  N61  1  0.12188072  0.75815911  0.08288040  1
  N  N62  1  0.88030331  0.87821446  0.89730213  1
  N  N63  1  0.79459290  0.77314800  0.63445973  1
  N  N64  1  0.55705131  0.87079909  0.38788596  1
  N  N65  1  0.45751386  0.77422144  0.12302404  1
  N  N66  1  0.21285009  0.87845945  0.83620262  1
  N  N67  1  0.07677593  0.77901979  0.58302342  1
  N  N68  1  0.88981456  0.86938423  0.31428539  1
  N  N69  1  0.74721506  0.76559787  0.12006224  1
  N  N70  1  0.55474995  0.87054750  0.90276708  1
  N  N71  1  0.44951132  0.75911721  0.63709100  1
