# generated using pymatgen
data_Al11BN12
_symmetry_space_group_name_H-M   'P 1'
_cell_length_a   9.29192102
_cell_length_b   9.31704981
_cell_length_c   10.08092216
_cell_angle_alpha   90.00661863
_cell_angle_beta   89.45842044
_cell_angle_gamma   59.87964080
_symmetry_Int_Tables_number   1
_chemical_formula_structural   Al11BN12
_chemical_formula_sum   'Al33 B3 N36'
_cell_volume   754.84983869
_cell_formula_units_Z   3
loop_
 _symmetry_equiv_pos_site_id
 _symmetry_equiv_pos_as_xyz
  1  'x, y, z'
loop_
 _atom_site_type_symbol
 _atom_site_label
 _atom_site_symmetry_multiplicity
 _atom_site_fract_x
 _atom_site_fract_y
 _atom_site_fract_z
 _atom_site_occupancy
  Al  Al0  1  0.11761924  0.09123904  0.39630370  1
  Al  Al1  1  0.21806224  0.20125374  0.12927853  1
  Al  Al2  1  0.78068109  0.08664156  0.82146967  1
  Al  Al3  1  0.88963082  0.20197946  0.60099193  1
  Al  Al4  1  0.45562933  0.08366003  0.31505710  1
  Al  Al5  1  0.56354000  0.20427365  0.06868948  1
  Al  Al6  1  0.09651428  0.10180033  0.89017987  1
  Al  Al7  1  0.22427808  0.19684921  0.64676047  1
  Al  Al8  1  0.78337959  0.09741623  0.32079672  1
  Al  Al9  1  0.45095030  0.08938093  0.83630887  1
  Al  Al10  1  0.56201492  0.19287281  0.56905175  1
  Al  Al11  1  0.10729065  0.42992043  0.32562191  1
  Al  Al12  1  0.22371312  0.54232180  0.12668132  1
  Al  Al13  1  0.77458139  0.43229960  0.81290031  1
  Al  Al14  1  0.89052214  0.54572621  0.56812552  1
  Al  Al15  1  0.44986955  0.42407640  0.32762930  1
  Al  Al16  1  0.56053904  0.53733610  0.07250189  1
  Al  Al17  1  0.10424113  0.43475491  0.82368208  1
  Al  Al18  1  0.21793374  0.54260191  0.61432358  1
  Al  Al19  1  0.78331562  0.42000487  0.32775508  1
  Al  Al20  1  0.88388017  0.53616486  0.06836724  1
  Al  Al21  1  0.44978101  0.42637731  0.81812003  1
  Al  Al22  1  0.55608990  0.54266134  0.56693553  1
  Al  Al23  1  0.09915038  0.76905389  0.38697507  1
  Al  Al24  1  0.21260376  0.88343381  0.14000406  1
  Al  Al25  1  0.77804543  0.76563301  0.83469171  1
  Al  Al26  1  0.45148097  0.76184071  0.31797628  1
  Al  Al27  1  0.11237553  0.76141423  0.89644599  1
  Al  Al28  1  0.21037427  0.87581621  0.64698663  1
  Al  Al29  1  0.77091216  0.76089156  0.30994893  1
  Al  Al30  1  0.88359597  0.87797010  0.10084396  1
  Al  Al31  1  0.44767370  0.76085022  0.83138920  1
  Al  Al32  1  0.56023816  0.87219026  0.57498222  1
  B  B33  1  0.88463680  0.21085776  0.10897202  1
  B  B34  1  0.88583323  0.87103257  0.61157031  1
  B  B35  1  0.55851615  0.86656558  0.06646130  1
  N  N36  1  0.22288762  0.19882951  0.32461148  1
  N  N37  1  0.07517732  0.11342345  0.08358935  1
  N  N38  1  0.88813684  0.20538277  0.81922499  1
  N  N39  1  0.79141038  0.05668903  0.62531731  1
  N  N40  1  0.55863410  0.19955993  0.37966765  1
  N  N41  1  0.46561274  0.06652656  0.11999376  1
  N  N42  1  0.21830624  0.20478498  0.84588038  1
  N  N43  1  0.12411549  0.08657669  0.58228124  1
  N  N44  1  0.88369220  0.20634776  0.39509890  1
  N  N45  1  0.79056765  0.11978268  0.12543197  1
  N  N46  1  0.55739169  0.20761529  0.88201116  1
  N  N47  1  0.45490327  0.08706434  0.64173520  1
  N  N48  1  0.22233619  0.53989901  0.36100395  1
  N  N49  1  0.10426637  0.43512329  0.12734901  1
  N  N50  1  0.88410775  0.53989893  0.88126879  1
  N  N51  1  0.77401813  0.44101752  0.62492559  1
  N  N52  1  0.55603848  0.54167499  0.37751746  1
  N  N53  1  0.45170656  0.42387000  0.13526394  1
  N  N54  1  0.21996998  0.54650206  0.83355852  1
  N  N55  1  0.10757484  0.42499243  0.62663853  1
  N  N56  1  0.88512708  0.54308600  0.37893446  1
  N  N57  1  0.79366041  0.39953134  0.13052346  1
  N  N58  1  0.55615671  0.53796772  0.88512522  1
  N  N59  1  0.45610496  0.42013142  0.62526088  1
  N  N60  1  0.21744909  0.87396019  0.32989069  1
  N  N61  1  0.12114532  0.75923205  0.08339093  1
  N  N62  1  0.87995421  0.87850647  0.89740016  1
  N  N63  1  0.79439490  0.77328391  0.63446570  1
  N  N64  1  0.55704373  0.87086762  0.38786911  1
  N  N65  1  0.45746312  0.77420749  0.12299429  1
  N  N66  1  0.21303983  0.87862976  0.83641283  1
  N  N67  1  0.07607848  0.77994910  0.58395196  1
  N  N68  1  0.88975223  0.86945810  0.31413560  1
  N  N69  1  0.74711021  0.76561431  0.12011153  1
  N  N70  1  0.55483569  0.87045985  0.90270346  1
  N  N71  1  0.44946930  0.75908580  0.63696747  1
