# generated using pymatgen
data_Al11BN12
_symmetry_space_group_name_H-M   'P 1'
_cell_length_a   9.27885661
_cell_length_b   9.28365182
_cell_length_c   10.19055237
_cell_angle_alpha   90.09628872
_cell_angle_beta   89.66170926
_cell_angle_gamma   59.92831661
_symmetry_Int_Tables_number   1
_chemical_formula_structural   Al11BN12
_chemical_formula_sum   'Al33 B3 N36'
_cell_volume   759.65027086
_cell_formula_units_Z   3
loop_
 _symmetry_equiv_pos_site_id
 _symmetry_equiv_pos_as_xyz
  1  'x, y, z'
loop_
 _atom_site_type_symbol
 _atom_site_label
 _atom_site_symmetry_multiplicity
 _atom_site_fract_x
 _atom_site_fract_y
 _atom_site_fract_z
 _atom_site_occupancy
  Al  Al0  1  0.11561801  0.09383747  0.39517749  1
  Al  Al1  1  0.21379111  0.20393904  0.13459143  1
  Al  Al2  1  0.78103716  0.08258031  0.81529419  1
  Al  Al3  1  0.89038743  0.20222355  0.60681112  1
  Al  Al4  1  0.45402976  0.08373114  0.32125739  1
  Al  Al5  1  0.56333392  0.20110652  0.06426512  1
  Al  Al6  1  0.10116426  0.09839369  0.88183594  1
  Al  Al7  1  0.21630802  0.21123389  0.64072451  1
  Al  Al8  1  0.78387775  0.10249882  0.31322709  1
  Al  Al9  1  0.45022573  0.09083221  0.81384941  1
  Al  Al10  1  0.56248202  0.19812004  0.56223195  1
  Al  Al11  1  0.11083889  0.42683498  0.38893644  1
  Al  Al12  1  0.21702997  0.54072508  0.14310004  1
  Al  Al13  1  0.77889746  0.42082536  0.88140241  1
  Al  Al14  1  0.89188910  0.54685471  0.64303286  1
  Al  Al15  1  0.44941816  0.42207344  0.32160874  1
  Al  Al16  1  0.56365875  0.53859576  0.13490973  1
  Al  Al17  1  0.11119509  0.42831663  0.89017939  1
  Al  Al18  1  0.21107688  0.54719615  0.63340621  1
  Al  Al19  1  0.77621303  0.43279917  0.39647094  1
  Al  Al20  1  0.88733860  0.52684927  0.13550616  1
  Al  Al21  1  0.44499732  0.42026183  0.81926564  1
  Al  Al22  1  0.55752506  0.54577206  0.64480391  1
  Al  Al23  1  0.10050961  0.76931246  0.38445849  1
  Al  Al24  1  0.21921681  0.87958178  0.14204682  1
  Al  Al25  1  0.77353522  0.76388178  0.86971291  1
  Al  Al26  1  0.44107747  0.75880698  0.39501758  1
  Al  Al27  1  0.11487371  0.75856116  0.89632116  1
  Al  Al28  1  0.21477129  0.87507583  0.64294386  1
  Al  Al29  1  0.77337702  0.76457579  0.33022929  1
  Al  Al30  1  0.88891536  0.87855255  0.10206743  1
  Al  Al31  1  0.44303217  0.76664272  0.88805754  1
  Al  Al32  1  0.56347014  0.87352561  0.59260143  1
  B  B33  1  0.88583546  0.20790396  0.09498977  1
  B  B34  1  0.88746799  0.86968411  0.60160699  1
  B  B35  1  0.55486048  0.86889451  0.10053957  1
  N  N36  1  0.21968075  0.20665392  0.32216333  1
  N  N37  1  0.07828569  0.10985902  0.07770962  1
  N  N38  1  0.88723500  0.20727606  0.81258311  1
  N  N39  1  0.79144337  0.05834345  0.62326770  1
  N  N40  1  0.56062602  0.20121635  0.37485772  1
  N  N41  1  0.46561274  0.05874154  0.12324183  1
  N  N42  1  0.21652371  0.20788084  0.83268620  1
  N  N43  1  0.12259564  0.09039920  0.58099366  1
  N  N44  1  0.88662663  0.20420324  0.38797546  1
  N  N45  1  0.79052908  0.12017695  0.12030013  1
  N  N46  1  0.55735905  0.20181970  0.87977884  1
  N  N47  1  0.44527112  0.10192109  0.62530293  1
  N  N48  1  0.21654246  0.54331482  0.33364951  1
  N  N49  1  0.11119620  0.42804143  0.07697890  1
  N  N50  1  0.88936934  0.53703683  0.83333607  1
  N  N51  1  0.77463637  0.44345327  0.58333623  1
  N  N52  1  0.56149620  0.54310852  0.32421752  1
  N  N53  1  0.44781481  0.41921733  0.12674558  1
  N  N54  1  0.21188797  0.54458824  0.82414518  1
  N  N55  1  0.11004376  0.42803219  0.57529408  1
  N  N56  1  0.89164637  0.53285238  0.32223976  1
  N  N57  1  0.79247984  0.39721651  0.07477531  1
  N  N58  1  0.55400857  0.54225793  0.83726562  1
  N  N59  1  0.45065091  0.42085469  0.62481155  1
  N  N60  1  0.22203764  0.87429399  0.32802780  1
  N  N61  1  0.12737876  0.75439836  0.08122439  1
  N  N62  1  0.88276285  0.87867427  0.89973130  1
  N  N63  1  0.80169767  0.77399384  0.60584346  1
  N  N64  1  0.55855504  0.87306076  0.39036594  1
  N  N65  1  0.45406448  0.77887819  0.08208895  1
  N  N66  1  0.21880031  0.87282527  0.83104741  1
  N  N67  1  0.08101138  0.77969818  0.57819244  1
  N  N68  1  0.89149113  0.87157475  0.30612608  1
  N  N69  1  0.74272112  0.76734460  0.10571741  1
  N  N70  1  0.55644024  0.86601206  0.82725156  1
  N  N71  1  0.43533450  0.75887493  0.58153295  1
