# generated using pymatgen
data_Al11BN12
_symmetry_space_group_name_H-M   'P 1'
_cell_length_a   9.27070870
_cell_length_b   9.32062604
_cell_length_c   10.19530029
_cell_angle_alpha   90.29290942
_cell_angle_beta   89.68166943
_cell_angle_gamma   59.85267094
_symmetry_Int_Tables_number   1
_chemical_formula_structural   Al11BN12
_chemical_formula_sum   'Al33 B3 N36'
_cell_volume   761.75825562
_cell_formula_units_Z   3
loop_
 _symmetry_equiv_pos_site_id
 _symmetry_equiv_pos_as_xyz
  1  'x, y, z'
loop_
 _atom_site_type_symbol
 _atom_site_label
 _atom_site_symmetry_multiplicity
 _atom_site_fract_x
 _atom_site_fract_y
 _atom_site_fract_z
 _atom_site_occupancy
  Al  Al0  1  0.11527209  0.09409964  0.39688395  1
  Al  Al1  1  0.21313642  0.20465666  0.13745439  1
  Al  Al2  1  0.77988614  0.08443606  0.82045692  1
  Al  Al3  1  0.88936789  0.20008534  0.60127085  1
  Al  Al4  1  0.45393499  0.08422894  0.32451908  1
  Al  Al5  1  0.56256445  0.20030283  0.06711904  1
  Al  Al6  1  0.09751701  0.10102309  0.88718887  1
  Al  Al7  1  0.21406242  0.21121403  0.64316671  1
  Al  Al8  1  0.78367608  0.09820982  0.31817429  1
  Al  Al9  1  0.44824903  0.09313331  0.81638530  1
  Al  Al10  1  0.56125332  0.19595658  0.56359133  1
  Al  Al11  1  0.11446010  0.42614016  0.38543780  1
  Al  Al12  1  0.21880728  0.54176727  0.14558035  1
  Al  Al13  1  0.77326823  0.43228677  0.81666318  1
  Al  Al14  1  0.89055408  0.54735537  0.60047957  1
  Al  Al15  1  0.45304971  0.42318076  0.32078717  1
  Al  Al16  1  0.56339394  0.52826827  0.07139464  1
  Al  Al17  1  0.11415846  0.42768556  0.89266705  1
  Al  Al18  1  0.21218693  0.54641359  0.63620809  1
  Al  Al19  1  0.78353791  0.41839499  0.32404202  1
  Al  Al20  1  0.88337806  0.53619134  0.09890799  1
  Al  Al21  1  0.45012467  0.42410573  0.81821379  1
  Al  Al22  1  0.55735676  0.53271049  0.56614887  1
  Al  Al23  1  0.10178162  0.76814795  0.38562534  1
  Al  Al24  1  0.22026838  0.87922734  0.14258409  1
  Al  Al25  1  0.78262274  0.76379407  0.82994001  1
  Al  Al26  1  0.43866649  0.76813500  0.39509893  1
  Al  Al27  1  0.11492851  0.75874114  0.89709440  1
  Al  Al28  1  0.21488492  0.87546518  0.64651292  1
  Al  Al29  1  0.77012560  0.76488828  0.31589524  1
  Al  Al30  1  0.88705774  0.87842797  0.10018961  1
  Al  Al31  1  0.44335774  0.77049028  0.88697116  1
  Al  Al32  1  0.55793293  0.87448229  0.60189931  1
  B  B33  1  0.88611501  0.20676528  0.10559291  1
  B  B34  1  0.89074730  0.87047724  0.60656630  1
  B  B35  1  0.55363623  0.87129011  0.10496588  1
  N  N36  1  0.21896684  0.20564172  0.32430073  1
  N  N37  1  0.07785817  0.11040575  0.08191496  1
  N  N38  1  0.88633773  0.20427723  0.81999657  1
  N  N39  1  0.79153151  0.05666845  0.62430349  1
  N  N40  1  0.55891395  0.20249458  0.37685613  1
  N  N41  1  0.46378458  0.06124791  0.12550344  1
  N  N42  1  0.21399103  0.20850020  0.83412204  1
  N  N43  1  0.12197612  0.08961323  0.58204261  1
  N  N44  1  0.88262568  0.20722107  0.39468555  1
  N  N45  1  0.79096906  0.11706305  0.12394839  1
  N  N46  1  0.55443048  0.20462823  0.88180599  1
  N  N47  1  0.44300552  0.10366866  0.62739071  1
  N  N48  1  0.21949951  0.54335703  0.33474222  1
  N  N49  1  0.11861807  0.42547066  0.08023879  1
  N  N50  1  0.88454057  0.54080950  0.87142125  1
  N  N51  1  0.77334709  0.43987413  0.62719028  1
  N  N52  1  0.55952527  0.53543979  0.37613774  1
  N  N53  1  0.45204265  0.41983520  0.13196818  1
  N  N54  1  0.21374058  0.54432440  0.82432954  1
  N  N55  1  0.11568835  0.42525256  0.57377292  1
  N  N56  1  0.89166391  0.53830722  0.33787266  1
  N  N57  1  0.79337239  0.39411659  0.12700480  1
  N  N58  1  0.55372829  0.53610631  0.88554835  1
  N  N59  1  0.45425794  0.41932252  0.62803368  1
  N  N60  1  0.22103464  0.87551979  0.32849474  1
  N  N61  1  0.12743226  0.75424320  0.08186444  1
  N  N62  1  0.88134117  0.87746959  0.89883160  1
  N  N63  1  0.80348872  0.77328370  0.62819918  1
  N  N64  1  0.56173027  0.87472573  0.39527807  1
  N  N65  1  0.45429963  0.78224098  0.08462914  1
  N  N66  1  0.21804470  0.87450259  0.83376741  1
  N  N67  1  0.08124970  0.77876036  0.58078286  1
  N  N68  1  0.89254845  0.87055756  0.31198374  1
  N  N69  1  0.73950240  0.77368442  0.12103772  1
  N  N70  1  0.55574332  0.86684361  0.82136635  1
  N  N71  1  0.43298124  0.76103880  0.58424289  1
