# generated using pymatgen
data_Al11BN12
_symmetry_space_group_name_H-M   'P 1'
_cell_length_a   9.25608096
_cell_length_b   9.25578188
_cell_length_c   9.89708987
_cell_angle_alpha   89.97050892
_cell_angle_beta   89.96781818
_cell_angle_gamma   60.01829847
_symmetry_Int_Tables_number   1
_chemical_formula_structural   Al11BN12
_chemical_formula_sum   'Al33 B3 N36'
_cell_volume   734.44345650
_cell_formula_units_Z   3
loop_
 _symmetry_equiv_pos_site_id
 _symmetry_equiv_pos_as_xyz
  1  'x, y, z'
loop_
 _atom_site_type_symbol
 _atom_site_label
 _atom_site_symmetry_multiplicity
 _atom_site_fract_x
 _atom_site_fract_y
 _atom_site_fract_z
 _atom_site_occupancy
  Al  Al0  1  0.10602797  0.09678628  0.29367128  1
  Al  Al1  1  0.21984893  0.20267885  0.04805398  1
  Al  Al2  1  0.78177897  0.09066214  0.79999952  1
  Al  Al3  1  0.89050472  0.20000327  0.54957085  1
  Al  Al4  1  0.44733043  0.08865029  0.29326030  1
  Al  Al5  1  0.56251861  0.20196868  0.04785099  1
  Al  Al6  1  0.10836967  0.09554364  0.80465359  1
  Al  Al7  1  0.22323901  0.20333702  0.54838795  1
  Al  Al8  1  0.78159373  0.09411957  0.30027008  1
  Al  Al9  1  0.44583479  0.09215653  0.80520643  1
  Al  Al10  1  0.56023848  0.19827789  0.54819509  1
  Al  Al11  1  0.11110536  0.42770168  0.29775938  1
  Al  Al12  1  0.22071324  0.54103821  0.04721338  1
  Al  Al13  1  0.77903851  0.42483898  0.80432076  1
  Al  Al14  1  0.88885065  0.54288503  0.54833688  1
  Al  Al15  1  0.44431401  0.42752339  0.29825396  1
  Al  Al16  1  0.56073999  0.53680464  0.04813801  1
  Al  Al17  1  0.11061743  0.42784538  0.79771243  1
  Al  Al18  1  0.21725150  0.54218325  0.54804609  1
  Al  Al19  1  0.78069453  0.42245670  0.29387382  1
  Al  Al20  1  0.88458945  0.53899967  0.04796752  1
  Al  Al21  1  0.44476973  0.42789519  0.79739972  1
  Al  Al22  1  0.55693079  0.53937703  0.54784312  1
  Al  Al23  1  0.10824983  0.76263380  0.30524419  1
  Al  Al24  1  0.21864076  0.87673687  0.04837683  1
  Al  Al25  1  0.77780280  0.76504682  0.80073286  1
  Al  Al26  1  0.44724709  0.76415856  0.29394808  1
  Al  Al27  1  0.10544369  0.76421228  0.79360911  1
  Al  Al28  1  0.21850897  0.87457214  0.54869424  1
  Al  Al29  1  0.77389156  0.76523546  0.30038426  1
  Al  Al30  1  0.88509149  0.87795085  0.04954814  1
  Al  Al31  1  0.44577184  0.76221338  0.80535721  1
  Al  Al32  1  0.55974535  0.87350050  0.54989678  1
  B  B33  1  0.88884865  0.20464642  0.04559518  1
  B  B34  1  0.88808480  0.87313669  0.54668349  1
  B  B35  1  0.55616281  0.87279979  0.04498768  1
  N  N36  1  0.22353798  0.20304028  0.35376788  1
  N  N37  1  0.08534453  0.10698966  0.09987162  1
  N  N38  1  0.88801220  0.20431669  0.87761336  1
  N  N39  1  0.79096303  0.06971350  0.60359043  1
  N  N40  1  0.55620618  0.20301313  0.35459019  1
  N  N41  1  0.45689497  0.07002442  0.09893977  1
  N  N42  1  0.22166240  0.20625112  0.85849282  1
  N  N43  1  0.11002923  0.09510791  0.61225402  1
  N  N44  1  0.88938662  0.20567899  0.36144331  1
  N  N45  1  0.79102254  0.10597242  0.10451636  1
  N  N46  1  0.55793562  0.20528872  0.85655209  1
  N  N47  1  0.44470808  0.09311627  0.61241871  1
  N  N48  1  0.22233171  0.53828413  0.35793829  1
  N  N49  1  0.11051846  0.42831082  0.10644634  1
  N  N50  1  0.88782745  0.54090008  0.85664578  1
  N  N51  1  0.77934497  0.42520413  0.61093548  1
  N  N52  1  0.55677528  0.54002848  0.35376494  1
  N  N53  1  0.44379199  0.42789348  0.10663242  1
  N  N54  1  0.22098011  0.54132086  0.85455610  1
  N  N55  1  0.11111893  0.42644002  0.60635396  1
  N  N56  1  0.88698116  0.53968336  0.35473903  1
  N  N57  1  0.79082885  0.40217257  0.09992361  1
  N  N58  1  0.55549294  0.53837630  0.85836766  1
  N  N59  1  0.44503841  0.42684872  0.60511302  1
  N  N60  1  0.22370696  0.87363277  0.35521752  1
  N  N61  1  0.10837718  0.76232402  0.11246958  1
  N  N62  1  0.88949947  0.87214011  0.86185635  1
  N  N63  1  0.78951701  0.77390330  0.60400261  1
  N  N64  1  0.55504830  0.87263748  0.36170349  1
  N  N65  1  0.45631222  0.77399734  0.09940549  1
  N  N66  1  0.22065303  0.87068243  0.85719948  1
  N  N67  1  0.08600213  0.77419255  0.59900076  1
  N  N68  1  0.88678859  0.87343255  0.37680427  1
  N  N69  1  0.75366904  0.77479157  0.10392971  1
  N  N70  1  0.55757576  0.87149158  0.87778180  1
  N  N71  1  0.44563791  0.76207257  0.61144984  1
