# generated using pymatgen
data_Al11BN12
_symmetry_space_group_name_H-M   'P 1'
_cell_length_a   9.28663944
_cell_length_b   9.28313801
_cell_length_c   10.11050562
_cell_angle_alpha   90.02099773
_cell_angle_beta   89.69463363
_cell_angle_gamma   59.84485611
_symmetry_Int_Tables_number   1
_chemical_formula_structural   Al11BN12
_chemical_formula_sum   'Al33 B3 N36'
_cell_volume   753.64525066
_cell_formula_units_Z   3
loop_
 _symmetry_equiv_pos_site_id
 _symmetry_equiv_pos_as_xyz
  1  'x, y, z'
loop_
 _atom_site_type_symbol
 _atom_site_label
 _atom_site_symmetry_multiplicity
 _atom_site_fract_x
 _atom_site_fract_y
 _atom_site_fract_z
 _atom_site_occupancy
  Al  Al0  1  0.11233982  0.09362090  0.40569937  1
  Al  Al1  1  0.22135517  0.20057806  0.14733241  1
  Al  Al2  1  0.78431557  0.08163862  0.82747069  1
  Al  Al3  1  0.89090234  0.20376729  0.61885116  1
  Al  Al4  1  0.44443580  0.08921547  0.37846056  1
  Al  Al5  1  0.56635815  0.19142665  0.07582067  1
  Al  Al6  1  0.10194150  0.09899376  0.89503923  1
  Al  Al7  1  0.21381692  0.21264336  0.65249072  1
  Al  Al8  1  0.78056038  0.10252680  0.32459521  1
  Al  Al9  1  0.44995822  0.09189971  0.83092895  1
  Al  Al10  1  0.56924540  0.19387337  0.57984774  1
  Al  Al11  1  0.10945615  0.42793234  0.40019727  1
  Al  Al12  1  0.22595454  0.53589829  0.15578541  1
  Al  Al13  1  0.78083484  0.42200619  0.89299982  1
  Al  Al14  1  0.89102762  0.54820044  0.65487649  1
  Al  Al15  1  0.44340002  0.43369289  0.40071234  1
  Al  Al16  1  0.56114624  0.53450121  0.14811477  1
  Al  Al17  1  0.11138959  0.42982912  0.90319182  1
  Al  Al18  1  0.21724240  0.54336378  0.64842979  1
  Al  Al19  1  0.77434381  0.43355842  0.40714162  1
  Al  Al20  1  0.88395212  0.53471300  0.15123960  1
  Al  Al21  1  0.44051998  0.43345863  0.89943948  1
  Al  Al22  1  0.55299196  0.54126517  0.65723931  1
  Al  Al23  1  0.10190744  0.76843098  0.39206160  1
  Al  Al24  1  0.22026298  0.87911727  0.15130281  1
  Al  Al25  1  0.76974122  0.76348599  0.90257817  1
  Al  Al26  1  0.44067461  0.75848867  0.40539797  1
  Al  Al27  1  0.11414825  0.75957545  0.90829105  1
  Al  Al28  1  0.21330479  0.87493729  0.65419979  1
  Al  Al29  1  0.78319265  0.76375619  0.39423922  1
  Al  Al30  1  0.88875527  0.87479892  0.11799894  1
  Al  Al31  1  0.44507360  0.76718556  0.89556666  1
  Al  Al32  1  0.56018879  0.86757222  0.61976866  1
  B  B33  1  0.88650871  0.20878564  0.10818154  1
  B  B34  1  0.89157901  0.86876169  0.60909900  1
  B  B35  1  0.55211814  0.87168044  0.10884017  1
  N  N36  1  0.21935778  0.20593861  0.33734542  1
  N  N37  1  0.07888179  0.11077612  0.09086861  1
  N  N38  1  0.88876175  0.20805439  0.82417979  1
  N  N39  1  0.79517254  0.05494042  0.63494320  1
  N  N40  1  0.56152774  0.20047787  0.38755050  1
  N  N41  1  0.46162679  0.05849831  0.11371929  1
  N  N42  1  0.21739180  0.20846480  0.84347384  1
  N  N43  1  0.12191145  0.09045510  0.59261704  1
  N  N44  1  0.88381242  0.20470718  0.39992068  1
  N  N45  1  0.79099724  0.11937875  0.13216429  1
  N  N46  1  0.56152266  0.20012994  0.88430581  1
  N  N47  1  0.44140671  0.10180915  0.62338394  1
  N  N48  1  0.22184686  0.53949144  0.34407980  1
  N  N49  1  0.11142966  0.42861060  0.09203141  1
  N  N50  1  0.88958953  0.54073694  0.84412381  1
  N  N51  1  0.77205494  0.44531809  0.59596431  1
  N  N52  1  0.55647930  0.53917693  0.33562098  1
  N  N53  1  0.44413768  0.42773800  0.09080327  1
  N  N54  1  0.22030990  0.54135740  0.83710466  1
  N  N55  1  0.10981065  0.42994411  0.58869325  1
  N  N56  1  0.88812293  0.53832976  0.33865131  1
  N  N57  1  0.79291999  0.39855488  0.08908432  1
  N  N58  1  0.55468091  0.54075931  0.84596538  1
  N  N59  1  0.44508549  0.43092929  0.59282179  1
  N  N60  1  0.22128510  0.87445846  0.33883574  1
  N  N61  1  0.12649258  0.75363074  0.09515113  1
  N  N62  1  0.88516848  0.87640575  0.90646940  1
  N  N63  1  0.80291214  0.77227325  0.59209293  1
  N  N64  1  0.55733081  0.86751929  0.39758159  1
  N  N65  1  0.45479316  0.77694758  0.09078003  1
  N  N66  1  0.21940487  0.87353615  0.84335533  1
  N  N67  1  0.08196690  0.77774887  0.58982339  1
  N  N68  1  0.88867346  0.86939472  0.32012225  1
  N  N69  1  0.74169839  0.76757730  0.09610822  1
  N  N70  1  0.56225297  0.86227520  0.82236287  1
  N  N71  1  0.43298882  0.75660547  0.59418289  1
