# generated using pymatgen
data_Al11BN12
_symmetry_space_group_name_H-M   'P 1'
_cell_length_a   9.25607537
_cell_length_b   9.25577670
_cell_length_c   9.89710183
_cell_angle_alpha   89.97050628
_cell_angle_beta   89.96781549
_cell_angle_gamma   60.01830468
_symmetry_Int_Tables_number   1
_chemical_formula_structural   Al11BN12
_chemical_formula_sum   'Al33 B3 N36'
_cell_volume   734.44353690
_cell_formula_units_Z   3
loop_
 _symmetry_equiv_pos_site_id
 _symmetry_equiv_pos_as_xyz
  1  'x, y, z'
loop_
 _atom_site_type_symbol
 _atom_site_label
 _atom_site_symmetry_multiplicity
 _atom_site_fract_x
 _atom_site_fract_y
 _atom_site_fract_z
 _atom_site_occupancy
  Al  Al0  1  0.10602802  0.09678517  0.29531600  1
  Al  Al1  1  0.21984802  0.20267830  0.04969857  1
  Al  Al2  1  0.78177832  0.09066153  0.80164251  1
  Al  Al3  1  0.89050445  0.20000235  0.55121409  1
  Al  Al4  1  0.44732918  0.08864999  0.29490459  1
  Al  Al5  1  0.56251822  0.20196784  0.04949621  1
  Al  Al6  1  0.10836844  0.09554261  0.80630180  1
  Al  Al7  1  0.22323859  0.20333546  0.55003542  1
  Al  Al8  1  0.78159298  0.09411826  0.30191339  1
  Al  Al9  1  0.44583469  0.09215498  0.80685423  1
  Al  Al10  1  0.56023734  0.19827700  0.54984078  1
  Al  Al11  1  0.11110455  0.42770009  0.29940579  1
  Al  Al12  1  0.22071195  0.54103788  0.04886200  1
  Al  Al13  1  0.77903855  0.42483728  0.80596916  1
  Al  Al14  1  0.88884979  0.54288356  0.54998245  1
  Al  Al15  1  0.44431404  0.42752233  0.29989955  1
  Al  Al16  1  0.56073915  0.53680374  0.04978266  1
  Al  Al17  1  0.11061682  0.42784499  0.79935843  1
  Al  Al18  1  0.21725146  0.54218152  0.54969074  1
  Al  Al19  1  0.78069317  0.42245646  0.29551902  1
  Al  Al20  1  0.88458891  0.53899907  0.04961279  1
  Al  Al21  1  0.44476826  0.42789421  0.79904712  1
  Al  Al22  1  0.55693033  0.53937598  0.54949178  1
  Al  Al23  1  0.10824855  0.76263343  0.30689248  1
  Al  Al24  1  0.21863980  0.87673520  0.05002225  1
  Al  Al25  1  0.77780181  0.76504573  0.80237548  1
  Al  Al26  1  0.44724641  0.76415691  0.29559358  1
  Al  Al27  1  0.10544379  0.76421040  0.79525307  1
  Al  Al28  1  0.21850894  0.87457156  0.55034013  1
  Al  Al29  1  0.77389115  0.76523458  0.30202773  1
  Al  Al30  1  0.88509134  0.87794969  0.05119017  1
  Al  Al31  1  0.44577129  0.76221288  0.80700522  1
  Al  Al32  1  0.55974414  0.87349991  0.55154000  1
  B  B33  1  0.88884766  0.20464498  0.04724094  1
  B  B34  1  0.88808341  0.87313603  0.54832826  1
  B  B35  1  0.55616299  0.87279842  0.04663352  1
  N  N36  1  0.22353750  0.20303895  0.35541508  1
  N  N37  1  0.08534429  0.10698841  0.10151685  1
  N  N38  1  0.88801120  0.20431522  0.87926049  1
  N  N39  1  0.79096230  0.06971286  0.60523491  1
  N  N40  1  0.55620559  0.20301201  0.35623586  1
  N  N41  1  0.45689409  0.07002388  0.10058495  1
  N  N42  1  0.22166159  0.20625048  0.86013863  1
  N  N43  1  0.11002793  0.09510694  0.61390175  1
  N  N44  1  0.88938604  0.20567793  0.36308735  1
  N  N45  1  0.79102209  0.10597091  0.10616098  1
  N  N46  1  0.55793565  0.20528745  0.85819834  1
  N  N47  1  0.44470801  0.09311463  0.61406613  1
  N  N48  1  0.22233140  0.53828267  0.35958386  1
  N  N49  1  0.11051756  0.42830947  0.10809331  1
  N  N50  1  0.88782682  0.54089963  0.85829191  1
  N  N51  1  0.77934502  0.42520225  0.61258336  1
  N  N52  1  0.55677464  0.54002749  0.35541296  1
  N  N53  1  0.44379175  0.42789251  0.10827871  1
  N  N54  1  0.22097899  0.54132027  0.85620441  1
  N  N55  1  0.11111828  0.42643931  0.60800040  1
  N  N56  1  0.88698010  0.53968270  0.35638489  1
  N  N57  1  0.79082779  0.40217203  0.10156905  1
  N  N58  1  0.55549221  0.53837520  0.86001363  1
  N  N59  1  0.44503732  0.42684759  0.60676055  1
  N  N60  1  0.22370652  0.87363210  0.35686393  1
  N  N61  1  0.10837542  0.76232387  0.11411733  1
  N  N62  1  0.88949887  0.87213905  0.86349934  1
  N  N63  1  0.78951590  0.77390235  0.60564685  1
  N  N64  1  0.55504754  0.87263672  0.36334757  1
  N  N65  1  0.45631162  0.77399589  0.10105131  1
  N  N66  1  0.22065213  0.87068093  0.85884594  1
  N  N67  1  0.08600201  0.77419107  0.60064539  1
  N  N68  1  0.88678711  0.87343203  0.37845014  1
  N  N69  1  0.75366872  0.77479095  0.10557455  1
  N  N70  1  0.55757592  0.87149015  0.87942883  1
  N  N71  1  0.44563755  0.76207214  0.61309762  1
