# generated using pymatgen
data_Al11BN12
_symmetry_space_group_name_H-M   'P 1'
_cell_length_a   9.26685961
_cell_length_b   9.28134677
_cell_length_c   10.21999759
_cell_angle_alpha   90.01172604
_cell_angle_beta   89.70135993
_cell_angle_gamma   59.97403660
_symmetry_Int_Tables_number   1
_chemical_formula_structural   Al11BN12
_chemical_formula_sum   'Al33 B3 N36'
_cell_volume   761.03237881
_cell_formula_units_Z   3
loop_
 _symmetry_equiv_pos_site_id
 _symmetry_equiv_pos_as_xyz
  1  'x, y, z'
loop_
 _atom_site_type_symbol
 _atom_site_label
 _atom_site_symmetry_multiplicity
 _atom_site_fract_x
 _atom_site_fract_y
 _atom_site_fract_z
 _atom_site_occupancy
  Al  Al0  1  0.11569927  0.09354804  0.39526481  1
  Al  Al1  1  0.21395126  0.20355294  0.13504093  1
  Al  Al2  1  0.78046473  0.08489341  0.81756413  1
  Al  Al3  1  0.89076050  0.20192390  0.60694607  1
  Al  Al4  1  0.45471595  0.08330889  0.32173009  1
  Al  Al5  1  0.56231990  0.20136294  0.06453895  1
  Al  Al6  1  0.10143577  0.09858893  0.88187330  1
  Al  Al7  1  0.21737758  0.21049102  0.64092835  1
  Al  Al8  1  0.78437595  0.10146016  0.31304960  1
  Al  Al9  1  0.44986710  0.09115394  0.81517975  1
  Al  Al10  1  0.56245825  0.19870453  0.56244908  1
  Al  Al11  1  0.11110846  0.42653532  0.38807653  1
  Al  Al12  1  0.21642019  0.54099247  0.14337534  1
  Al  Al13  1  0.77857015  0.42215237  0.88215147  1
  Al  Al14  1  0.89535035  0.53955343  0.64221055  1
  Al  Al15  1  0.44955259  0.42199411  0.32140079  1
  Al  Al16  1  0.56332192  0.53895935  0.13535584  1
  Al  Al17  1  0.11024108  0.42897909  0.89030230  1
  Al  Al18  1  0.21132223  0.54683257  0.63371038  1
  Al  Al19  1  0.77673638  0.43232909  0.39567198  1
  Al  Al20  1  0.88745263  0.52608283  0.13507190  1
  Al  Al21  1  0.44443601  0.42116528  0.81954692  1
  Al  Al22  1  0.55766229  0.54590283  0.64542413  1
  Al  Al23  1  0.09980410  0.76938286  0.38453623  1
  Al  Al24  1  0.21850423  0.87937306  0.14241361  1
  Al  Al25  1  0.77885284  0.76799658  0.83137699  1
  Al  Al26  1  0.44174219  0.75846348  0.39522468  1
  Al  Al27  1  0.11425734  0.75907711  0.89667269  1
  Al  Al28  1  0.21542973  0.87511016  0.64370512  1
  Al  Al29  1  0.76950382  0.76536939  0.31569551  1
  Al  Al30  1  0.88638672  0.87749134  0.09947855  1
  Al  Al31  1  0.44365644  0.76663976  0.88983957  1
  Al  Al32  1  0.56278732  0.87449035  0.58929057  1
  B  B33  1  0.88562997  0.20731170  0.09469150  1
  B  B34  1  0.88926464  0.87080130  0.60576710  1
  B  B35  1  0.55502498  0.86847074  0.10027523  1
  N  N36  1  0.22020774  0.20604447  0.32232122  1
  N  N37  1  0.07816029  0.10966571  0.07748238  1
  N  N38  1  0.88706176  0.20855042  0.81260536  1
  N  N39  1  0.79206897  0.05824009  0.62440897  1
  N  N40  1  0.56078478  0.20145034  0.37559907  1
  N  N41  1  0.46496369  0.05893107  0.12410766  1
  N  N42  1  0.21613102  0.20874421  0.83209536  1
  N  N43  1  0.12299712  0.09018946  0.58092116  1
  N  N44  1  0.88669200  0.20375151  0.38784394  1
  N  N45  1  0.79026333  0.11925185  0.11985089  1
  N  N46  1  0.55655086  0.20323897  0.88042197  1
  N  N47  1  0.44661376  0.10114491  0.62631075  1
  N  N48  1  0.21669653  0.54353633  0.33366863  1
  N  N49  1  0.11128706  0.42760944  0.07672192  1
  N  N50  1  0.88992796  0.53550335  0.83142766  1
  N  N51  1  0.77413626  0.44258963  0.58210155  1
  N  N52  1  0.56157832  0.54335608  0.32417689  1
  N  N53  1  0.44751940  0.41924540  0.12731791  1
  N  N54  1  0.21102783  0.54542619  0.82381344  1
  N  N55  1  0.11140905  0.42711217  0.57403138  1
  N  N56  1  0.89244198  0.53198322  0.32242443  1
  N  N57  1  0.79201067  0.39692640  0.07463269  1
  N  N58  1  0.55378241  0.54293911  0.83702839  1
  N  N59  1  0.45067255  0.42089706  0.62544086  1
  N  N60  1  0.22237138  0.87408107  0.32835446  1
  N  N61  1  0.12585230  0.75473365  0.08108662  1
  N  N62  1  0.88122304  0.87824403  0.89898094  1
  N  N63  1  0.80195288  0.77452176  0.62665392  1
  N  N64  1  0.56170089  0.87221532  0.39337354  1
  N  N65  1  0.45329637  0.77839077  0.08276393  1
  N  N66  1  0.21879139  0.87296605  0.83115041  1
  N  N67  1  0.08025145  0.77970549  0.57882543  1
  N  N68  1  0.89114321  0.87157502  0.30859523  1
  N  N69  1  0.74034292  0.76823653  0.11916100  1
  N  N70  1  0.55505613  0.86840184  0.83417215  1
  N  N71  1  0.43572082  0.75885082  0.58158387  1
