# generated using pymatgen
data_Al11BN12
_symmetry_space_group_name_H-M   'P 1'
_cell_length_a   9.29690083
_cell_length_b   9.27870674
_cell_length_c   10.12244435
_cell_angle_alpha   90.13494608
_cell_angle_beta   89.65654255
_cell_angle_gamma   59.87825144
_symmetry_Int_Tables_number   1
_chemical_formula_structural   Al11BN12
_chemical_formula_sum   'Al33 B3 N36'
_cell_volume   755.25118338
_cell_formula_units_Z   3
loop_
 _symmetry_equiv_pos_site_id
 _symmetry_equiv_pos_as_xyz
  1  'x, y, z'
loop_
 _atom_site_type_symbol
 _atom_site_label
 _atom_site_symmetry_multiplicity
 _atom_site_fract_x
 _atom_site_fract_y
 _atom_site_fract_z
 _atom_site_occupancy
  Al  Al0  1  0.11556478  0.09426972  0.39413637  1
  Al  Al1  1  0.21173495  0.20639992  0.13300921  1
  Al  Al2  1  0.78319749  0.08008199  0.81392234  1
  Al  Al3  1  0.89001161  0.20323513  0.60569760  1
  Al  Al4  1  0.45521762  0.08045537  0.31864076  1
  Al  Al5  1  0.56579536  0.19803535  0.06531469  1
  Al  Al6  1  0.10080220  0.09845577  0.88171352  1
  Al  Al7  1  0.21515791  0.21219441  0.64096067  1
  Al  Al8  1  0.78405949  0.10153967  0.31270570  1
  Al  Al9  1  0.45088463  0.09070532  0.81324703  1
  Al  Al10  1  0.56288099  0.19456932  0.56104885  1
  Al  Al11  1  0.11086740  0.42588191  0.38835406  1
  Al  Al12  1  0.22126973  0.53881543  0.14254162  1
  Al  Al13  1  0.78094110  0.42122843  0.88065275  1
  Al  Al14  1  0.89083608  0.54859678  0.64297386  1
  Al  Al15  1  0.44686419  0.42715096  0.35338427  1
  Al  Al16  1  0.56211708  0.53616716  0.13435846  1
  Al  Al17  1  0.10961299  0.42996262  0.89054085  1
  Al  Al18  1  0.21598128  0.54369934  0.63299660  1
  Al  Al19  1  0.77594224  0.43346519  0.39577822  1
  Al  Al20  1  0.88256957  0.53574302  0.14012754  1
  Al  Al21  1  0.44352164  0.42489060  0.85099294  1
  Al  Al22  1  0.55519854  0.54233350  0.64316664  1
  Al  Al23  1  0.10183553  0.76964467  0.38098527  1
  Al  Al24  1  0.21942418  0.88004089  0.13977844  1
  Al  Al25  1  0.76927551  0.76294607  0.89053270  1
  Al  Al26  1  0.44121337  0.75989641  0.39430711  1
  Al  Al27  1  0.11415618  0.75910066  0.89601316  1
  Al  Al28  1  0.21362024  0.87507758  0.64207859  1
  Al  Al29  1  0.78392505  0.76378267  0.38378034  1
  Al  Al30  1  0.88854607  0.87610113  0.10505304  1
  Al  Al31  1  0.44450673  0.76723993  0.88384710  1
  Al  Al32  1  0.55784278  0.87286966  0.60214669  1
  B  B33  1  0.88598213  0.20901004  0.09543872  1
  B  B34  1  0.89022447  0.87016393  0.59640281  1
  B  B35  1  0.55449930  0.86872871  0.09915680  1
  N  N36  1  0.21997704  0.20631944  0.32132930  1
  N  N37  1  0.07777978  0.11070216  0.07754769  1
  N  N38  1  0.88736045  0.20697673  0.81163252  1
  N  N39  1  0.79216097  0.05621290  0.62068705  1
  N  N40  1  0.56149622  0.19777513  0.37110678  1
  N  N41  1  0.46520124  0.05851230  0.12046365  1
  N  N42  1  0.21723280  0.20756862  0.83463886  1
  N  N43  1  0.12205364  0.09086254  0.58104063  1
  N  N44  1  0.88618083  0.20431582  0.38807109  1
  N  N45  1  0.79193212  0.11932119  0.12030849  1
  N  N46  1  0.56130746  0.19701620  0.87788952  1
  N  N47  1  0.44300655  0.10337046  0.62468776  1
  N  N48  1  0.21796505  0.54197774  0.33268738  1
  N  N49  1  0.10759125  0.43198409  0.07856622  1
  N  N50  1  0.88877228  0.54037760  0.83179001  1
  N  N51  1  0.77351608  0.44496162  0.58365755  1
  N  N52  1  0.56005278  0.54194520  0.32344184  1
  N  N53  1  0.44536885  0.42411782  0.10277676  1
  N  N54  1  0.21565981  0.54254958  0.82384015  1
  N  N55  1  0.10933582  0.42901759  0.57619418  1
  N  N56  1  0.88889276  0.53852003  0.32692327  1
  N  N57  1  0.79312096  0.39883877  0.07626042  1
  N  N58  1  0.55553283  0.54106110  0.83488941  1
  N  N59  1  0.44868409  0.42435902  0.60040861  1
  N  N60  1  0.22230071  0.87455182  0.32684880  1
  N  N61  1  0.12588609  0.75517541  0.08234064  1
  N  N62  1  0.88491234  0.87585508  0.89472737  1
  N  N63  1  0.80280150  0.77229545  0.58018335  1
  N  N64  1  0.55626891  0.87259295  0.38894927  1
  N  N65  1  0.45419108  0.77933403  0.07951031  1
  N  N66  1  0.21947197  0.87255846  0.83103911  1
  N  N67  1  0.08114958  0.77902368  0.57751536  1
  N  N68  1  0.88914070  0.86923423  0.30790562  1
  N  N69  1  0.74141481  0.76789392  0.08522329  1
  N  N70  1  0.56209048  0.86144967  0.81446715  1
  N  N71  1  0.43324271  0.75758747  0.58195181  1
