# generated using pymatgen
data_Al11BN12
_symmetry_space_group_name_H-M   'P 1'
_cell_length_a   9.26975785
_cell_length_b   9.29357946
_cell_length_c   10.12412764
_cell_angle_alpha   90.03727949
_cell_angle_beta   89.47883981
_cell_angle_gamma   59.93033493
_symmetry_Int_Tables_number   1
_chemical_formula_structural   Al11BN12
_chemical_formula_sum   'Al33 B3 N36'
_cell_volume   754.75937982
_cell_formula_units_Z   3
loop_
 _symmetry_equiv_pos_site_id
 _symmetry_equiv_pos_as_xyz
  1  'x, y, z'
loop_
 _atom_site_type_symbol
 _atom_site_label
 _atom_site_symmetry_multiplicity
 _atom_site_fract_x
 _atom_site_fract_y
 _atom_site_fract_z
 _atom_site_occupancy
  Al  Al0  1  0.11818725  0.09280084  0.39693523  1
  Al  Al1  1  0.21770203  0.20122655  0.13154670  1
  Al  Al2  1  0.78029895  0.08699321  0.82097439  1
  Al  Al3  1  0.89009443  0.20159577  0.60067252  1
  Al  Al4  1  0.45562707  0.08447111  0.31558649  1
  Al  Al5  1  0.56442601  0.20316021  0.06885560  1
  Al  Al6  1  0.09700217  0.10189289  0.89068133  1
  Al  Al7  1  0.22381098  0.19820924  0.64878816  1
  Al  Al8  1  0.78233366  0.09877739  0.32117895  1
  Al  Al9  1  0.45128804  0.08889528  0.83608970  1
  Al  Al10  1  0.56139207  0.19416770  0.56956646  1
  Al  Al11  1  0.10891829  0.43488617  0.31988401  1
  Al  Al12  1  0.22920617  0.53115385  0.07143807  1
  Al  Al13  1  0.77479904  0.43207500  0.81307423  1
  Al  Al14  1  0.89136364  0.54585881  0.56920421  1
  Al  Al15  1  0.44471837  0.42718522  0.32268020  1
  Al  Al16  1  0.56010075  0.53709253  0.07264895  1
  Al  Al17  1  0.10584189  0.43601288  0.82419339  1
  Al  Al18  1  0.22139025  0.53473414  0.57405672  1
  Al  Al19  1  0.78355280  0.42025650  0.32836539  1
  Al  Al20  1  0.88419263  0.53595433  0.06858673  1
  Al  Al21  1  0.44733954  0.42663447  0.81932988  1
  Al  Al22  1  0.55499176  0.54265288  0.56739880  1
  Al  Al23  1  0.09825051  0.77153780  0.38486200  1
  Al  Al24  1  0.21247435  0.88212840  0.14106587  1
  Al  Al25  1  0.77737719  0.76541068  0.83452958  1
  Al  Al26  1  0.45193608  0.76154624  0.31796523  1
  Al  Al27  1  0.10923630  0.76722254  0.89811099  1
  Al  Al28  1  0.21022921  0.87518161  0.64631361  1
  Al  Al29  1  0.77073838  0.76060104  0.31034557  1
  Al  Al30  1  0.88461963  0.87688138  0.10278217  1
  Al  Al31  1  0.44824095  0.76032587  0.83074013  1
  Al  Al32  1  0.56016637  0.87257458  0.57483354  1
  B  B33  1  0.88492475  0.21061296  0.10941725  1
  B  B34  1  0.88650801  0.87059622  0.61218254  1
  B  B35  1  0.55827104  0.86644508  0.06736204  1
  N  N36  1  0.22245207  0.20159733  0.32494774  1
  N  N37  1  0.07567210  0.11316720  0.08356118  1
  N  N38  1  0.88875450  0.20504262  0.81960406  1
  N  N39  1  0.79109089  0.05743229  0.62554899  1
  N  N40  1  0.55717639  0.20240685  0.38021674  1
  N  N41  1  0.46564133  0.06618228  0.12089364  1
  N  N42  1  0.21839572  0.20451595  0.84480346  1
  N  N43  1  0.12470531  0.08733658  0.58219194  1
  N  N44  1  0.88408956  0.20642514  0.39548973  1
  N  N45  1  0.79052773  0.11958457  0.12630576  1
  N  N46  1  0.55805797  0.20682639  0.88250606  1
  N  N47  1  0.45482798  0.08761842  0.64186222  1
  N  N48  1  0.22415506  0.53666985  0.38508799  1
  N  N49  1  0.10531256  0.43653397  0.12882770  1
  N  N50  1  0.88472954  0.53960622  0.88185581  1
  N  N51  1  0.77393608  0.44072653  0.62519693  1
  N  N52  1  0.55495983  0.54105603  0.37777313  1
  N  N53  1  0.44705334  0.42515696  0.13432018  1
  N  N54  1  0.22600641  0.53484819  0.87861282  1
  N  N55  1  0.10898475  0.42973806  0.63322723  1
  N  N56  1  0.88732663  0.54263686  0.37986404  1
  N  N57  1  0.79345387  0.39960109  0.13130556  1
  N  N58  1  0.55609849  0.53760467  0.88530916  1
  N  N59  1  0.44962318  0.42395494  0.62949905  1
  N  N60  1  0.21780402  0.87488732  0.33026520  1
  N  N61  1  0.11996922  0.75989558  0.08589072  1
  N  N62  1  0.87893561  0.87881390  0.89684719  1
  N  N63  1  0.79359225  0.77360973  0.63495421  1
  N  N64  1  0.55687209  0.87127420  0.38826229  1
  N  N65  1  0.45767441  0.77366349  0.12371131  1
  N  N66  1  0.21331013  0.87800441  0.83491691  1
  N  N67  1  0.07611487  0.77937522  0.58531862  1
  N  N68  1  0.88882510  0.87017841  0.31469718  1
  N  N69  1  0.74719710  0.76546268  0.12085689  1
  N  N70  1  0.55445725  0.87032284  0.90342979  1
  N  N71  1  0.44979907  0.75918693  0.63707844  1
