# generated using pymatgen
data_Al11BN12
_symmetry_space_group_name_H-M   'P 1'
_cell_length_a   9.28346803
_cell_length_b   9.27365607
_cell_length_c   10.08145703
_cell_angle_alpha   90.02091868
_cell_angle_beta   89.76425915
_cell_angle_gamma   59.84603085
_symmetry_Int_Tables_number   1
_chemical_formula_structural   Al11BN12
_chemical_formula_sum   'Al33 B3 N36'
_cell_volume   750.47092925
_cell_formula_units_Z   3
loop_
 _symmetry_equiv_pos_site_id
 _symmetry_equiv_pos_as_xyz
  1  'x, y, z'
loop_
 _atom_site_type_symbol
 _atom_site_label
 _atom_site_symmetry_multiplicity
 _atom_site_fract_x
 _atom_site_fract_y
 _atom_site_fract_z
 _atom_site_occupancy
  Al  Al0  1  0.11246331  0.08801652  0.39661374  1
  Al  Al1  1  0.22328954  0.20563079  0.07546861  1
  Al  Al2  1  0.77694415  0.08863205  0.81986379  1
  Al  Al3  1  0.88936844  0.20165540  0.60281846  1
  Al  Al4  1  0.44862711  0.08891278  0.31786428  1
  Al  Al5  1  0.56266774  0.20342815  0.07211902  1
  Al  Al6  1  0.09579206  0.09814223  0.88897925  1
  Al  Al7  1  0.23068688  0.20765284  0.57292205  1
  Al  Al8  1  0.78194530  0.09488834  0.32842678  1
  Al  Al9  1  0.44476977  0.09160970  0.83020209  1
  Al  Al10  1  0.56038035  0.19733813  0.56985635  1
  Al  Al11  1  0.11165936  0.42929425  0.32228047  1
  Al  Al12  1  0.22419109  0.53652688  0.06915651  1
  Al  Al13  1  0.77590458  0.43134301  0.81425977  1
  Al  Al14  1  0.89051502  0.54669914  0.56937088  1
  Al  Al15  1  0.44355267  0.42886734  0.32319973  1
  Al  Al16  1  0.56242689  0.53393988  0.07306399  1
  Al  Al17  1  0.11089146  0.42376995  0.82145179  1
  Al  Al18  1  0.21566485  0.54611598  0.57322914  1
  Al  Al19  1  0.78207167  0.42150559  0.32955893  1
  Al  Al20  1  0.88645972  0.53456009  0.07265331  1
  Al  Al21  1  0.44684626  0.42604940  0.82080499  1
  Al  Al22  1  0.55397031  0.54433704  0.56861265  1
  Al  Al23  1  0.10591553  0.76011146  0.31903921  1
  Al  Al24  1  0.21684807  0.88322365  0.13194088  1
  Al  Al25  1  0.77692432  0.76275448  0.83339127  1
  Al  Al26  1  0.45352811  0.76280250  0.31663692  1
  Al  Al27  1  0.10168353  0.75881519  0.83374221  1
  Al  Al28  1  0.21635740  0.87847131  0.64951340  1
  Al  Al29  1  0.77297867  0.76485898  0.31693618  1
  Al  Al30  1  0.88451119  0.87792407  0.08208785  1
  Al  Al31  1  0.45142120  0.75865251  0.83540656  1
  Al  Al32  1  0.56050296  0.87371530  0.57531711  1
  B  B33  1  0.88637652  0.20728777  0.11275981  1
  B  B34  1  0.88595342  0.87073443  0.61065353  1
  B  B35  1  0.55915465  0.86774639  0.06864722  1
  N  N36  1  0.22755672  0.20783874  0.37897060  1
  N  N37  1  0.07366230  0.11315926  0.08564678  1
  N  N38  1  0.88822239  0.20385678  0.82004063  1
  N  N39  1  0.78777167  0.05956245  0.62702203  1
  N  N40  1  0.55495321  0.20483919  0.38007972  1
  N  N41  1  0.45892389  0.06933285  0.12559617  1
  N  N42  1  0.22275998  0.20496611  0.88607533  1
  N  N43  1  0.12147465  0.08780760  0.58608079  1
  N  N44  1  0.88139037  0.20825455  0.39608757  1
  N  N45  1  0.79161632  0.11341770  0.12999871  1
  N  N46  1  0.55686013  0.20463662  0.88360890  1
  N  N47  1  0.44723888  0.09337459  0.63990922  1
  N  N48  1  0.22155609  0.54179869  0.38496156  1
  N  N49  1  0.11081079  0.42886699  0.13333788  1
  N  N50  1  0.88848618  0.53660139  0.88376065  1
  N  N51  1  0.77359513  0.44148210  0.62606340  1
  N  N52  1  0.55394162  0.54268274  0.37821272  1
  N  N53  1  0.44453302  0.42745809  0.13329999  1
  N  N54  1  0.22355451  0.53425319  0.88050361  1
  N  N55  1  0.11131301  0.42839494  0.63284592  1
  N  N56  1  0.88784143  0.54180721  0.37911030  1
  N  N57  1  0.79343462  0.39773265  0.13251794  1
  N  N58  1  0.55844795  0.53453974  0.88584371  1
  N  N59  1  0.44633938  0.42770620  0.63035410  1
  N  N60  1  0.22205932  0.87723296  0.32500973  1
  N  N61  1  0.11150024  0.75607422  0.12482415  1
  N  N62  1  0.88366826  0.87535045  0.89387621  1
  N  N63  1  0.79098232  0.77407967  0.63643528  1
  N  N64  1  0.55624201  0.87257979  0.38846772  1
  N  N65  1  0.46273167  0.77085334  0.12103871  1
  N  N66  1  0.21860748  0.87319020  0.84459963  1
  N  N67  1  0.07827531  0.77457594  0.63541232  1
  N  N68  1  0.88571175  0.87172765  0.36048416  1
  N  N69  1  0.75129858  0.77016039  0.12370752  1
  N  N70  1  0.55642495  0.87213879  0.90410594  1
  N  N71  1  0.45210272  0.76034774  0.64054820  1
