# generated using pymatgen
data_Al11BN12
_symmetry_space_group_name_H-M   'P 1'
_cell_length_a   9.29311194
_cell_length_b   9.27691992
_cell_length_c   10.12063772
_cell_angle_alpha   90.14027518
_cell_angle_beta   89.65818952
_cell_angle_gamma   59.88682864
_symmetry_Int_Tables_number   1
_chemical_formula_structural   Al11BN12
_chemical_formula_sum   'Al33 B3 N36'
_cell_volume   754.72853567
_cell_formula_units_Z   3
loop_
 _symmetry_equiv_pos_site_id
 _symmetry_equiv_pos_as_xyz
  1  'x, y, z'
loop_
 _atom_site_type_symbol
 _atom_site_label
 _atom_site_symmetry_multiplicity
 _atom_site_fract_x
 _atom_site_fract_y
 _atom_site_fract_z
 _atom_site_occupancy
  Al  Al0  1  0.11553257  0.09425734  0.39409964  1
  Al  Al1  1  0.21159773  0.20647119  0.13296984  1
  Al  Al2  1  0.78304602  0.08023277  0.81386294  1
  Al  Al3  1  0.89006196  0.20330272  0.60563397  1
  Al  Al4  1  0.45517470  0.08060552  0.31854147  1
  Al  Al5  1  0.56662646  0.19626343  0.06542317  1
  Al  Al6  1  0.10084386  0.09843431  0.88168150  1
  Al  Al7  1  0.21503131  0.21229575  0.64094030  1
  Al  Al8  1  0.78372452  0.10180843  0.31260089  1
  Al  Al9  1  0.45094350  0.09098742  0.81314574  1
  Al  Al10  1  0.56380858  0.19290647  0.56076747  1
  Al  Al11  1  0.11101978  0.42589570  0.38808172  1
  Al  Al12  1  0.22280072  0.53817377  0.14276021  1
  Al  Al13  1  0.78082596  0.42125082  0.88030321  1
  Al  Al14  1  0.89074177  0.54860254  0.64284017  1
  Al  Al15  1  0.44564746  0.42982337  0.37092067  1
  Al  Al16  1  0.56154757  0.53551581  0.13473755  1
  Al  Al17  1  0.10979190  0.42996410  0.89031438  1
  Al  Al18  1  0.21711875  0.54305583  0.63326886  1
  Al  Al19  1  0.77575956  0.43348007  0.39555511  1
  Al  Al20  1  0.88260342  0.53577164  0.14000005  1
  Al  Al21  1  0.44195712  0.42785981  0.86963275  1
  Al  Al22  1  0.55424341  0.54149580  0.64320937  1
  Al  Al23  1  0.10195707  0.76942491  0.38068959  1
  Al  Al24  1  0.21945393  0.87999410  0.13967948  1
  Al  Al25  1  0.76923795  0.76303018  0.89047254  1
  Al  Al26  1  0.44126040  0.75986625  0.39405248  1
  Al  Al27  1  0.11414052  0.75905180  0.89575176  1
  Al  Al28  1  0.21364874  0.87502880  0.64198455  1
  Al  Al29  1  0.78388921  0.76385494  0.38374772  1
  Al  Al30  1  0.88879156  0.87583066  0.10512214  1
  Al  Al31  1  0.44463675  0.76709077  0.88350629  1
  Al  Al32  1  0.55779492  0.87265988  0.60228326  1
  B  B33  1  0.88596777  0.20910888  0.09535957  1
  B  B34  1  0.89041727  0.86995412  0.59633744  1
  B  B35  1  0.55451338  0.86855171  0.09909121  1
  N  N36  1  0.21987874  0.20628665  0.32127169  1
  N  N37  1  0.07773131  0.11070970  0.07752196  1
  N  N38  1  0.88748825  0.20692100  0.81156325  1
  N  N39  1  0.79233539  0.05613322  0.62058110  1
  N  N40  1  0.56140995  0.19770193  0.36997425  1
  N  N41  1  0.46507086  0.05845347  0.12037800  1
  N  N42  1  0.21722961  0.20756408  0.83459200  1
  N  N43  1  0.12208963  0.09082801  0.58100698  1
  N  N44  1  0.88612995  0.20434605  0.38804316  1
  N  N45  1  0.79183851  0.11942799  0.12031846  1
  N  N46  1  0.56177803  0.19642784  0.87725944  1
  N  N47  1  0.44291062  0.10345434  0.62463776  1
  N  N48  1  0.21944240  0.54113922  0.33175971  1
  N  N49  1  0.10786355  0.43205502  0.07853890  1
  N  N50  1  0.88882181  0.54043309  0.83173232  1
  N  N51  1  0.77310684  0.44504877  0.58364413  1
  N  N52  1  0.55909688  0.54106379  0.32283224  1
  N  N53  1  0.44405363  0.42664602  0.08930781  1
  N  N54  1  0.21761815  0.54157695  0.82325667  1
  N  N55  1  0.10942239  0.42914421  0.57614221  1
  N  N56  1  0.88882037  0.53857525  0.32686599  1
  N  N57  1  0.79293929  0.39892891  0.07621440  1
  N  N58  1  0.55504063  0.54041404  0.83372807  1
  N  N59  1  0.44746881  0.42683781  0.58707604  1
  N  N60  1  0.22227584  0.87458603  0.32677781  1
  N  N61  1  0.12597298  0.75498708  0.08229865  1
  N  N62  1  0.88505242  0.87575584  0.89457582  1
  N  N63  1  0.80272731  0.77233245  0.58014126  1
  N  N64  1  0.55623103  0.87255812  0.38881285  1
  N  N65  1  0.45429774  0.77909562  0.07938414  1
  N  N66  1  0.21948309  0.87256686  0.83099108  1
  N  N67  1  0.08129408  0.77876371  0.57743680  1
  N  N68  1  0.88920508  0.86921021  0.30783966  1
  N  N69  1  0.74144318  0.76796039  0.08517442  1
  N  N70  1  0.56206785  0.86148231  0.81432256  1
  N  N71  1  0.43333873  0.75737749  0.58191592  1
