# generated using pymatgen
data_Al11BN12
_symmetry_space_group_name_H-M   'P 1'
_cell_length_a   9.29078147
_cell_length_b   9.29699142
_cell_length_c   10.06763626
_cell_angle_alpha   89.97612342
_cell_angle_beta   89.66158664
_cell_angle_gamma   59.81427090
_symmetry_Int_Tables_number   1
_chemical_formula_structural   Al11BN12
_chemical_formula_sum   'Al33 B3 N36'
_cell_volume   751.67051055
_cell_formula_units_Z   3
loop_
 _symmetry_equiv_pos_site_id
 _symmetry_equiv_pos_as_xyz
  1  'x, y, z'
loop_
 _atom_site_type_symbol
 _atom_site_label
 _atom_site_symmetry_multiplicity
 _atom_site_fract_x
 _atom_site_fract_y
 _atom_site_fract_z
 _atom_site_occupancy
  Al  Al0  1  0.11267779  0.08662640  0.39891024  1
  Al  Al1  1  0.22417865  0.20554682  0.07475528  1
  Al  Al2  1  0.77909868  0.08696650  0.82286942  1
  Al  Al3  1  0.88933807  0.20123746  0.60506509  1
  Al  Al4  1  0.44908182  0.08825262  0.31798633  1
  Al  Al5  1  0.56388959  0.20326226  0.06965925  1
  Al  Al6  1  0.09569013  0.10210319  0.88682587  1
  Al  Al7  1  0.23048840  0.20629585  0.57472651  1
  Al  Al8  1  0.78008006  0.09940605  0.32308814  1
  Al  Al9  1  0.44555822  0.09171396  0.82990646  1
  Al  Al10  1  0.56143757  0.19600416  0.57138604  1
  Al  Al11  1  0.11144897  0.42687358  0.32319933  1
  Al  Al12  1  0.23103701  0.52596608  0.07322542  1
  Al  Al13  1  0.77529466  0.43271273  0.81388884  1
  Al  Al14  1  0.89039725  0.54749494  0.57123878  1
  Al  Al15  1  0.44598997  0.42635589  0.32397228  1
  Al  Al16  1  0.56250283  0.53454566  0.07295483  1
  Al  Al17  1  0.11173994  0.42679566  0.82072332  1
  Al  Al18  1  0.21371435  0.54806291  0.57222561  1
  Al  Al19  1  0.78283127  0.42094782  0.33031171  1
  Al  Al20  1  0.88638274  0.53318144  0.07069404  1
  Al  Al21  1  0.44616931  0.42722398  0.81967368  1
  Al  Al22  1  0.55283604  0.54495222  0.56898397  1
  Al  Al23  1  0.10847632  0.75910239  0.32267544  1
  Al  Al24  1  0.21808671  0.88716867  0.13113218  1
  Al  Al25  1  0.77957081  0.76384889  0.83617563  1
  Al  Al26  1  0.45303987  0.76222166  0.31637993  1
  Al  Al27  1  0.10869705  0.76402734  0.89673285  1
  Al  Al28  1  0.20847222  0.87478853  0.65204464  1
  Al  Al29  1  0.76915867  0.76046374  0.31205396  1
  Al  Al30  1  0.87859488  0.87992261  0.10212904  1
  Al  Al31  1  0.45082397  0.75959986  0.83332787  1
  Al  Al32  1  0.55959066  0.87294029  0.57681112  1
  B  B33  1  0.88541248  0.21064220  0.11073301  1
  B  B34  1  0.89031677  0.86869956  0.61817759  1
  B  B35  1  0.55960670  0.86377118  0.06637662  1
  N  N36  1  0.22780455  0.20594159  0.37989819  1
  N  N37  1  0.07366717  0.11546402  0.08448871  1
  N  N38  1  0.88733767  0.20543223  0.81972066  1
  N  N39  1  0.78874976  0.05829478  0.62830507  1
  N  N40  1  0.55645624  0.20273921  0.38098883  1
  N  N41  1  0.45987872  0.06967492  0.12536955  1
  N  N42  1  0.22315771  0.20724660  0.88513835  1
  N  N43  1  0.12190529  0.08586113  0.58836513  1
  N  N44  1  0.88166016  0.20683793  0.39645846  1
  N  N45  1  0.78959189  0.12070716  0.12652855  1
  N  N46  1  0.55649173  0.20579917  0.88180592  1
  N  N47  1  0.44748926  0.09258686  0.63973850  1
  N  N48  1  0.22207284  0.53982225  0.38080551  1
  N  N49  1  0.11000108  0.42813644  0.13456883  1
  N  N50  1  0.88945985  0.53637034  0.88239875  1
  N  N51  1  0.77287719  0.44201319  0.62554466  1
  N  N52  1  0.55392465  0.54248570  0.37797613  1
  N  N53  1  0.44837371  0.42480414  0.13476081  1
  N  N54  1  0.22571145  0.53246448  0.88363213  1
  N  N55  1  0.11203724  0.42815103  0.63206542  1
  N  N56  1  0.88792491  0.54199925  0.38043681  1
  N  N57  1  0.79351629  0.39976301  0.13260427  1
  N  N58  1  0.55741005  0.53594655  0.88547428  1
  N  N59  1  0.44535272  0.42784140  0.62895712  1
  N  N60  1  0.22016146  0.87733445  0.32242991  1
  N  N61  1  0.12008904  0.75577504  0.10264687  1
  N  N62  1  0.87968303  0.87864727  0.90294741  1
  N  N63  1  0.79138069  0.77442679  0.63779251  1
  N  N64  1  0.55609254  0.87170637  0.38883014  1
  N  N65  1  0.46062661  0.77183954  0.12048984  1
  N  N66  1  0.21700054  0.87569936  0.84579670  1
  N  N67  1  0.07508355  0.77792608  0.61199031  1
  N  N68  1  0.88374025  0.87222527  0.31372490  1
  N  N69  1  0.74695019  0.76388579  0.12089937  1
  N  N70  1  0.55578802  0.87205002  0.90279321  1
  N  N71  1  0.44797457  0.76107057  0.63989439  1
