# generated using pymatgen
data_Al11BN12
_symmetry_space_group_name_H-M   'P 1'
_cell_length_a   9.27506121
_cell_length_b   9.28510233
_cell_length_c   10.19921477
_cell_angle_alpha   90.06081889
_cell_angle_beta   89.67465036
_cell_angle_gamma   59.94711286
_symmetry_Int_Tables_number   1
_chemical_formula_structural   Al11BN12
_chemical_formula_sum   'Al33 B3 N36'
_cell_volume   760.25228082
_cell_formula_units_Z   3
loop_
 _symmetry_equiv_pos_site_id
 _symmetry_equiv_pos_as_xyz
  1  'x, y, z'
loop_
 _atom_site_type_symbol
 _atom_site_label
 _atom_site_symmetry_multiplicity
 _atom_site_fract_x
 _atom_site_fract_y
 _atom_site_fract_z
 _atom_site_occupancy
  Al  Al0  1  0.11564739  0.09374300  0.39516326  1
  Al  Al1  1  0.21400838  0.20373538  0.13480439  1
  Al  Al2  1  0.78077919  0.08383167  0.81640013  1
  Al  Al3  1  0.89048481  0.20201974  0.60649587  1
  Al  Al4  1  0.45428692  0.08355818  0.32181016  1
  Al  Al5  1  0.56297810  0.20112683  0.06449720  1
  Al  Al6  1  0.10130413  0.09839662  0.88192146  1
  Al  Al7  1  0.21668324  0.21089404  0.64079761  1
  Al  Al8  1  0.78417401  0.10197045  0.31334874  1
  Al  Al9  1  0.44980020  0.09118037  0.81446273  1
  Al  Al10  1  0.56232287  0.19841773  0.56227186  1
  Al  Al11  1  0.11088175  0.42683329  0.38844425  1
  Al  Al12  1  0.21686419  0.54084648  0.14322245  1
  Al  Al13  1  0.77875071  0.42128503  0.88170204  1
  Al  Al14  1  0.89384706  0.54262330  0.64232062  1
  Al  Al15  1  0.44951684  0.42212101  0.32151665  1
  Al  Al16  1  0.56360458  0.53877990  0.13504120  1
  Al  Al17  1  0.11087857  0.42848525  0.89036674  1
  Al  Al18  1  0.21120117  0.54698824  0.63354275  1
  Al  Al19  1  0.77648035  0.43274866  0.39602721  1
  Al  Al20  1  0.88752400  0.52634344  0.13521231  1
  Al  Al21  1  0.44477546  0.42059522  0.81945769  1
  Al  Al22  1  0.55741235  0.54582034  0.64501013  1
  Al  Al23  1  0.10011718  0.76937994  0.38450509  1
  Al  Al24  1  0.21903060  0.87949621  0.14221525  1
  Al  Al25  1  0.77743124  0.76627257  0.84385751  1
  Al  Al26  1  0.44148605  0.75877134  0.39516417  1
  Al  Al27  1  0.11469796  0.75873071  0.89664514  1
  Al  Al28  1  0.21495862  0.87510976  0.64331743  1
  Al  Al29  1  0.77026019  0.76542212  0.31914641  1
  Al  Al30  1  0.88767145  0.87797541  0.10104341  1
  Al  Al31  1  0.44338709  0.76649418  0.88901104  1
  Al  Al32  1  0.56288767  0.87401029  0.59138203  1
  B  B33  1  0.88580554  0.20762656  0.09493857  1
  B  B34  1  0.88833443  0.87022806  0.60415196  1
  B  B35  1  0.55525547  0.86861170  0.10092799  1
  N  N36  1  0.21992117  0.20639920  0.32232842  1
  N  N37  1  0.07827630  0.10979519  0.07771379  1
  N  N38  1  0.88723580  0.20770716  0.81255856  1
  N  N39  1  0.79166610  0.05827387  0.62367933  1
  N  N40  1  0.56064933  0.20144716  0.37513655  1
  N  N41  1  0.46525929  0.05891054  0.12367801  1
  N  N42  1  0.21628118  0.20823304  0.83250964  1
  N  N43  1  0.12273437  0.09027353  0.58100400  1
  N  N44  1  0.88659444  0.20409408  0.38814585  1
  N  N45  1  0.79049778  0.11975322  0.12016317  1
  N  N46  1  0.55703328  0.20234639  0.88002504  1
  N  N47  1  0.44567076  0.10176411  0.62565986  1
  N  N48  1  0.21670720  0.54343262  0.33373022  1
  N  N49  1  0.11137912  0.42780712  0.07694614  1
  N  N50  1  0.88997904  0.53557975  0.83243928  1
  N  N51  1  0.77425572  0.44304140  0.58280153  1
  N  N52  1  0.56153263  0.54331444  0.32420950  1
  N  N53  1  0.44776251  0.41928230  0.12686632  1
  N  N54  1  0.21148228  0.54493286  0.82408228  1
  N  N55  1  0.11072910  0.42758911  0.57468839  1
  N  N56  1  0.89213667  0.53242859  0.32257708  1
  N  N57  1  0.79236609  0.39701704  0.07471971  1
  N  N58  1  0.55392727  0.54245294  0.83717175  1
  N  N59  1  0.45058844  0.42085144  0.62505676  1
  N  N60  1  0.22226544  0.87421387  0.32824180  1
  N  N61  1  0.12671273  0.75460196  0.08128090  1
  N  N62  1  0.88187814  0.87847408  0.89973689  1
  N  N63  1  0.80161119  0.77442990  0.62011026  1
  N  N64  1  0.56049221  0.87261325  0.39246370  1
  N  N65  1  0.45392406  0.77865595  0.08237177  1
  N  N66  1  0.21876898  0.87280936  0.83119017  1
  N  N67  1  0.08041680  0.77968434  0.57862478  1
  N  N68  1  0.89137512  0.87170285  0.30779997  1
  N  N69  1  0.74128662  0.76812063  0.11588949  1
  N  N70  1  0.55488611  0.86737717  0.82992931  1
  N  N71  1  0.43531997  0.75881159  0.58161281  1
