# generated using pymatgen
data_Al11BN12
_symmetry_space_group_name_H-M   'P 1'
_cell_length_a   9.27528569
_cell_length_b   9.28491544
_cell_length_c   9.93630252
_cell_angle_alpha   90.00437244
_cell_angle_beta   89.85213185
_cell_angle_gamma   59.96164403
_symmetry_Int_Tables_number   1
_chemical_formula_structural   Al11BN12
_chemical_formula_sum   'Al33 B3 N36'
_cell_volume   740.78249616
_cell_formula_units_Z   3
loop_
 _symmetry_equiv_pos_site_id
 _symmetry_equiv_pos_as_xyz
  1  'x, y, z'
loop_
 _atom_site_type_symbol
 _atom_site_label
 _atom_site_symmetry_multiplicity
 _atom_site_fract_x
 _atom_site_fract_y
 _atom_site_fract_z
 _atom_site_occupancy
  Al  Al0  1  0.10801034  0.09635224  0.36286811  1
  Al  Al1  1  0.21694464  0.20284202  0.06427928  1
  Al  Al2  1  0.77784372  0.08637116  0.80443384  1
  Al  Al3  1  0.88628671  0.20377775  0.59170855  1
  Al  Al4  1  0.44798365  0.08797205  0.30688156  1
  Al  Al5  1  0.56387811  0.20228927  0.06369105  1
  Al  Al6  1  0.10865177  0.09488297  0.81919429  1
  Al  Al7  1  0.22940201  0.20725948  0.56608746  1
  Al  Al8  1  0.78224184  0.09339229  0.32565241  1
  Al  Al9  1  0.44617309  0.09177197  0.82180462  1
  Al  Al10  1  0.55937687  0.19788602  0.56065163  1
  Al  Al11  1  0.11213692  0.42847398  0.31129016  1
  Al  Al12  1  0.22140180  0.54038469  0.06123404  1
  Al  Al13  1  0.77534370  0.43178581  0.80720433  1
  Al  Al14  1  0.88995286  0.54679709  0.55988043  1
  Al  Al15  1  0.44400495  0.42759433  0.31245488  1
  Al  Al16  1  0.56230399  0.53420896  0.06391126  1
  Al  Al17  1  0.10990111  0.42820450  0.81362492  1
  Al  Al18  1  0.21829761  0.54239438  0.56360887  1
  Al  Al19  1  0.78059867  0.42304941  0.31887980  1
  Al  Al20  1  0.88551986  0.53646844  0.06397440  1
  Al  Al21  1  0.44697515  0.42644820  0.81272213  1
  Al  Al22  1  0.55481887  0.54270654  0.55966054  1
  Al  Al23  1  0.10843889  0.76108599  0.31949036  1
  Al  Al24  1  0.21556114  0.87863366  0.06516959  1
  Al  Al25  1  0.77824109  0.76397081  0.81633736  1
  Al  Al26  1  0.44717415  0.76456545  0.30727030  1
  Al  Al27  1  0.10488402  0.76406880  0.80941187  1
  Al  Al28  1  0.22335484  0.86595663  0.56654837  1
  Al  Al29  1  0.77320199  0.76555612  0.31368864  1
  Al  Al30  1  0.88584134  0.87876502  0.06523694  1
  Al  Al31  1  0.44590971  0.76152903  0.82184416  1
  Al  Al32  1  0.55961230  0.87318248  0.56567392  1
  B  B33  1  0.89260877  0.20262166  0.10798547  1
  B  B34  1  0.88368783  0.87349246  0.56011948  1
  B  B35  1  0.55617463  0.87246616  0.05923858  1
  N  N36  1  0.22720381  0.20706675  0.37096046  1
  N  N37  1  0.07787621  0.11036174  0.10610954  1
  N  N38  1  0.88362366  0.20580540  0.81668978  1
  N  N39  1  0.78646274  0.06252530  0.61109589  1
  N  N40  1  0.55428408  0.20358954  0.36834732  1
  N  N41  1  0.45676407  0.06974141  0.11350315  1
  N  N42  1  0.22102957  0.20592580  0.87326204  1
  N  N43  1  0.12044665  0.09082604  0.60563494  1
  N  N44  1  0.88260523  0.20936785  0.38918369  1
  N  N45  1  0.79365011  0.10777008  0.12683576  1
  N  N46  1  0.55864822  0.20400245  0.87333664  1
  N  N47  1  0.44743374  0.09259766  0.62962899  1
  N  N48  1  0.22278451  0.53798694  0.37338503  1
  N  N49  1  0.11115821  0.42809997  0.12095936  1
  N  N50  1  0.88688945  0.54001126  0.87333110  1
  N  N51  1  0.77351636  0.44177279  0.61622114  1
  N  N52  1  0.55389756  0.54198739  0.36685898  1
  N  N53  1  0.44395441  0.42746139  0.12144668  1
  N  N54  1  0.22177005  0.54064733  0.86964342  1
  N  N55  1  0.11094010  0.42874320  0.62283917  1
  N  N56  1  0.88881898  0.54106199  0.36733017  1
  N  N57  1  0.79337539  0.39661510  0.12207242  1
  N  N58  1  0.55683170  0.53767906  0.87482464  1
  N  N59  1  0.44742221  0.42595668  0.62006025  1
  N  N60  1  0.22672799  0.86648833  0.37224731  1
  N  N61  1  0.10846328  0.76128681  0.12739816  1
  N  N62  1  0.88816620  0.87315288  0.87791246  1
  N  N63  1  0.78959897  0.77368309  0.61889053  1
  N  N64  1  0.55434265  0.87280246  0.37701267  1
  N  N65  1  0.45621077  0.77376078  0.11380766  1
  N  N66  1  0.22011655  0.87080131  0.87246909  1
  N  N67  1  0.08650591  0.77289363  0.61577265  1
  N  N68  1  0.88783258  0.87007626  0.39051738  1
  N  N69  1  0.75342718  0.77471610  0.11823869  1
  N  N70  1  0.55754260  0.87105573  0.89300307  1
  N  N71  1  0.44639204  0.76164427  0.62865162  1
