# generated using pymatgen
data_Al11BN12
_symmetry_space_group_name_H-M   'P 1'
_cell_length_a   9.26662174
_cell_length_b   9.31087570
_cell_length_c   10.20214319
_cell_angle_alpha   90.29859093
_cell_angle_beta   89.69138215
_cell_angle_gamma   59.84911127
_symmetry_Int_Tables_number   1
_chemical_formula_structural   Al11BN12
_chemical_formula_sum   'Al33 B3 N36'
_cell_volume   761.10955082
_cell_formula_units_Z   3
loop_
 _symmetry_equiv_pos_site_id
 _symmetry_equiv_pos_as_xyz
  1  'x, y, z'
loop_
 _atom_site_type_symbol
 _atom_site_label
 _atom_site_symmetry_multiplicity
 _atom_site_fract_x
 _atom_site_fract_y
 _atom_site_fract_z
 _atom_site_occupancy
  Al  Al0  1  0.11506096  0.09409185  0.39719666  1
  Al  Al1  1  0.21264391  0.20510357  0.13758259  1
  Al  Al2  1  0.77986833  0.08431553  0.82054092  1
  Al  Al3  1  0.88914921  0.20085509  0.60179815  1
  Al  Al4  1  0.45424962  0.08391388  0.32447530  1
  Al  Al5  1  0.56261561  0.20024776  0.06706618  1
  Al  Al6  1  0.09733126  0.10098313  0.88719073  1
  Al  Al7  1  0.21360009  0.21191040  0.64330442  1
  Al  Al8  1  0.78362882  0.09825862  0.31837241  1
  Al  Al9  1  0.44862260  0.09268507  0.81630392  1
  Al  Al10  1  0.56115099  0.19593846  0.56375668  1
  Al  Al11  1  0.11848077  0.42409092  0.38629120  1
  Al  Al12  1  0.21851898  0.54191647  0.14568223  1
  Al  Al13  1  0.77403534  0.43346336  0.81554418  1
  Al  Al14  1  0.88662945  0.54930963  0.57397264  1
  Al  Al15  1  0.45339797  0.42323778  0.32075299  1
  Al  Al16  1  0.56311953  0.52832427  0.07180635  1
  Al  Al17  1  0.11587580  0.42686330  0.89269015  1
  Al  Al18  1  0.21144192  0.54620088  0.63656811  1
  Al  Al19  1  0.78415277  0.41936891  0.32405194  1
  Al  Al20  1  0.87943963  0.53786863  0.07799957  1
  Al  Al21  1  0.45043657  0.42408112  0.81813932  1
  Al  Al22  1  0.55792863  0.53244506  0.56657867  1
  Al  Al23  1  0.10168084  0.76831700  0.38577957  1
  Al  Al24  1  0.22025899  0.87927995  0.14271908  1
  Al  Al25  1  0.78417717  0.76148591  0.82719193  1
  Al  Al26  1  0.43864674  0.76817196  0.39534296  1
  Al  Al27  1  0.11470940  0.75897444  0.89726875  1
  Al  Al28  1  0.21482608  0.87543488  0.64646733  1
  Al  Al29  1  0.77065412  0.76353346  0.31572321  1
  Al  Al30  1  0.88721833  0.87816177  0.10060748  1
  Al  Al31  1  0.44340662  0.77039530  0.88694494  1
  Al  Al32  1  0.55811761  0.87424883  0.60241148  1
  B  B33  1  0.88647596  0.20714068  0.10625457  1
  B  B34  1  0.89075331  0.86985933  0.60693026  1
  B  B35  1  0.55375258  0.87081290  0.10566253  1
  N  N36  1  0.21898877  0.20528791  0.32393874  1
  N  N37  1  0.07778344  0.11060351  0.08191049  1
  N  N38  1  0.88609834  0.20478652  0.82005032  1
  N  N39  1  0.79155749  0.05639687  0.62451592  1
  N  N40  1  0.55878978  0.20253814  0.37698867  1
  N  N41  1  0.46428034  0.06083347  0.12556633  1
  N  N42  1  0.21396493  0.20839012  0.83433036  1
  N  N43  1  0.12186908  0.08970488  0.58213693  1
  N  N44  1  0.88243738  0.20753192  0.39458326  1
  N  N45  1  0.79101749  0.11764544  0.12397381  1
  N  N46  1  0.55434587  0.20459284  0.88198403  1
  N  N47  1  0.44301815  0.10349525  0.62767819  1
  N  N48  1  0.21970186  0.54358131  0.33434997  1
  N  N49  1  0.11764723  0.42609225  0.08152370  1
  N  N50  1  0.88208732  0.54130489  0.88359860  1
  N  N51  1  0.77424065  0.44158244  0.62817065  1
  N  N52  1  0.55973591  0.53539224  0.37621436  1
  N  N53  1  0.45203533  0.41975935  0.13206675  1
  N  N54  1  0.21354460  0.54444509  0.82457629  1
  N  N55  1  0.11696325  0.42459627  0.57444272  1
  N  N56  1  0.88811462  0.54098567  0.36199653  1
  N  N57  1  0.79435512  0.39586139  0.12885721  1
  N  N58  1  0.55423889  0.53583132  0.88585382  1
  N  N59  1  0.45437716  0.41939363  0.62833943  1
  N  N60  1  0.22101514  0.87555704  0.32846373  1
  N  N61  1  0.12746447  0.75440096  0.08182036  1
  N  N62  1  0.88099112  0.87678433  0.89881747  1
  N  N63  1  0.80463774  0.77105040  0.62886514  1
  N  N64  1  0.56182420  0.87470408  0.39518958  1
  N  N65  1  0.45431157  0.78219156  0.08469004  1
  N  N66  1  0.21803178  0.87446569  0.83374606  1
  N  N67  1  0.08124602  0.77866820  0.58072751  1
  N  N68  1  0.89257198  0.87025280  0.31161776  1
  N  N69  1  0.74040858  0.77151980  0.12304756  1
  N  N70  1  0.55648210  0.86608825  0.82143133  1
  N  N71  1  0.43289877  0.76108912  0.58425353  1
