# generated using pymatgen
data_Al11BN12
_symmetry_space_group_name_H-M   'P 1'
_cell_length_a   9.27374840
_cell_length_b   9.28937789
_cell_length_c   10.09957856
_cell_angle_alpha   89.98953752
_cell_angle_beta   89.60288727
_cell_angle_gamma   59.83295626
_symmetry_Int_Tables_number   1
_chemical_formula_structural   Al11BN12
_chemical_formula_sum   'Al33 B3 N36'
_cell_volume   752.19205158
_cell_formula_units_Z   3
loop_
 _symmetry_equiv_pos_site_id
 _symmetry_equiv_pos_as_xyz
  1  'x, y, z'
loop_
 _atom_site_type_symbol
 _atom_site_label
 _atom_site_symmetry_multiplicity
 _atom_site_fract_x
 _atom_site_fract_y
 _atom_site_fract_z
 _atom_site_occupancy
  Al  Al0  1  0.11227452  0.08991919  0.39812230  1
  Al  Al1  1  0.22411001  0.20405650  0.07406230  1
  Al  Al2  1  0.77887048  0.08631282  0.82248244  1
  Al  Al3  1  0.88972069  0.20242857  0.60553045  1
  Al  Al4  1  0.44936291  0.08872897  0.31747307  1
  Al  Al5  1  0.56385499  0.20235453  0.06918753  1
  Al  Al6  1  0.09558837  0.09931322  0.88669721  1
  Al  Al7  1  0.23136931  0.20648802  0.57364368  1
  Al  Al8  1  0.77983816  0.10011959  0.32108054  1
  Al  Al9  1  0.44517998  0.09113711  0.82937278  1
  Al  Al10  1  0.56229149  0.19594456  0.57013536  1
  Al  Al11  1  0.11224677  0.42885274  0.32222826  1
  Al  Al12  1  0.22954883  0.52856578  0.07353292  1
  Al  Al13  1  0.77479343  0.43294104  0.81424974  1
  Al  Al14  1  0.89122360  0.54698751  0.57036164  1
  Al  Al15  1  0.44484387  0.42796308  0.32276566  1
  Al  Al16  1  0.56105159  0.53579786  0.07310507  1
  Al  Al17  1  0.11162796  0.42526306  0.82137114  1
  Al  Al18  1  0.22000507  0.53895167  0.57356499  1
  Al  Al19  1  0.78288882  0.42146880  0.32926017  1
  Al  Al20  1  0.88662326  0.53321330  0.07058808  1
  Al  Al21  1  0.44650233  0.42634794  0.82055926  1
  Al  Al22  1  0.55434047  0.54432863  0.56823887  1
  Al  Al23  1  0.09880942  0.77109236  0.37930170  1
  Al  Al24  1  0.21266840  0.88354775  0.13886654  1
  Al  Al25  1  0.77895615  0.76383015  0.83657207  1
  Al  Al26  1  0.45231512  0.76260569  0.31730870  1
  Al  Al27  1  0.10978188  0.76393048  0.89999830  1
  Al  Al28  1  0.21021530  0.87585181  0.64806759  1
  Al  Al29  1  0.77013296  0.76093938  0.31109596  1
  Al  Al30  1  0.88452886  0.87682649  0.10387474  1
  Al  Al31  1  0.44917876  0.75974116  0.83190911  1
  Al  Al32  1  0.56019581  0.87318176  0.57553836  1
  B  B33  1  0.88569282  0.20980564  0.11057110  1
  B  B34  1  0.88681768  0.87114134  0.61289385  1
  B  B35  1  0.55790069  0.86493027  0.06753321  1
  N  N36  1  0.22830862  0.20763729  0.38022282  1
  N  N37  1  0.07431499  0.11295755  0.08499959  1
  N  N38  1  0.88682628  0.20540491  0.81885263  1
  N  N39  1  0.79005378  0.05793998  0.62693796  1
  N  N40  1  0.55659170  0.20352415  0.38053848  1
  N  N41  1  0.45963617  0.06915349  0.12538217  1
  N  N42  1  0.22260806  0.20546357  0.88499327  1
  N  N43  1  0.12170476  0.08749656  0.58691911  1
  N  N44  1  0.88113021  0.20758986  0.39598888  1
  N  N45  1  0.78969674  0.11963241  0.12609783  1
  N  N46  1  0.55639622  0.20489324  0.88173018  1
  N  N47  1  0.44831729  0.09259193  0.63923148  1
  N  N48  1  0.22386570  0.53794230  0.38391521  1
  N  N49  1  0.11064680  0.42728524  0.13424145  1
  N  N50  1  0.88894717  0.53633274  0.88256567  1
  N  N51  1  0.77353509  0.44245626  0.62610731  1
  N  N52  1  0.55420614  0.54255398  0.37816728  1
  N  N53  1  0.44807304  0.42439073  0.13427757  1
  N  N54  1  0.22547974  0.53129341  0.88094868  1
  N  N55  1  0.11195359  0.42748194  0.63328036  1
  N  N56  1  0.88832533  0.54243667  0.38030777  1
  N  N57  1  0.79344509  0.39946682  0.13227208  1
  N  N58  1  0.55650728  0.53662864  0.88576900  1
  N  N59  1  0.44838768  0.42620174  0.63017477  1
  N  N60  1  0.21813542  0.87617098  0.32814570  1
  N  N61  1  0.12065880  0.75743508  0.08901066  1
  N  N62  1  0.87971675  0.87802575  0.89868789  1
  N  N63  1  0.79339189  0.77446686  0.63633210  1
  N  N64  1  0.55657732  0.87218753  0.38844565  1
  N  N65  1  0.45818163  0.77297490  0.12253666  1
  N  N66  1  0.21425870  0.87496117  0.83721850  1
  N  N67  1  0.07565442  0.78053793  0.58565994  1
  N  N68  1  0.88710485  0.87141737  0.31424244  1
  N  N69  1  0.74727240  0.76454711  0.12091837  1
  N  N70  1  0.55428131  0.87168074  0.90276370  1
  N  N71  1  0.44959128  0.76062548  0.63825866  1
