# generated using pymatgen
data_Al11BN12
_symmetry_space_group_name_H-M   'P 1'
_cell_length_a   9.25607650
_cell_length_b   9.25577779
_cell_length_c   9.89710098
_cell_angle_alpha   89.97050149
_cell_angle_beta   89.96780808
_cell_angle_gamma   60.01828893
_symmetry_Int_Tables_number   1
_chemical_formula_structural   Al11BN12
_chemical_formula_sum   'Al33 B3 N36'
_cell_volume   734.44353227
_cell_formula_units_Z   3
loop_
 _symmetry_equiv_pos_site_id
 _symmetry_equiv_pos_as_xyz
  1  'x, y, z'
loop_
 _atom_site_type_symbol
 _atom_site_label
 _atom_site_symmetry_multiplicity
 _atom_site_fract_x
 _atom_site_fract_y
 _atom_site_fract_z
 _atom_site_occupancy
  Al  Al0  1  0.10602507  0.09677966  0.30381640  1
  Al  Al1  1  0.21984498  0.20267278  0.05819864  1
  Al  Al2  1  0.78177534  0.09065602  0.81014250  1
  Al  Al3  1  0.89050146  0.19999685  0.55971433  1
  Al  Al4  1  0.44732614  0.08864452  0.30340486  1
  Al  Al5  1  0.56251525  0.20196233  0.05799631  1
  Al  Al6  1  0.10836542  0.09553707  0.81480226  1
  Al  Al7  1  0.22323560  0.20332990  0.55853573  1
  Al  Al8  1  0.78158998  0.09411275  0.31041347  1
  Al  Al9  1  0.44583173  0.09214945  0.81535460  1
  Al  Al10  1  0.56023430  0.19827150  0.55834091  1
  Al  Al11  1  0.11110154  0.42769452  0.30790590  1
  Al  Al12  1  0.22070891  0.54103239  0.05736230  1
  Al  Al13  1  0.77903560  0.42483172  0.81446970  1
  Al  Al14  1  0.88884679  0.54287803  0.55848263  1
  Al  Al15  1  0.44431111  0.42751682  0.30839958  1
  Al  Al16  1  0.56073614  0.53679826  0.05828276  1
  Al  Al17  1  0.11061385  0.42783953  0.80785849  1
  Al  Al18  1  0.21724848  0.54217597  0.55819068  1
  Al  Al19  1  0.78069011  0.42245103  0.30401941  1
  Al  Al20  1  0.88458591  0.53899356  0.05811292  1
  Al  Al21  1  0.44476521  0.42788871  0.80754730  1
  Al  Al22  1  0.55692736  0.53937045  0.55799222  1
  Al  Al23  1  0.10824553  0.76262797  0.31539281  1
  Al  Al24  1  0.21863679  0.87672969  0.05852252  1
  Al  Al25  1  0.77779881  0.76504023  0.81087555  1
  Al  Al26  1  0.44724342  0.76415136  0.30409403  1
  Al  Al27  1  0.10544087  0.76420481  0.80375335  1
  Al  Al28  1  0.21850594  0.87456605  0.55884043  1
  Al  Al29  1  0.77388816  0.76522909  0.31052781  1
  Al  Al30  1  0.88508836  0.87794422  0.05969027  1
  Al  Al31  1  0.44576829  0.76220741  0.81550564  1
  Al  Al32  1  0.55974113  0.87349443  0.56004026  1
  B  B33  1  0.88884463  0.20463944  0.05574128  1
  B  B34  1  0.88808040  0.87313053  0.55682849  1
  B  B35  1  0.55616002  0.87279291  0.05513385  1
  N  N36  1  0.22353449  0.20303343  0.36391547  1
  N  N37  1  0.08534130  0.10698292  0.11001720  1
  N  N38  1  0.88800818  0.20430965  0.88776091  1
  N  N39  1  0.79095931  0.06970734  0.61373509  1
  N  N40  1  0.55620257  0.20300651  0.36473602  1
  N  N41  1  0.45689109  0.07001838  0.10908522  1
  N  N42  1  0.22165854  0.20624501  0.86863873  1
  N  N43  1  0.11002490  0.09510142  0.62240215  1
  N  N44  1  0.88938300  0.20567243  0.37158749  1
  N  N45  1  0.79101911  0.10596541  0.11466122  1
  N  N46  1  0.55793268  0.20528194  0.86669850  1
  N  N47  1  0.44470506  0.09310912  0.62256653  1
  N  N48  1  0.22232841  0.53827709  0.36808383  1
  N  N49  1  0.11051455  0.42830391  0.11659348  1
  N  N50  1  0.88782385  0.54089414  0.86679206  1
  N  N51  1  0.77934206  0.42519671  0.62108388  1
  N  N52  1  0.55677160  0.54002195  0.36391338  1
  N  N53  1  0.44378879  0.42788703  0.11677885  1
  N  N54  1  0.22097598  0.54131470  0.86470471  1
  N  N55  1  0.11111530  0.42643384  0.61650049  1
  N  N56  1  0.88697708  0.53967719  0.36488513  1
  N  N57  1  0.79082476  0.40216657  0.11006939  1
  N  N58  1  0.55548916  0.53836966  0.86851374  1
  N  N59  1  0.44503427  0.42684209  0.61526077  1
  N  N60  1  0.22370352  0.87362659  0.36536430  1
  N  N61  1  0.10837238  0.76231842  0.12261761  1
  N  N62  1  0.88949587  0.87213353  0.87199939  1
  N  N63  1  0.78951293  0.77389687  0.61414699  1
  N  N64  1  0.55504454  0.87263121  0.37184773  1
  N  N65  1  0.45630866  0.77399038  0.10955170  1
  N  N66  1  0.22064912  0.87067535  0.86734627  1
  N  N67  1  0.08599904  0.77418551  0.60914569  1
  N  N68  1  0.88678409  0.87342653  0.38695038  1
  N  N69  1  0.75366572  0.77478548  0.11407478  1
  N  N70  1  0.55757294  0.87148462  0.88792918  1
  N  N71  1  0.44563459  0.76206667  0.62159807  1
