# generated using pymatgen
data_Al11BN12
_symmetry_space_group_name_H-M   'P 1'
_cell_length_a   9.27990220
_cell_length_b   9.29670358
_cell_length_c   10.00792510
_cell_angle_alpha   89.93898094
_cell_angle_beta   89.67045129
_cell_angle_gamma   59.88600722
_symmetry_Int_Tables_number   1
_chemical_formula_structural   Al11BN12
_chemical_formula_sum   'Al33 B3 N36'
_cell_volume   746.85949877
_cell_formula_units_Z   3
loop_
 _symmetry_equiv_pos_site_id
 _symmetry_equiv_pos_as_xyz
  1  'x, y, z'
loop_
 _atom_site_type_symbol
 _atom_site_label
 _atom_site_symmetry_multiplicity
 _atom_site_fract_x
 _atom_site_fract_y
 _atom_site_fract_z
 _atom_site_occupancy
  Al  Al0  1  0.11313566  0.09398409  0.40741163  1
  Al  Al1  1  0.21694933  0.20405487  0.14797184  1
  Al  Al2  1  0.78005122  0.08221561  0.83059216  1
  Al  Al3  1  0.89196348  0.20223706  0.61994626  1
  Al  Al4  1  0.44236473  0.08982310  0.38538382  1
  Al  Al5  1  0.56305010  0.20194109  0.10441125  1
  Al  Al6  1  0.10263948  0.09734893  0.89222871  1
  Al  Al7  1  0.22730625  0.20396603  0.65371299  1
  Al  Al8  1  0.78477313  0.10099771  0.32637299  1
  Al  Al9  1  0.44672228  0.08589540  0.90465350  1
  Al  Al10  1  0.56527476  0.19413123  0.58727522  1
  Al  Al11  1  0.11008999  0.42652297  0.40098815  1
  Al  Al12  1  0.22328917  0.53863856  0.15529714  1
  Al  Al13  1  0.78062502  0.42145610  0.89127323  1
  Al  Al14  1  0.89089290  0.54750132  0.65216424  1
  Al  Al15  1  0.44413413  0.43241530  0.39629440  1
  Al  Al16  1  0.56136128  0.53682952  0.14868246  1
  Al  Al17  1  0.11143177  0.42975933  0.90066230  1
  Al  Al18  1  0.21687521  0.54253934  0.64827330  1
  Al  Al19  1  0.77554422  0.43164827  0.40793473  1
  Al  Al20  1  0.88559342  0.53384690  0.15122080  1
  Al  Al21  1  0.44244101  0.43061120  0.89987900  1
  Al  Al22  1  0.55395574  0.54331927  0.65399784  1
  Al  Al23  1  0.10192561  0.76739908  0.39272561  1
  Al  Al24  1  0.21954255  0.87900556  0.15219895  1
  Al  Al25  1  0.76941629  0.76210323  0.91078332  1
  Al  Al26  1  0.44457262  0.76187084  0.39440133  1
  Al  Al27  1  0.11407722  0.75940543  0.90664441  1
  Al  Al28  1  0.21818545  0.87327125  0.65131737  1
  Al  Al29  1  0.77749617  0.76573331  0.38316021  1
  Al  Al30  1  0.88895726  0.87455855  0.11754304  1
  Al  Al31  1  0.44564073  0.76528943  0.90463110  1
  Al  Al32  1  0.56002844  0.87336752  0.64626864  1
  B  B33  1  0.88800537  0.20860992  0.10683656  1
  B  B34  1  0.88713674  0.87015548  0.60558428  1
  B  B35  1  0.55562100  0.86606121  0.15478904  1
  N  N36  1  0.21755845  0.20629623  0.33623269  1
  N  N37  1  0.07981998  0.11055463  0.08970951  1
  N  N38  1  0.88790524  0.20639920  0.82419614  1
  N  N39  1  0.79249041  0.05420656  0.63269976  1
  N  N40  1  0.55803712  0.20402249  0.36430976  1
  N  N41  1  0.45496291  0.06646953  0.10002178  1
  N  N42  1  0.22402633  0.20454053  0.84526697  1
  N  N43  1  0.12360241  0.09007675  0.59605283  1
  N  N44  1  0.88502180  0.20381001  0.40338680  1
  N  N45  1  0.79473105  0.11864824  0.13195780  1
  N  N46  1  0.55780388  0.20236039  0.88006164  1
  N  N47  1  0.44280039  0.08917256  0.58058456  1
  N  N48  1  0.22047515  0.54012291  0.34481588  1
  N  N49  1  0.11116464  0.42962978  0.09097279  1
  N  N50  1  0.88795336  0.54248849  0.84325371  1
  N  N51  1  0.77356607  0.44271758  0.59741799  1
  N  N52  1  0.55838037  0.53873694  0.33721045  1
  N  N53  1  0.44231904  0.43315743  0.09276007  1
  N  N54  1  0.22123645  0.54125157  0.83740377  1
  N  N55  1  0.11273142  0.42578306  0.59138427  1
  N  N56  1  0.88835799  0.53710173  0.34047872  1
  N  N57  1  0.79367081  0.39837204  0.08881562  1
  N  N58  1  0.55349495  0.54272429  0.84498026  1
  N  N59  1  0.44565666  0.43016539  0.59041032  1
  N  N60  1  0.21982657  0.87503059  0.34151946  1
  N  N61  1  0.12525835  0.75522299  0.09520230  1
  N  N62  1  0.88495710  0.87487849  0.90550294  1
  N  N63  1  0.79246655  0.77539994  0.58447650  1
  N  N64  1  0.55404413  0.86984052  0.31972900  1
  N  N65  1  0.45410544  0.77458098  0.09817698  1
  N  N66  1  0.22300188  0.87077038  0.84226464  1
  N  N67  1  0.07963579  0.77701174  0.59098228  1
  N  N68  1  0.88931312  0.87029134  0.32186443  1
  N  N69  1  0.74628039  0.76502295  0.10174226  1
  N  N70  1  0.55700145  0.87067060  0.83400125  1
  N  N71  1  0.44401524  0.76206481  0.58653181  1
