# generated using pymatgen
data_Al11BN12
_symmetry_space_group_name_H-M   'P 1'
_cell_length_a   9.26825513
_cell_length_b   9.26846813
_cell_length_c   10.03201022
_cell_angle_alpha   89.93258232
_cell_angle_beta   89.61770918
_cell_angle_gamma   59.94037587
_symmetry_Int_Tables_number   1
_chemical_formula_structural   Al11BN12
_chemical_formula_sum   'Al33 B3 N36'
_cell_volume   745.85133095
_cell_formula_units_Z   3
loop_
 _symmetry_equiv_pos_site_id
 _symmetry_equiv_pos_as_xyz
  1  'x, y, z'
loop_
 _atom_site_type_symbol
 _atom_site_label
 _atom_site_symmetry_multiplicity
 _atom_site_fract_x
 _atom_site_fract_y
 _atom_site_fract_z
 _atom_site_occupancy
  Al  Al0  1  0.11286603  0.09569595  0.40277270  1
  Al  Al1  1  0.21789593  0.20385692  0.14931739  1
  Al  Al2  1  0.78443663  0.07993336  0.83861394  1
  Al  Al3  1  0.89238978  0.20218440  0.63552618  1
  Al  Al4  1  0.44629118  0.09243644  0.39055378  1
  Al  Al5  1  0.55460890  0.20562750  0.14391561  1
  Al  Al6  1  0.10442241  0.09642732  0.89814601  1
  Al  Al7  1  0.22466187  0.20418859  0.65215644  1
  Al  Al8  1  0.78754275  0.09845485  0.32449708  1
  Al  Al9  1  0.44710495  0.08811235  0.90371717  1
  Al  Al10  1  0.55407394  0.20027854  0.64553490  1
  Al  Al11  1  0.11084127  0.42698153  0.40074430  1
  Al  Al12  1  0.22412621  0.53773481  0.15446157  1
  Al  Al13  1  0.77957134  0.42203557  0.89722110  1
  Al  Al14  1  0.88946916  0.54645558  0.65073443  1
  Al  Al15  1  0.44738611  0.42642400  0.39985867  1
  Al  Al16  1  0.56050510  0.53567141  0.14907850  1
  Al  Al17  1  0.11003326  0.42957536  0.90042621  1
  Al  Al18  1  0.21489793  0.54403656  0.64801354  1
  Al  Al19  1  0.77711696  0.42986085  0.40339537  1
  Al  Al20  1  0.88510448  0.53438238  0.15309079  1
  Al  Al21  1  0.44338945  0.42741276  0.89828160  1
  Al  Al22  1  0.55454729  0.54209065  0.65254443  1
  Al  Al23  1  0.10423606  0.76593163  0.39270280  1
  Al  Al24  1  0.22025460  0.87853969  0.15345299  1
  Al  Al25  1  0.76852823  0.76040889  0.91050392  1
  Al  Al26  1  0.44565324  0.76186868  0.39383747  1
  Al  Al27  1  0.11551695  0.75794853  0.90653136  1
  Al  Al28  1  0.21732100  0.87415535  0.64980340  1
  Al  Al29  1  0.77758857  0.76725903  0.38419193  1
  Al  Al30  1  0.88828690  0.87464308  0.11580046  1
  Al  Al31  1  0.44528931  0.76498487  0.90407906  1
  Al  Al32  1  0.56010210  0.87423673  0.64624103  1
  B  B33  1  0.88703599  0.20797274  0.11779364  1
  B  B34  1  0.88670216  0.87311871  0.60563412  1
  B  B35  1  0.55666054  0.86618152  0.15392856  1
  N  N36  1  0.22244153  0.20605679  0.33727734  1
  N  N37  1  0.08108486  0.10958460  0.09242902  1
  N  N38  1  0.88905893  0.20619283  0.83006077  1
  N  N39  1  0.79450168  0.05665395  0.63265127  1
  N  N40  1  0.55437138  0.20669760  0.33590878  1
  N  N41  1  0.45583894  0.06949098  0.09571573  1
  N  N42  1  0.22323365  0.20401346  0.84415151  1
  N  N43  1  0.11798699  0.09245580  0.59181360  1
  N  N44  1  0.89217443  0.20907254  0.36729212  1
  N  N45  1  0.79118058  0.11661643  0.12485568  1
  N  N46  1  0.55074662  0.20535683  0.83889172  1
  N  N47  1  0.44431539  0.09294771  0.58210467  1
  N  N48  1  0.22342918  0.53856080  0.34423369  1
  N  N49  1  0.11009884  0.42983755  0.09067547  1
  N  N50  1  0.88656321  0.54109691  0.84198713  1
  N  N51  1  0.77547819  0.43542597  0.59364149  1
  N  N52  1  0.55706789  0.53817323  0.33765162  1
  N  N53  1  0.44401793  0.42781635  0.08751765  1
  N  N54  1  0.22097190  0.54039405  0.83692924  1
  N  N55  1  0.11137095  0.42642809  0.59096804  1
  N  N56  1  0.88870499  0.53952523  0.34149637  1
  N  N57  1  0.79266495  0.39923814  0.09172530  1
  N  N58  1  0.55430124  0.54126786  0.84399333  1
  N  N59  1  0.44512882  0.42826850  0.59068360  1
  N  N60  1  0.22168875  0.87403150  0.34191044  1
  N  N61  1  0.12608951  0.75478189  0.09455965  1
  N  N62  1  0.88612192  0.87104061  0.90525376  1
  N  N63  1  0.79175786  0.77670784  0.58501130  1
  N  N64  1  0.55419643  0.87219618  0.31968725  1
  N  N65  1  0.45435490  0.77439058  0.09782903  1
  N  N66  1  0.22239270  0.87149027  0.84100269  1
  N  N67  1  0.07990253  0.77724878  0.59028678  1
  N  N68  1  0.89157982  0.86919084  0.32183056  1
  N  N69  1  0.74611578  0.76506269  0.10127964  1
  N  N70  1  0.55646836  0.87122276  0.83383921  1
  N  N71  1  0.44487572  0.76245903  0.58625623  1
