# generated using pymatgen
data_Al11BN12
_symmetry_space_group_name_H-M   'P 1'
_cell_length_a   9.28720329
_cell_length_b   9.31772753
_cell_length_c   10.10576125
_cell_angle_alpha   90.01496012
_cell_angle_beta   89.43438540
_cell_angle_gamma   59.82226806
_symmetry_Int_Tables_number   1
_chemical_formula_structural   Al11BN12
_chemical_formula_sum   'Al33 B3 N36'
_cell_volume   755.93585744
_cell_formula_units_Z   3
loop_
 _symmetry_equiv_pos_site_id
 _symmetry_equiv_pos_as_xyz
  1  'x, y, z'
loop_
 _atom_site_type_symbol
 _atom_site_label
 _atom_site_symmetry_multiplicity
 _atom_site_fract_x
 _atom_site_fract_y
 _atom_site_fract_z
 _atom_site_occupancy
  Al  Al0  1  0.11751153  0.09103343  0.39630355  1
  Al  Al1  1  0.21735791  0.20202826  0.12882706  1
  Al  Al2  1  0.78141655  0.08554847  0.82076299  1
  Al  Al3  1  0.88954017  0.20213813  0.60032048  1
  Al  Al4  1  0.45565063  0.08377693  0.31419762  1
  Al  Al5  1  0.56289668  0.20469792  0.06829257  1
  Al  Al6  1  0.09644715  0.10026368  0.89015411  1
  Al  Al7  1  0.22302664  0.19944460  0.64688043  1
  Al  Al8  1  0.78313475  0.09754921  0.32062519  1
  Al  Al9  1  0.45193033  0.08805073  0.83513933  1
  Al  Al10  1  0.56036718  0.19452734  0.56910882  1
  Al  Al11  1  0.10747193  0.42806176  0.33083212  1
  Al  Al12  1  0.22102542  0.54549545  0.14271855  1
  Al  Al13  1  0.77499623  0.43190973  0.81206330  1
  Al  Al14  1  0.89089728  0.54580297  0.56831576  1
  Al  Al15  1  0.45218277  0.42334568  0.32534564  1
  Al  Al16  1  0.55997479  0.53718384  0.07195075  1
  Al  Al17  1  0.10633682  0.43160747  0.83711356  1
  Al  Al18  1  0.21440704  0.54646326  0.63456045  1
  Al  Al19  1  0.78292242  0.42016448  0.32725770  1
  Al  Al20  1  0.88301040  0.53636776  0.06901275  1
  Al  Al21  1  0.45262759  0.42490159  0.81930319  1
  Al  Al22  1  0.55541254  0.54295625  0.56698985  1
  Al  Al23  1  0.09963863  0.76822317  0.38736908  1
  Al  Al24  1  0.21230905  0.88313704  0.14009376  1
  Al  Al25  1  0.77841180  0.76528462  0.83408557  1
  Al  Al26  1  0.45143090  0.76207193  0.31759315  1
  Al  Al27  1  0.11362891  0.76033070  0.89840145  1
  Al  Al28  1  0.21076084  0.87641463  0.64631142  1
  Al  Al29  1  0.77076387  0.76152458  0.30961535  1
  Al  Al30  1  0.88412957  0.87769350  0.10033195  1
  Al  Al31  1  0.44813820  0.76081782  0.83073768  1
  Al  Al32  1  0.55997316  0.87287307  0.57439294  1
  B  B33  1  0.88457050  0.21049122  0.10889379  1
  B  B34  1  0.88577654  0.87098319  0.61067580  1
  B  B35  1  0.55838474  0.86696404  0.06665077  1
  N  N36  1  0.22238491  0.19870282  0.32351188  1
  N  N37  1  0.07527196  0.11281967  0.08301549  1
  N  N38  1  0.88815269  0.20494448  0.81886128  1
  N  N39  1  0.79157587  0.05660504  0.62472069  1
  N  N40  1  0.55759570  0.20041130  0.37994697  1
  N  N41  1  0.46551669  0.06634447  0.11981044  1
  N  N42  1  0.21895094  0.20262017  0.84512122  1
  N  N43  1  0.12429955  0.08728691  0.58192964  1
  N  N44  1  0.88330830  0.20664571  0.39492326  1
  N  N45  1  0.79066664  0.11920044  0.12543447  1
  N  N46  1  0.55772694  0.20653505  0.88177219  1
  N  N47  1  0.45460353  0.08745753  0.64167444  1
  N  N48  1  0.22031851  0.54381908  0.34025107  1
  N  N49  1  0.10603042  0.43357136  0.11896836  1
  N  N50  1  0.88269806  0.54016547  0.88153734  1
  N  N51  1  0.77401159  0.44105223  0.62467381  1
  N  N52  1  0.55553296  0.54208442  0.37796979  1
  N  N53  1  0.45256401  0.42358920  0.13351592  1
  N  N54  1  0.21943164  0.54717707  0.82905650  1
  N  N55  1  0.10962871  0.42501171  0.62090125  1
  N  N56  1  0.88410718  0.54370843  0.37853320  1
  N  N57  1  0.79339744  0.39931194  0.13075429  1
  N  N58  1  0.55655581  0.53814341  0.88487802  1
  N  N59  1  0.45481411  0.42159184  0.62623039  1
  N  N60  1  0.21721585  0.87405403  0.32986554  1
  N  N61  1  0.12201545  0.75805125  0.08298809  1
  N  N62  1  0.88089282  0.87747678  0.89685987  1
  N  N63  1  0.79445004  0.77347850  0.63420330  1
  N  N64  1  0.55661340  0.87140938  0.38761433  1
  N  N65  1  0.45762988  0.77414466  0.12300404  1
  N  N66  1  0.21321790  0.87741214  0.83553050  1
  N  N67  1  0.07764667  0.77815606  0.58310970  1
  N  N68  1  0.88954970  0.86984644  0.31519323  1
  N  N69  1  0.74719348  0.76614115  0.12025096  1
  N  N70  1  0.55518272  0.87008301  0.90261019  1
  N  N71  1  0.44991939  0.75951341  0.63683640  1
