# generated using pymatgen
data_Al11BN12
_symmetry_space_group_name_H-M   'P 1'
_cell_length_a   9.28847629
_cell_length_b   9.27614378
_cell_length_c   10.01061483
_cell_angle_alpha   90.04591580
_cell_angle_beta   89.75635116
_cell_angle_gamma   59.90869125
_symmetry_Int_Tables_number   1
_chemical_formula_structural   Al11BN12
_chemical_formula_sum   'Al33 B3 N36'
_cell_volume   746.27103226
_cell_formula_units_Z   3
loop_
 _symmetry_equiv_pos_site_id
 _symmetry_equiv_pos_as_xyz
  1  'x, y, z'
loop_
 _atom_site_type_symbol
 _atom_site_label
 _atom_site_symmetry_multiplicity
 _atom_site_fract_x
 _atom_site_fract_y
 _atom_site_fract_z
 _atom_site_occupancy
  Al  Al0  1  0.11363067  0.08895920  0.38655798  1
  Al  Al1  1  0.22228559  0.20486167  0.06530538  1
  Al  Al2  1  0.77697257  0.08675111  0.80210704  1
  Al  Al3  1  0.88901356  0.20243297  0.59227118  1
  Al  Al4  1  0.44798371  0.08913722  0.30719178  1
  Al  Al5  1  0.56333330  0.20274968  0.06279950  1
  Al  Al6  1  0.09535339  0.09670851  0.87730531  1
  Al  Al7  1  0.23072917  0.20810732  0.56424748  1
  Al  Al8  1  0.78263540  0.09409042  0.32562985  1
  Al  Al9  1  0.44492079  0.09160737  0.82084032  1
  Al  Al10  1  0.55925690  0.19907304  0.56004523  1
  Al  Al11  1  0.11260108  0.42805230  0.31155699  1
  Al  Al12  1  0.22103967  0.53938525  0.06045596  1
  Al  Al13  1  0.77592365  0.43094106  0.80470752  1
  Al  Al14  1  0.89025582  0.54647503  0.55929741  1
  Al  Al15  1  0.44413573  0.42838818  0.31245343  1
  Al  Al16  1  0.56238105  0.53381662  0.06280379  1
  Al  Al17  1  0.11016097  0.42437052  0.81243231  1
  Al  Al18  1  0.21772992  0.54473070  0.56329069  1
  Al  Al19  1  0.78222362  0.42174873  0.31883867  1
  Al  Al20  1  0.88579407  0.53644490  0.06328207  1
  Al  Al21  1  0.44645232  0.42619971  0.81188939  1
  Al  Al22  1  0.55436379  0.54415177  0.55931124  1
  Al  Al23  1  0.10627317  0.76033879  0.31956226  1
  Al  Al24  1  0.21461954  0.88178898  0.12365973  1
  Al  Al25  1  0.77726156  0.76348591  0.81503810  1
  Al  Al26  1  0.45425123  0.76244319  0.30694799  1
  Al  Al27  1  0.10010007  0.75871949  0.81274325  1
  Al  Al28  1  0.21829957  0.87717752  0.63553961  1
  Al  Al29  1  0.77454773  0.76570365  0.31358294  1
  Al  Al30  1  0.88394059  0.87850157  0.06381716  1
  Al  Al31  1  0.45080296  0.75926746  0.82576909  1
  Al  Al32  1  0.56039856  0.87371521  0.56521094  1
  B  B33  1  0.88733992  0.20496041  0.10518794  1
  B  B34  1  0.88485154  0.87331019  0.56104885  1
  B  B35  1  0.55829770  0.87056615  0.05901534  1
  N  N36  1  0.22818625  0.20767761  0.36838033  1
  N  N37  1  0.07343110  0.11128165  0.07707048  1
  N  N38  1  0.88695791  0.20361731  0.81047815  1
  N  N39  1  0.78601787  0.06354543  0.61055486  1
  N  N40  1  0.55472782  0.20435741  0.36871554  1
  N  N41  1  0.45802574  0.06937931  0.11458454  1
  N  N42  1  0.22196554  0.20443357  0.87539108  1
  N  N43  1  0.12137575  0.08897182  0.57695755  1
  N  N44  1  0.88381894  0.20857846  0.38414454  1
  N  N45  1  0.79296700  0.10817524  0.12588425  1
  N  N46  1  0.55840872  0.20376759  0.87325087  1
  N  N47  1  0.44724436  0.09362870  0.62978237  1
  N  N48  1  0.22311994  0.53886394  0.37423041  1
  N  N49  1  0.11047935  0.42799520  0.12214926  1
  N  N50  1  0.88692484  0.53891897  0.87323127  1
  N  N51  1  0.77396402  0.44095689  0.61530261  1
  N  N52  1  0.55455516  0.54217958  0.36757152  1
  N  N53  1  0.44334120  0.42826187  0.12196929  1
  N  N54  1  0.22180540  0.53692718  0.87046840  1
  N  N55  1  0.11120005  0.42882603  0.62285622  1
  N  N56  1  0.88905256  0.54130616  0.36751552  1
  N  N57  1  0.79333861  0.39626505  0.12147096  1
  N  N58  1  0.55824393  0.53500626  0.87523574  1
  N  N59  1  0.44661317  0.42766621  0.62044298  1
  N  N60  1  0.22287042  0.87636770  0.31803882  1
  N  N61  1  0.10295419  0.75808750  0.12444580  1
  N  N62  1  0.88458088  0.87456725  0.87799819  1
  N  N63  1  0.78978662  0.77377289  0.61897554  1
  N  N64  1  0.55590722  0.87366560  0.37750543  1
  N  N65  1  0.46256529  0.77087468  0.11118061  1
  N  N66  1  0.21816564  0.87177279  0.83432046  1
  N  N67  1  0.08357234  0.77341537  0.61659333  1
  N  N68  1  0.88796741  0.87063527  0.39110011  1
  N  N69  1  0.75370428  0.77435009  0.11845604  1
  N  N70  1  0.55846313  0.87147359  0.89399626  1
  N  N71  1  0.45298843  0.76039772  0.62992958  1
