# generated using pymatgen
data_Al11BN12
_symmetry_space_group_name_H-M   'P 1'
_cell_length_a   9.28045847
_cell_length_b   9.28858819
_cell_length_c   9.95242078
_cell_angle_alpha   90.00418435
_cell_angle_beta   89.77450359
_cell_angle_gamma   59.96797708
_symmetry_Int_Tables_number   1
_chemical_formula_structural   Al11BN12
_chemical_formula_sum   'Al33 B3 N36'
_cell_volume   742.73467264
_cell_formula_units_Z   3
loop_
 _symmetry_equiv_pos_site_id
 _symmetry_equiv_pos_as_xyz
  1  'x, y, z'
loop_
 _atom_site_type_symbol
 _atom_site_label
 _atom_site_symmetry_multiplicity
 _atom_site_fract_x
 _atom_site_fract_y
 _atom_site_fract_z
 _atom_site_occupancy
  Al  Al0  1  0.10917297  0.09615014  0.38222159  1
  Al  Al1  1  0.22062473  0.20462052  0.06655595  1
  Al  Al2  1  0.77730454  0.08585792  0.80286100  1
  Al  Al3  1  0.88852593  0.20282928  0.59406957  1
  Al  Al4  1  0.44840091  0.08808430  0.30700666  1
  Al  Al5  1  0.56397146  0.20235043  0.06312579  1
  Al  Al6  1  0.09782112  0.09930768  0.86481761  1
  Al  Al7  1  0.22995379  0.20794009  0.56594425  1
  Al  Al8  1  0.78240788  0.09374194  0.32525922  1
  Al  Al9  1  0.44547843  0.09151290  0.82116094  1
  Al  Al10  1  0.55946792  0.19826425  0.56000271  1
  Al  Al11  1  0.11218321  0.42893506  0.31135756  1
  Al  Al12  1  0.22125588  0.54005822  0.06067610  1
  Al  Al13  1  0.77500507  0.43236516  0.80566572  1
  Al  Al14  1  0.89003803  0.54677585  0.55934818  1
  Al  Al15  1  0.44398639  0.42790991  0.31253214  1
  Al  Al16  1  0.56268530  0.53363245  0.06332738  1
  Al  Al17  1  0.11015182  0.42717553  0.81300565  1
  Al  Al18  1  0.21828643  0.54276323  0.56352980  1
  Al  Al19  1  0.78069529  0.42302895  0.31849028  1
  Al  Al20  1  0.88553628  0.53660015  0.06352955  1
  Al  Al21  1  0.44682342  0.42630596  0.81230862  1
  Al  Al22  1  0.55484595  0.54282959  0.55929740  1
  Al  Al23  1  0.10832132  0.76103671  0.31941522  1
  Al  Al24  1  0.21898977  0.87293398  0.06903652  1
  Al  Al25  1  0.77840257  0.76368141  0.81581126  1
  Al  Al26  1  0.44791565  0.76437784  0.30721671  1
  Al  Al27  1  0.10524037  0.76387271  0.80965088  1
  Al  Al28  1  0.22374939  0.86555781  0.56742688  1
  Al  Al29  1  0.77337573  0.76570609  0.31373049  1
  Al  Al30  1  0.88543209  0.87860818  0.06464841  1
  Al  Al31  1  0.44524775  0.76205597  0.82214054  1
  Al  Al32  1  0.55937928  0.87346978  0.56559649  1
  B  B33  1  0.88998095  0.20388029  0.10614309  1
  B  B34  1  0.88329059  0.87401631  0.55979144  1
  B  B35  1  0.55725592  0.87183778  0.05887339  1
  N  N36  1  0.22799040  0.20804531  0.36759073  1
  N  N37  1  0.07497974  0.11156931  0.08403353  1
  N  N38  1  0.88458439  0.20510520  0.81124849  1
  N  N39  1  0.78627414  0.06277703  0.61037067  1
  N  N40  1  0.55452108  0.20379713  0.36804882  1
  N  N41  1  0.45820234  0.06908035  0.11374799  1
  N  N42  1  0.22204949  0.20654389  0.87479572  1
  N  N43  1  0.11970129  0.09164154  0.58450874  1
  N  N44  1  0.88152744  0.21012112  0.38484795  1
  N  N45  1  0.79354500  0.10786883  0.12574225  1
  N  N46  1  0.55867583  0.20371371  0.87291901  1
  N  N47  1  0.44742985  0.09298899  0.62944060  1
  N  N48  1  0.22276606  0.53829599  0.37360775  1
  N  N49  1  0.11043587  0.42902172  0.12127830  1
  N  N50  1  0.88702241  0.53944025  0.87303824  1
  N  N51  1  0.77344962  0.44191144  0.61549147  1
  N  N52  1  0.55409604  0.54212233  0.36676014  1
  N  N53  1  0.44371897  0.42757392  0.12125514  1
  N  N54  1  0.22161809  0.54004545  0.86940556  1
  N  N55  1  0.11088438  0.42900715  0.62266553  1
  N  N56  1  0.88869066  0.54139254  0.36700169  1
  N  N57  1  0.79338360  0.39649295  0.12115192  1
  N  N58  1  0.55711862  0.53724249  0.87447181  1
  N  N59  1  0.44736207  0.42617724  0.61993199  1
  N  N60  1  0.22728891  0.86561819  0.36764265  1
  N  N61  1  0.10715538  0.76043650  0.12755050  1
  N  N62  1  0.88799359  0.87339714  0.87752851  1
  N  N63  1  0.78951983  0.77380739  0.61871973  1
  N  N64  1  0.55461011  0.87292755  0.37711489  1
  N  N65  1  0.45815167  0.77250486  0.11391655  1
  N  N66  1  0.22127467  0.86781131  0.87517431  1
  N  N67  1  0.08672691  0.77307935  0.61618704  1
  N  N68  1  0.88777603  0.87028360  0.39044055  1
  N  N69  1  0.75358998  0.77457986  0.11795595  1
  N  N70  1  0.55779566  0.87088624  0.89291468  1
  N  N71  1  0.44633845  0.76179034  0.62912110  1
