# generated using pymatgen
data_Al11BN12
_symmetry_space_group_name_H-M   'P 1'
_cell_length_a   9.28222079
_cell_length_b   9.31183159
_cell_length_c   10.10479957
_cell_angle_alpha   90.01501268
_cell_angle_beta   89.43304965
_cell_angle_gamma   59.82474767
_symmetry_Int_Tables_number   1
_chemical_formula_structural   Al11BN12
_chemical_formula_sum   'Al33 B3 N36'
_cell_volume   754.99913954
_cell_formula_units_Z   3
loop_
 _symmetry_equiv_pos_site_id
 _symmetry_equiv_pos_as_xyz
  1  'x, y, z'
loop_
 _atom_site_type_symbol
 _atom_site_label
 _atom_site_symmetry_multiplicity
 _atom_site_fract_x
 _atom_site_fract_y
 _atom_site_fract_z
 _atom_site_occupancy
  Al  Al0  1  0.11745551  0.09105514  0.39622625  1
  Al  Al1  1  0.21571088  0.20451544  0.13048883  1
  Al  Al2  1  0.78119296  0.08553067  0.82069086  1
  Al  Al3  1  0.88981507  0.20188239  0.60025911  1
  Al  Al4  1  0.45574897  0.08380607  0.31361970  1
  Al  Al5  1  0.56263782  0.20473074  0.06827605  1
  Al  Al6  1  0.09642048  0.10019474  0.88965532  1
  Al  Al7  1  0.22074891  0.20380967  0.64747395  1
  Al  Al8  1  0.78296111  0.09777312  0.32058956  1
  Al  Al9  1  0.45187798  0.08786530  0.83418000  1
  Al  Al10  1  0.56002601  0.19476770  0.56919966  1
  Al  Al11  1  0.11418710  0.42403895  0.36689124  1
  Al  Al12  1  0.21912524  0.54374237  0.14384960  1
  Al  Al13  1  0.77539537  0.43180773  0.81187124  1
  Al  Al14  1  0.88825830  0.54742084  0.56868737  1
  Al  Al15  1  0.45237533  0.42348368  0.32451148  1
  Al  Al16  1  0.55929484  0.53715979  0.07176229  1
  Al  Al17  1  0.11272002  0.42922564  0.87495336  1
  Al  Al18  1  0.21245112  0.54489048  0.63579597  1
  Al  Al19  1  0.78320766  0.42025263  0.32682785  1
  Al  Al20  1  0.88004674  0.53773612  0.06968070  1
  Al  Al21  1  0.45260647  0.42481061  0.81863693  1
  Al  Al22  1  0.55509922  0.54290903  0.56694266  1
  Al  Al23  1  0.09950045  0.76852906  0.38711762  1
  Al  Al24  1  0.21240711  0.88281736  0.13972107  1
  Al  Al25  1  0.77874043  0.76486851  0.83366963  1
  Al  Al26  1  0.45160762  0.76197518  0.31745197  1
  Al  Al27  1  0.11359932  0.76018808  0.89807543  1
  Al  Al28  1  0.21089056  0.87653895  0.64600096  1
  Al  Al29  1  0.77090532  0.76155577  0.30933539  1
  Al  Al30  1  0.88434941  0.87769296  0.10016732  1
  Al  Al31  1  0.44835611  0.76070422  0.83058703  1
  Al  Al32  1  0.55925599  0.87356484  0.57429811  1
  B  B33  1  0.88472906  0.21029264  0.10866440  1
  B  B34  1  0.88602640  0.87098435  0.61048336  1
  B  B35  1  0.55794075  0.86745654  0.06651879  1
  N  N36  1  0.22086306  0.20118173  0.32161423  1
  N  N37  1  0.07555352  0.11283575  0.08278343  1
  N  N38  1  0.88796780  0.20479332  0.81886478  1
  N  N39  1  0.79155635  0.05662581  0.62460311  1
  N  N40  1  0.55708827  0.20078731  0.37993025  1
  N  N41  1  0.46505881  0.06641602  0.11979140  1
  N  N42  1  0.21769608  0.20400982  0.84174559  1
  N  N43  1  0.12471248  0.08774596  0.58192758  1
  N  N44  1  0.88332491  0.20674787  0.39482670  1
  N  N45  1  0.79067711  0.11916738  0.12533193  1
  N  N46  1  0.55721850  0.20665713  0.88176037  1
  N  N47  1  0.45403893  0.08792410  0.64157782  1
  N  N48  1  0.21937486  0.54400260  0.33710358  1
  N  N49  1  0.11135335  0.43099632  0.09245025  1
  N  N50  1  0.88156099  0.54063648  0.88016675  1
  N  N51  1  0.77404217  0.44078600  0.62463969  1
  N  N52  1  0.55541003  0.54205626  0.37793505  1
  N  N53  1  0.45213389  0.42359548  0.13338795  1
  N  N54  1  0.21760167  0.54595193  0.82694847  1
  N  N55  1  0.11558064  0.42180218  0.59145770  1
  N  N56  1  0.88280878  0.54457863  0.37649246  1
  N  N57  1  0.79331665  0.39918021  0.13074205  1
  N  N58  1  0.55625349  0.53803308  0.88472017  1
  N  N59  1  0.45439574  0.42187855  0.62632304  1
  N  N60  1  0.21730255  0.87420198  0.32968834  1
  N  N61  1  0.12245108  0.75702538  0.08281940  1
  N  N62  1  0.88089315  0.87740836  0.89675920  1
  N  N63  1  0.79445862  0.77357451  0.63421287  1
  N  N64  1  0.55626858  0.87183620  0.38749054  1
  N  N65  1  0.45774383  0.77399045  0.12290362  1
  N  N66  1  0.21336493  0.87713347  0.83538981  1
  N  N67  1  0.07791218  0.77781552  0.58302353  1
  N  N68  1  0.88942501  0.87018255  0.31521007  1
  N  N69  1  0.74697482  0.76676023  0.12022046  1
  N  N70  1  0.55496979  0.87034737  0.90252095  1
  N  N71  1  0.45010874  0.75945180  0.63676230  1
