# generated using pymatgen
data_Al11BN12
_symmetry_space_group_name_H-M   'P 1'
_cell_length_a   9.27522763
_cell_length_b   9.26145884
_cell_length_c   10.15813502
_cell_angle_alpha   90.19345650
_cell_angle_beta   89.65768249
_cell_angle_gamma   59.90258601
_symmetry_Int_Tables_number   1
_chemical_formula_structural   Al11BN12
_chemical_formula_sum   'Al33 B3 N36'
_cell_volume   754.92170810
_cell_formula_units_Z   3
loop_
 _symmetry_equiv_pos_site_id
 _symmetry_equiv_pos_as_xyz
  1  'x, y, z'
loop_
 _atom_site_type_symbol
 _atom_site_label
 _atom_site_symmetry_multiplicity
 _atom_site_fract_x
 _atom_site_fract_y
 _atom_site_fract_z
 _atom_site_occupancy
  Al  Al0  1  0.11524450  0.09427681  0.39395464  1
  Al  Al1  1  0.21107217  0.20663824  0.13313317  1
  Al  Al2  1  0.78233880  0.08124426  0.81383769  1
  Al  Al3  1  0.89018079  0.20332688  0.60542275  1
  Al  Al4  1  0.45462926  0.08126238  0.31828379  1
  Al  Al5  1  0.56796458  0.19285725  0.06539769  1
  Al  Al6  1  0.10103986  0.09863013  0.88136949  1
  Al  Al7  1  0.21475461  0.21245280  0.64095819  1
  Al  Al8  1  0.78257483  0.10269693  0.31222873  1
  Al  Al9  1  0.45119349  0.09246408  0.81267702  1
  Al  Al10  1  0.56574652  0.18965261  0.55933603  1
  Al  Al11  1  0.11119320  0.42626560  0.38779364  1
  Al  Al12  1  0.22485207  0.53740412  0.14376937  1
  Al  Al13  1  0.78028577  0.42178868  0.87952765  1
  Al  Al14  1  0.89041190  0.54840721  0.64252841  1
  Al  Al15  1  0.44357210  0.43322719  0.38636160  1
  Al  Al16  1  0.56126253  0.53478384  0.13642402  1
  Al  Al17  1  0.11063906  0.43021583  0.88995531  1
  Al  Al18  1  0.21860113  0.54190792  0.63513162  1
  Al  Al19  1  0.77474845  0.43373308  0.39542542  1
  Al  Al20  1  0.88301033  0.53578110  0.13976083  1
  Al  Al21  1  0.44056924  0.43183943  0.88815437  1
  Al  Al22  1  0.55262153  0.54011460  0.64414149  1
  Al  Al23  1  0.10213477  0.76886853  0.38023059  1
  Al  Al24  1  0.21969701  0.87987926  0.13948862  1
  Al  Al25  1  0.76941059  0.76345979  0.89012770  1
  Al  Al26  1  0.44103480  0.75976549  0.39383887  1
  Al  Al27  1  0.11451702  0.75895826  0.89530084  1
  Al  Al28  1  0.21354988  0.87491491  0.64182606  1
  Al  Al29  1  0.78341578  0.76413714  0.38369205  1
  Al  Al30  1  0.88963983  0.87508247  0.10534089  1
  Al  Al31  1  0.44511939  0.76676336  0.88271861  1
  Al  Al32  1  0.55750751  0.87203754  0.60297969  1
  B  B33  1  0.88583037  0.20933606  0.09488754  1
  B  B34  1  0.89097419  0.86914081  0.59617668  1
  B  B35  1  0.55473874  0.86791959  0.09882792  1
  N  N36  1  0.21903686  0.20661101  0.32067316  1
  N  N37  1  0.07769438  0.11063937  0.07680160  1
  N  N38  1  0.88786910  0.20721474  0.81095267  1
  N  N39  1  0.79282039  0.05576812  0.62072146  1
  N  N40  1  0.56028208  0.19893243  0.36924720  1
  N  N41  1  0.46473787  0.05814608  0.12066082  1
  N  N42  1  0.21716242  0.20791050  0.83377278  1
  N  N43  1  0.12235610  0.09056734  0.58026177  1
  N  N44  1  0.88568683  0.20439160  0.38813736  1
  N  N45  1  0.79164085  0.11951358  0.12072797  1
  N  N46  1  0.56174797  0.19726207  0.87806322  1
  N  N47  1  0.44304843  0.10354393  0.62485531  1
  N  N48  1  0.22156459  0.54004535  0.33089955  1
  N  N49  1  0.10893464  0.43200573  0.07816483  1
  N  N50  1  0.88921493  0.54067781  0.83108544  1
  N  N51  1  0.77183942  0.44511816  0.58344709  1
  N  N52  1  0.55720970  0.53989513  0.32288765  1
  N  N53  1  0.44334370  0.42900390  0.07926149  1
  N  N54  1  0.22135357  0.54008380  0.82371158  1
  N  N55  1  0.10969601  0.42935553  0.57583288  1
  N  N56  1  0.88840604  0.53864623  0.32637097  1
  N  N57  1  0.79243319  0.39927362  0.07580825  1
  N  N58  1  0.55395031  0.53951609  0.83287489  1
  N  N59  1  0.44597379  0.42884417  0.57699883  1
  N  N60  1  0.22206668  0.87466949  0.32611562  1
  N  N61  1  0.12677440  0.75418494  0.08175794  1
  N  N62  1  0.88540196  0.87624741  0.89423028  1
  N  N63  1  0.80237010  0.77216903  0.57956394  1
  N  N64  1  0.55552221  0.87303149  0.38854931  1
  N  N65  1  0.45477066  0.77815663  0.07890768  1
  N  N66  1  0.21966867  0.87275799  0.83033363  1
  N  N67  1  0.08191426  0.77768410  0.57721830  1
  N  N68  1  0.88912078  0.86919609  0.30748482  1
  N  N69  1  0.74192930  0.76802335  0.08449617  1
  N  N70  1  0.56208552  0.86201431  0.81384208  1
  N  N71  1  0.43342869  0.75635979  0.58155901  1
