# generated using pymatgen
data_Al11BN12
_symmetry_space_group_name_H-M   'P 1'
_cell_length_a   9.26588872
_cell_length_b   9.26717722
_cell_length_c   9.95121493
_cell_angle_alpha   90.01751099
_cell_angle_beta   89.91145790
_cell_angle_gamma   59.93796290
_symmetry_Int_Tables_number   1
_chemical_formula_structural   Al11BN12
_chemical_formula_sum   'Al33 B3 N36'
_cell_volume   739.55180513
_cell_formula_units_Z   3
loop_
 _symmetry_equiv_pos_site_id
 _symmetry_equiv_pos_as_xyz
  1  'x, y, z'
loop_
 _atom_site_type_symbol
 _atom_site_label
 _atom_site_symmetry_multiplicity
 _atom_site_fract_x
 _atom_site_fract_y
 _atom_site_fract_z
 _atom_site_occupancy
  Al  Al0  1  0.10924808  0.09741121  0.39371204  1
  Al  Al1  1  0.22017114  0.20299946  0.14794636  1
  Al  Al2  1  0.77896859  0.09800596  0.90690582  1
  Al  Al3  1  0.89025451  0.19802463  0.64664513  1
  Al  Al4  1  0.44532034  0.09248648  0.39185084  1
  Al  Al5  1  0.55941665  0.20337113  0.14849522  1
  Al  Al6  1  0.10506694  0.09627048  0.90279958  1
  Al  Al7  1  0.22284612  0.20383649  0.64989378  1
  Al  Al8  1  0.78307878  0.09141613  0.37604502  1
  Al  Al9  1  0.44805696  0.08808675  0.90281292  1
  Al  Al10  1  0.56147656  0.19628034  0.64761053  1
  Al  Al11  1  0.11143253  0.42721396  0.40002733  1
  Al  Al12  1  0.22467365  0.53766073  0.15199150  1
  Al  Al13  1  0.78041911  0.42231670  0.90214843  1
  Al  Al14  1  0.88916031  0.54393314  0.64798782  1
  Al  Al15  1  0.44605112  0.42730648  0.40063962  1
  Al  Al16  1  0.56041468  0.53674714  0.14816930  1
  Al  Al17  1  0.10969650  0.42960527  0.89888826  1
  Al  Al18  1  0.21521265  0.54348888  0.64797271  1
  Al  Al19  1  0.77853281  0.42607067  0.39456672  1
  Al  Al20  1  0.88485381  0.53594983  0.15114636  1
  Al  Al21  1  0.44336934  0.42764838  0.89751243  1
  Al  Al22  1  0.55651827  0.53939108  0.65059604  1
  Al  Al23  1  0.10648388  0.76393279  0.39110486  1
  Al  Al24  1  0.22176153  0.87831197  0.15160320  1
  Al  Al25  1  0.76999818  0.76218840  0.90743130  1
  Al  Al26  1  0.44596336  0.76182893  0.39347026  1
  Al  Al27  1  0.11205452  0.76060104  0.90349389  1
  Al  Al28  1  0.21618014  0.87553985  0.64734040  1
  Al  Al29  1  0.77718629  0.76572125  0.38338053  1
  Al  Al30  1  0.88772224  0.87516765  0.12442628  1
  Al  Al31  1  0.44556032  0.76471595  0.90254201  1
  Al  Al32  1  0.56018697  0.87430653  0.64637502  1
  B  B33  1  0.88723604  0.20860736  0.15160304  1
  B  B34  1  0.88728255  0.87408526  0.59898907  1
  B  B35  1  0.55659599  0.86778713  0.15287229  1
  N  N36  1  0.22219562  0.20686803  0.33761340  1
  N  N37  1  0.08597055  0.10750559  0.09606897  1
  N  N38  1  0.88751309  0.20440883  0.83452528  1
  N  N39  1  0.79321153  0.06491894  0.58449404  1
  N  N40  1  0.55537365  0.20645670  0.33882966  1
  N  N41  1  0.45742778  0.06961260  0.09646589  1
  N  N42  1  0.22284622  0.20352138  0.84310141  1
  N  N43  1  0.10979123  0.09599104  0.58520643  1
  N  N44  1  0.89086805  0.20813800  0.31913474  1
  N  N45  1  0.78785977  0.11542206  0.10109562  1
  N  N46  1  0.55709369  0.20274130  0.84053935  1
  N  N47  1  0.44421064  0.09343707  0.58419443  1
  N  N48  1  0.22344150  0.53817387  0.34339853  1
  N  N49  1  0.11023013  0.42982039  0.09003124  1
  N  N50  1  0.88548158  0.54050598  0.84031880  1
  N  N51  1  0.77894891  0.42536280  0.58689574  1
  N  N52  1  0.55565722  0.53833833  0.33819863  1
  N  N53  1  0.44485104  0.42674731  0.08840276  1
  N  N54  1  0.22081482  0.54058653  0.83722171  1
  N  N55  1  0.11104117  0.42652503  0.59051036  1
  N  N56  1  0.88934065  0.53876180  0.34139079  1
  N  N57  1  0.79112887  0.40286429  0.09593728  1
  N  N58  1  0.55604808  0.54020616  0.84326843  1
  N  N59  1  0.44524744  0.42670577  0.59203574  1
  N  N60  1  0.22186711  0.87330654  0.34175522  1
  N  N61  1  0.12392528  0.75619158  0.09390437  1
  N  N62  1  0.88535310  0.87215718  0.89110193  1
  N  N63  1  0.79144855  0.77726174  0.58435808  1
  N  N64  1  0.55403841  0.87257762  0.31992599  1
  N  N65  1  0.45519700  0.77431769  0.09726858  1
  N  N66  1  0.22204048  0.87276568  0.83969550  1
  N  N67  1  0.07997285  0.77706555  0.58923238  1
  N  N68  1  0.89091931  0.87036480  0.32236275  1
  N  N69  1  0.74739820  0.76713951  0.10074478  1
  N  N70  1  0.55591512  0.87118779  0.83394928  1
  N  N71  1  0.44561582  0.76183134  0.58633014  1
