# generated using pymatgen
data_Al11BN12
_symmetry_space_group_name_H-M   'P 1'
_cell_length_a   9.25307428
_cell_length_b   9.30259802
_cell_length_c   10.17631082
_cell_angle_alpha   90.12592261
_cell_angle_beta   89.61709626
_cell_angle_gamma   59.82359813
_symmetry_Int_Tables_number   1
_chemical_formula_structural   Al11BN12
_chemical_formula_sum   'Al33 B3 N36'
_cell_volume   757.21272228
_cell_formula_units_Z   3
loop_
 _symmetry_equiv_pos_site_id
 _symmetry_equiv_pos_as_xyz
  1  'x, y, z'
loop_
 _atom_site_type_symbol
 _atom_site_label
 _atom_site_symmetry_multiplicity
 _atom_site_fract_x
 _atom_site_fract_y
 _atom_site_fract_z
 _atom_site_occupancy
  Al  Al0  1  0.11720196  0.09239332  0.39714304  1
  Al  Al1  1  0.21295740  0.20700919  0.13412395  1
  Al  Al2  1  0.78027894  0.08603432  0.82007498  1
  Al  Al3  1  0.89008639  0.20076645  0.60052172  1
  Al  Al4  1  0.45578680  0.08408390  0.31208415  1
  Al  Al5  1  0.56162009  0.20385977  0.06654785  1
  Al  Al6  1  0.09588949  0.10227446  0.88864261  1
  Al  Al7  1  0.21787447  0.20731094  0.64726660  1
  Al  Al8  1  0.78293492  0.09800735  0.31935566  1
  Al  Al9  1  0.45063162  0.09003032  0.82938058  1
  Al  Al10  1  0.55990233  0.19442153  0.56784273  1
  Al  Al11  1  0.12112303  0.42096342  0.38899002  1
  Al  Al12  1  0.21638245  0.54267159  0.14592593  1
  Al  Al13  1  0.77520076  0.43303953  0.81104927  1
  Al  Al14  1  0.88427272  0.54977977  0.56742238  1
  Al  Al15  1  0.45242673  0.42156667  0.32240794  1
  Al  Al16  1  0.56123041  0.53131628  0.07420781  1
  Al  Al17  1  0.11728966  0.42727716  0.89146102  1
  Al  Al18  1  0.21059585  0.54542469  0.63727526  1
  Al  Al19  1  0.78682143  0.41909180  0.32591013  1
  Al  Al20  1  0.87703144  0.53955498  0.06797319  1
  Al  Al21  1  0.45169123  0.42528744  0.81702920  1
  Al  Al22  1  0.55537591  0.53977020  0.56609835  1
  Al  Al23  1  0.09920843  0.76805734  0.38745223  1
  Al  Al24  1  0.21473164  0.88112832  0.14014314  1
  Al  Al25  1  0.78048544  0.76404271  0.83138377  1
  Al  Al26  1  0.44720604  0.76177550  0.34034356  1
  Al  Al27  1  0.11342813  0.75944884  0.89735113  1
  Al  Al28  1  0.21752144  0.87443468  0.64647871  1
  Al  Al29  1  0.77273050  0.76015543  0.30774475  1
  Al  Al30  1  0.88525871  0.87784035  0.09916709  1
  Al  Al31  1  0.44169753  0.76526502  0.87369935  1
  Al  Al32  1  0.55739061  0.87431121  0.57309482  1
  B  B33  1  0.88598303  0.20914446  0.10802111  1
  B  B34  1  0.88679484  0.87090128  0.61021744  1
  B  B35  1  0.55835162  0.87177807  0.06531994  1
  N  N36  1  0.21924159  0.20476167  0.32188385  1
  N  N37  1  0.07673615  0.11226173  0.08185407  1
  N  N38  1  0.88703084  0.20539185  0.81856378  1
  N  N39  1  0.79125741  0.05659847  0.62465675  1
  N  N40  1  0.55708753  0.20041978  0.37978493  1
  N  N41  1  0.46372488  0.06713760  0.12038004  1
  N  N42  1  0.21528005  0.20753408  0.83724787  1
  N  N43  1  0.12446131  0.08824320  0.58202961  1
  N  N44  1  0.88350426  0.20638940  0.39454198  1
  N  N45  1  0.79061790  0.11914213  0.12464624  1
  N  N46  1  0.55574073  0.20766601  0.88125353  1
  N  N47  1  0.45242661  0.08921245  0.63956303  1
  N  N48  1  0.21831714  0.54342872  0.33533950  1
  N  N49  1  0.11450343  0.42881584  0.08027277  1
  N  N50  1  0.88217764  0.54082182  0.87983798  1
  N  N51  1  0.77483879  0.43969574  0.62502673  1
  N  N52  1  0.55871355  0.53627159  0.37600476  1
  N  N53  1  0.45071869  0.42146644  0.13359271  1
  N  N54  1  0.21496096  0.54508949  0.82503621  1
  N  N55  1  0.11890482  0.42089478  0.57732645  1
  N  N56  1  0.88493111  0.54427016  0.37639968  1
  N  N57  1  0.79513574  0.39822122  0.13117373  1
  N  N58  1  0.55729336  0.53484303  0.88671436  1
  N  N59  1  0.45367224  0.42058748  0.62665219  1
  N  N60  1  0.21627613  0.87555454  0.32828760  1
  N  N61  1  0.12408502  0.75496993  0.08162573  1
  N  N62  1  0.88103803  0.87808028  0.89622220  1
  N  N63  1  0.79466974  0.77347058  0.63419091  1
  N  N64  1  0.55852527  0.87326084  0.38541614  1
  N  N65  1  0.45386430  0.77494314  0.10456542  1
  N  N66  1  0.21463971  0.87713167  0.83547446  1
  N  N67  1  0.07832358  0.77775888  0.58265338  1
  N  N68  1  0.89027143  0.87042929  0.31339568  1
  N  N69  1  0.74667015  0.76762012  0.12001609  1
  N  N70  1  0.55830205  0.87613903  0.90194656  1
  N  N71  1  0.44579686  0.75995378  0.61455818  1
