# generated using pymatgen
data_Al11BN12
_symmetry_space_group_name_H-M   'P 1'
_cell_length_a   9.27371963
_cell_length_b   9.32369288
_cell_length_c   10.20741746
_cell_angle_alpha   90.22102852
_cell_angle_beta   89.71800530
_cell_angle_gamma   59.87905435
_symmetry_Int_Tables_number   1
_chemical_formula_structural   Al11BN12
_chemical_formula_sum   'Al33 B3 N36'
_cell_volume   763.38033971
_cell_formula_units_Z   3
loop_
 _symmetry_equiv_pos_site_id
 _symmetry_equiv_pos_as_xyz
  1  'x, y, z'
loop_
 _atom_site_type_symbol
 _atom_site_label
 _atom_site_symmetry_multiplicity
 _atom_site_fract_x
 _atom_site_fract_y
 _atom_site_fract_z
 _atom_site_occupancy
  Al  Al0  1  0.11609279  0.09417776  0.39628881  1
  Al  Al1  1  0.21314221  0.20488501  0.13593583  1
  Al  Al2  1  0.78108562  0.08417078  0.81964502  1
  Al  Al3  1  0.88918258  0.20014350  0.59771616  1
  Al  Al4  1  0.45269012  0.08619758  0.32379598  1
  Al  Al5  1  0.56344606  0.19944937  0.06612315  1
  Al  Al6  1  0.09971903  0.09958612  0.88741702  1
  Al  Al7  1  0.21477766  0.21105762  0.64275877  1
  Al  Al8  1  0.78313853  0.09870695  0.31723707  1
  Al  Al9  1  0.44885768  0.09247945  0.81583690  1
  Al  Al10  1  0.56099203  0.19716978  0.56402121  1
  Al  Al11  1  0.11101756  0.42828652  0.38883761  1
  Al  Al12  1  0.21734883  0.54164913  0.14385243  1
  Al  Al13  1  0.77183152  0.42873926  0.81491690  1
  Al  Al14  1  0.89649470  0.54307542  0.63712057  1
  Al  Al15  1  0.45088605  0.42351954  0.31944174  1
  Al  Al16  1  0.56450365  0.52818699  0.07408854  1
  Al  Al17  1  0.11141529  0.42888528  0.89055840  1
  Al  Al18  1  0.21198939  0.54682222  0.63688678  1
  Al  Al19  1  0.78172282  0.41752250  0.32810406  1
  Al  Al20  1  0.88836246  0.53334760  0.13275351  1
  Al  Al21  1  0.45025928  0.42414847  0.81980010  1
  Al  Al22  1  0.55638820  0.53355173  0.56667187  1
  Al  Al23  1  0.10160188  0.76809526  0.38583449  1
  Al  Al24  1  0.21984454  0.87937622  0.14285146  1
  Al  Al25  1  0.78065482  0.76852071  0.82860287  1
  Al  Al26  1  0.43755852  0.76840913  0.39398901  1
  Al  Al27  1  0.11549210  0.75862744  0.89727305  1
  Al  Al28  1  0.21516670  0.87558568  0.64615644  1
  Al  Al29  1  0.76868105  0.76804884  0.31958884  1
  Al  Al30  1  0.88668239  0.87795385  0.09968002  1
  Al  Al31  1  0.44414023  0.76963910  0.88846635  1
  Al  Al32  1  0.55946080  0.87431616  0.59775467  1
  B  B33  1  0.88680684  0.20646610  0.10481532  1
  B  B34  1  0.88951194  0.87112970  0.60512694  1
  B  B35  1  0.55437347  0.87036088  0.10501826  1
  N  N36  1  0.21757979  0.20815735  0.32346373  1
  N  N37  1  0.07889835  0.10960362  0.08187727  1
  N  N38  1  0.88811151  0.20276613  0.82289119  1
  N  N39  1  0.79163261  0.05801807  0.62399084  1
  N  N40  1  0.55864298  0.20336027  0.37686274  1
  N  N41  1  0.46429437  0.06104625  0.12553689  1
  N  N42  1  0.21520296  0.20804291  0.83439630  1
  N  N43  1  0.12222794  0.08989548  0.58151443  1
  N  N44  1  0.88364461  0.20581163  0.39406862  1
  N  N45  1  0.79138028  0.11663242  0.12365976  1
  N  N46  1  0.55573700  0.20353226  0.88107066  1
  N  N47  1  0.44367970  0.10303809  0.62691140  1
  N  N48  1  0.21726340  0.54350828  0.33348949  1
  N  N49  1  0.11274875  0.42811436  0.07698478  1
  N  N50  1  0.89277252  0.53873038  0.83160863  1
  N  N51  1  0.77232259  0.43658996  0.62368082  1
  N  N52  1  0.55721278  0.53684699  0.37326904  1
  N  N53  1  0.45051092  0.41916731  0.13056524  1
  N  N54  1  0.21472221  0.54419636  0.82564020  1
  N  N55  1  0.11327201  0.42676641  0.57452474  1
  N  N56  1  0.89260023  0.53757263  0.32464742  1
  N  N57  1  0.79438086  0.39292109  0.12704151  1
  N  N58  1  0.55571876  0.53526809  0.88765172  1
  N  N59  1  0.45301357  0.42038198  0.62891453  1
  N  N60  1  0.22009327  0.87606739  0.32839114  1
  N  N61  1  0.12681757  0.75471380  0.08205139  1
  N  N62  1  0.88199753  0.87722113  0.89891373  1
  N  N63  1  0.80190342  0.77571902  0.62438732  1
  N  N64  1  0.55964401  0.87618038  0.39436623  1
  N  N65  1  0.45400267  0.78208575  0.08595282  1
  N  N66  1  0.21948675  0.87336640  0.83362568  1
  N  N67  1  0.08129310  0.77912522  0.58063070  1
  N  N68  1  0.89202542  0.87123321  0.31257845  1
  N  N69  1  0.74032489  0.77216558  0.12035566  1
  N  N70  1  0.55563438  0.86683022  0.82381336  1
  N  N71  1  0.43301993  0.76173097  0.58299192  1
