# generated using pymatgen
data_Al11BN12
_symmetry_space_group_name_H-M   'P 1'
_cell_length_a   9.27977873
_cell_length_b   9.29699434
_cell_length_c   10.08624438
_cell_angle_alpha   90.08063355
_cell_angle_beta   89.53236492
_cell_angle_gamma   59.93161504
_symmetry_Int_Tables_number   1
_chemical_formula_structural   Al11BN12
_chemical_formula_sum   'Al33 B3 N36'
_cell_volume   753.03887715
_cell_formula_units_Z   3
loop_
 _symmetry_equiv_pos_site_id
 _symmetry_equiv_pos_as_xyz
  1  'x, y, z'
loop_
 _atom_site_type_symbol
 _atom_site_label
 _atom_site_symmetry_multiplicity
 _atom_site_fract_x
 _atom_site_fract_y
 _atom_site_fract_z
 _atom_site_occupancy
  Al  Al0  1  0.11713974  0.09366933  0.39523365  1
  Al  Al1  1  0.21961536  0.20216056  0.11812785  1
  Al  Al2  1  0.78071893  0.08659285  0.82082453  1
  Al  Al3  1  0.88961949  0.20179110  0.60100303  1
  Al  Al4  1  0.45332086  0.08556100  0.31396862  1
  Al  Al5  1  0.56565840  0.20303602  0.06882269  1
  Al  Al6  1  0.09646080  0.10078966  0.89074494  1
  Al  Al7  1  0.22472546  0.19931542  0.64249309  1
  Al  Al8  1  0.78102005  0.09919567  0.32204468  1
  Al  Al9  1  0.45129135  0.08883949  0.83787423  1
  Al  Al10  1  0.56084650  0.19461402  0.56980496  1
  Al  Al11  1  0.10939286  0.43310530  0.31755690  1
  Al  Al12  1  0.22974522  0.53158844  0.07098409  1
  Al  Al13  1  0.77503986  0.43203554  0.81326240  1
  Al  Al14  1  0.89163540  0.54563699  0.56972942  1
  Al  Al15  1  0.44396679  0.42740199  0.32258625  1
  Al  Al16  1  0.56021874  0.53723328  0.07324832  1
  Al  Al17  1  0.10739174  0.43404855  0.82742826  1
  Al  Al18  1  0.22095606  0.53483646  0.57382497  1
  Al  Al19  1  0.78330603  0.42051685  0.32892162  1
  Al  Al20  1  0.88367298  0.53616778  0.06900208  1
  Al  Al21  1  0.44763157  0.42658540  0.81973308  1
  Al  Al22  1  0.55462199  0.54282187  0.56743763  1
  Al  Al23  1  0.09796189  0.77116321  0.38414085  1
  Al  Al24  1  0.21236928  0.88263595  0.14162143  1
  Al  Al25  1  0.77820552  0.76478088  0.83475707  1
  Al  Al26  1  0.45160723  0.76209860  0.31856393  1
  Al  Al27  1  0.10937845  0.76720223  0.89831628  1
  Al  Al28  1  0.21038452  0.87487819  0.64568839  1
  Al  Al29  1  0.77033357  0.76084560  0.31112649  1
  Al  Al30  1  0.88490382  0.87669506  0.10378846  1
  Al  Al31  1  0.44856164  0.76006062  0.83086874  1
  Al  Al32  1  0.56005657  0.87270220  0.57514953  1
  B  B33  1  0.88500877  0.21022702  0.11035765  1
  B  B34  1  0.88627595  0.87046705  0.61192788  1
  B  B35  1  0.55901591  0.86612257  0.06705858  1
  N  N36  1  0.22212523  0.20176466  0.32454726  1
  N  N37  1  0.07446536  0.11259236  0.08419470  1
  N  N38  1  0.88926189  0.20473772  0.81816757  1
  N  N39  1  0.79051326  0.05724005  0.62501788  1
  N  N40  1  0.55589073  0.20271942  0.38009127  1
  N  N41  1  0.46700215  0.06598172  0.11952106  1
  N  N42  1  0.22027963  0.20493859  0.85834600  1
  N  N43  1  0.12416202  0.08770981  0.58247968  1
  N  N44  1  0.88320734  0.20666759  0.39596838  1
  N  N45  1  0.79039252  0.11953990  0.12684011  1
  N  N46  1  0.55907881  0.20656531  0.88198207  1
  N  N47  1  0.45381069  0.08825283  0.64323532  1
  N  N48  1  0.22327197  0.53635132  0.38452273  1
  N  N49  1  0.10540154  0.43717169  0.12688358  1
  N  N50  1  0.88516048  0.53916255  0.88182795  1
  N  N51  1  0.77354826  0.44120484  0.62491762  1
  N  N52  1  0.55451487  0.54124238  0.37745242  1
  N  N53  1  0.44722346  0.42505231  0.13387000  1
  N  N54  1  0.22678958  0.53479359  0.87925892  1
  N  N55  1  0.10940840  0.42938493  0.63564425  1
  N  N56  1  0.88807325  0.54227524  0.37975380  1
  N  N57  1  0.79346772  0.39948574  0.13158875  1
  N  N58  1  0.55660883  0.53738080  0.88530655  1
  N  N59  1  0.44892670  0.42444457  0.62943407  1
  N  N60  1  0.21779725  0.87453655  0.33124187  1
  N  N61  1  0.12008223  0.75997410  0.08691308  1
  N  N62  1  0.87946316  0.87857633  0.89699933  1
  N  N63  1  0.79344606  0.77358491  0.63483279  1
  N  N64  1  0.55629441  0.87233561  0.38823586  1
  N  N65  1  0.45745704  0.77421355  0.12369898  1
  N  N66  1  0.21378478  0.87748940  0.83490502  1
  N  N67  1  0.07576423  0.77915270  0.58557426  1
  N  N68  1  0.88802748  0.87065530  0.31530480  1
  N  N69  1  0.74727473  0.76525090  0.12107364  1
  N  N70  1  0.55557101  0.86935037  0.90293760  1
  N  N71  1  0.44952662  0.75949264  0.63669478  1
