# generated using pymatgen
data_Al11BN12
_symmetry_space_group_name_H-M   'P 1'
_cell_length_a   9.25609813
_cell_length_b   9.25579046
_cell_length_c   9.89712000
_cell_angle_alpha   89.97051652
_cell_angle_beta   89.96784565
_cell_angle_gamma   60.01828737
_symmetry_Int_Tables_number   1
_chemical_formula_structural   Al11BN12
_chemical_formula_sum   'Al33 B3 N36'
_cell_volume   734.44765478
_cell_formula_units_Z   3
loop_
 _symmetry_equiv_pos_site_id
 _symmetry_equiv_pos_as_xyz
  1  'x, y, z'
loop_
 _atom_site_type_symbol
 _atom_site_label
 _atom_site_symmetry_multiplicity
 _atom_site_fract_x
 _atom_site_fract_y
 _atom_site_fract_z
 _atom_site_occupancy
  Al  Al0  1  0.10602464  0.09679049  0.29041257  1
  Al  Al1  1  0.21986441  0.20266509  0.04478509  1
  Al  Al2  1  0.78178686  0.09065641  0.79673206  1
  Al  Al3  1  0.89049007  0.20002184  0.54631015  1
  Al  Al4  1  0.44732945  0.08865524  0.28999705  1
  Al  Al5  1  0.56253327  0.20195513  0.04457517  1
  Al  Al6  1  0.10837486  0.09554122  0.80139038  1
  Al  Al7  1  0.22322389  0.20335425  0.54511135  1
  Al  Al8  1  0.78159269  0.09412528  0.29700395  1
  Al  Al9  1  0.44583939  0.09215417  0.80193119  1
  Al  Al10  1  0.56022829  0.19829396  0.54491891  1
  Al  Al11  1  0.11110396  0.42770916  0.29447985  1
  Al  Al12  1  0.22072851  0.54102477  0.04392838  1
  Al  Al13  1  0.77904341  0.42483560  0.80105137  1
  Al  Al14  1  0.88883786  0.54290490  0.54506267  1
  Al  Al15  1  0.44431043  0.42752880  0.29497195  1
  Al  Al16  1  0.56075430  0.53679547  0.04486870  1
  Al  Al17  1  0.11062221  0.42783965  0.79443205  1
  Al  Al18  1  0.21724094  0.54219982  0.54477153  1
  Al  Al19  1  0.78069387  0.42246308  0.29061156  1
  Al  Al20  1  0.88460333  0.53898668  0.04469464  1
  Al  Al21  1  0.44477880  0.42789152  0.79411991  1
  Al  Al22  1  0.55691732  0.53939507  0.54456763  1
  Al  Al23  1  0.10824720  0.76263732  0.30197232  1
  Al  Al24  1  0.21865553  0.87672728  0.04511340  1
  Al  Al25  1  0.77780792  0.76504427  0.79746793  1
  Al  Al26  1  0.44724309  0.76416457  0.29068793  1
  Al  Al27  1  0.10544995  0.76421072  0.79034731  1
  Al  Al28  1  0.21849284  0.87458880  0.54543071  1
  Al  Al29  1  0.77388643  0.76524364  0.29711660  1
  Al  Al30  1  0.88510593  0.87793861  0.04628661  1
  Al  Al31  1  0.44577874  0.76221107  0.80209165  1
  Al  Al32  1  0.55973259  0.87351658  0.54663603  1
  B  B33  1  0.88886114  0.20463649  0.04233579  1
  B  B34  1  0.88807497  0.87315240  0.54342074  1
  B  B35  1  0.55617471  0.87279257  0.04172702  1
  N  N36  1  0.22353315  0.20304930  0.35049593  1
  N  N37  1  0.08535656  0.10697966  0.09661220  1
  N  N38  1  0.88801931  0.20431184  0.87435003  1
  N  N39  1  0.79095200  0.06972712  0.60032440  1
  N  N40  1  0.55620309  0.20302198  0.35131734  1
  N  N41  1  0.45690921  0.07001454  0.09567678  1
  N  N42  1  0.22167032  0.20624673  0.85522424  1
  N  N43  1  0.11001629  0.09512562  0.60899088  1
  N  N44  1  0.88938196  0.20568693  0.35818324  1
  N  N45  1  0.79103549  0.10596199  0.10125258  1
  N  N46  1  0.55794275  0.20528390  0.85327710  1
  N  N47  1  0.44469302  0.09313685  0.60914483  1
  N  N48  1  0.22232992  0.53828962  0.35466475  1
  N  N49  1  0.11053315  0.42830079  0.10316928  1
  N  N50  1  0.88783505  0.54089380  0.85337424  1
  N  N51  1  0.77933049  0.42522526  0.60766564  1
  N  N52  1  0.55677046  0.54003355  0.35049238  1
  N  N53  1  0.44380471  0.42788188  0.10335284  1
  N  N54  1  0.22098894  0.54131269  0.85127455  1
  N  N55  1  0.11110678  0.42645610  0.60307633  1
  N  N56  1  0.88698025  0.53969219  0.35146726  1
  N  N57  1  0.79084231  0.40216231  0.09666168  1
  N  N58  1  0.55549993  0.53837216  0.85509892  1
  N  N59  1  0.44502991  0.42686333  0.60183617  1
  N  N60  1  0.22370097  0.87363735  0.35195575  1
  N  N61  1  0.10839517  0.76230801  0.10919857  1
  N  N62  1  0.88950660  0.87213505  0.85859495  1
  N  N63  1  0.78950519  0.77392033  0.60073886  1
  N  N64  1  0.55504442  0.87264359  0.35844294  1
  N  N65  1  0.45632507  0.77398877  0.09614470  1
  N  N66  1  0.22066152  0.87067921  0.85393694  1
  N  N67  1  0.08599027  0.77420758  0.59573889  1
  N  N68  1  0.88678484  0.87344007  0.37353771  1
  N  N69  1  0.75368051  0.77478083  0.10066405  1
  N  N70  1  0.55758251  0.87148931  0.87451612  1
  N  N71  1  0.44562406  0.76208785  0.60818482  1
