# generated using pymatgen
data_Al11BN12
_symmetry_space_group_name_H-M   'P 1'
_cell_length_a   9.29158333
_cell_length_b   9.29170769
_cell_length_c   9.94646411
_cell_angle_alpha   90.00221126
_cell_angle_beta   89.76055007
_cell_angle_gamma   59.95954937
_symmetry_Int_Tables_number   1
_chemical_formula_structural   Al11BN12
_chemical_formula_sum   'Al33 B3 N36'
_cell_volume   743.36539876
_cell_formula_units_Z   3
loop_
 _symmetry_equiv_pos_site_id
 _symmetry_equiv_pos_as_xyz
  1  'x, y, z'
loop_
 _atom_site_type_symbol
 _atom_site_label
 _atom_site_symmetry_multiplicity
 _atom_site_fract_x
 _atom_site_fract_y
 _atom_site_fract_z
 _atom_site_occupancy
  Al  Al0  1  0.11106268  0.09314182  0.38188174  1
  Al  Al1  1  0.22151820  0.20483125  0.06654473  1
  Al  Al2  1  0.77735603  0.08612973  0.80229865  1
  Al  Al3  1  0.88821195  0.20326625  0.59278242  1
  Al  Al4  1  0.44814953  0.08843466  0.30701032  1
  Al  Al5  1  0.56372479  0.20244048  0.06313297  1
  Al  Al6  1  0.09572299  0.09890544  0.87347249  1
  Al  Al7  1  0.23029158  0.20847028  0.56449748  1
  Al  Al8  1  0.78263688  0.09411506  0.32542802  1
  Al  Al9  1  0.44514958  0.09150691  0.82113700  1
  Al  Al10  1  0.55912513  0.19869186  0.55973652  1
  Al  Al11  1  0.11230672  0.42904102  0.31145047  1
  Al  Al12  1  0.22116472  0.53889055  0.06018099  1
  Al  Al13  1  0.77574537  0.43146587  0.80507628  1
  Al  Al14  1  0.89010755  0.54687685  0.55896139  1
  Al  Al15  1  0.44375440  0.42861655  0.31254218  1
  Al  Al16  1  0.56340388  0.53280053  0.06288481  1
  Al  Al17  1  0.11023849  0.42560572  0.81269263  1
  Al  Al18  1  0.21836414  0.54329476  0.56345869  1
  Al  Al19  1  0.78094062  0.42297399  0.31880544  1
  Al  Al20  1  0.88566652  0.53658646  0.06356453  1
  Al  Al21  1  0.44694747  0.42587399  0.81210212  1
  Al  Al22  1  0.55446990  0.54336171  0.55912102  1
  Al  Al23  1  0.10756103  0.76129980  0.31767134  1
  Al  Al24  1  0.21830254  0.87418220  0.08467248  1
  Al  Al25  1  0.77828051  0.76344560  0.81522059  1
  Al  Al26  1  0.45014778  0.76410722  0.30525374  1
  Al  Al27  1  0.10430087  0.76201804  0.81376130  1
  Al  Al28  1  0.22165565  0.86941572  0.59236824  1
  Al  Al29  1  0.77371482  0.76592260  0.31359762  1
  Al  Al30  1  0.88408658  0.87868526  0.06395763  1
  Al  Al31  1  0.44668128  0.76117130  0.82641014  1
  Al  Al32  1  0.55963950  0.87388969  0.56541126  1
  B  B33  1  0.88856392  0.20489946  0.10611334  1
  B  B34  1  0.88208672  0.87485544  0.55929635  1
  B  B35  1  0.55872222  0.87041703  0.05829487  1
  N  N36  1  0.22791861  0.20841950  0.36739103  1
  N  N37  1  0.07322484  0.11316509  0.08115564  1
  N  N38  1  0.88631343  0.20398718  0.80956374  1
  N  N39  1  0.78588082  0.06316110  0.60980002  1
  N  N40  1  0.55454848  0.20416739  0.36779560  1
  N  N41  1  0.45828118  0.06895396  0.11376625  1
  N  N42  1  0.22199996  0.20542258  0.87482896  1
  N  N43  1  0.11979776  0.09166790  0.58035991  1
  N  N44  1  0.88228023  0.21002299  0.38453089  1
  N  N45  1  0.79333358  0.10808818  0.12557820  1
  N  N46  1  0.55884185  0.20346874  0.87267260  1
  N  N47  1  0.44707330  0.09334620  0.62914876  1
  N  N48  1  0.22256121  0.53923527  0.37365209  1
  N  N49  1  0.11038148  0.42836800  0.12137667  1
  N  N50  1  0.88709416  0.53911870  0.87275174  1
  N  N51  1  0.77329652  0.44222252  0.61487203  1
  N  N52  1  0.55398538  0.54275375  0.36682207  1
  N  N53  1  0.44347359  0.42791082  0.12115652  1
  N  N54  1  0.22209371  0.53778831  0.86920071  1
  N  N55  1  0.11084086  0.42909588  0.62220389  1
  N  N56  1  0.88875355  0.54164324  0.36667063  1
  N  N57  1  0.79314525  0.39658114  0.12117215  1
  N  N58  1  0.55828316  0.53543103  0.87420641  1
  N  N59  1  0.44720286  0.42662960  0.61968830  1
  N  N60  1  0.22474121  0.87146817  0.34075485  1
  N  N61  1  0.10404148  0.75811984  0.12491329  1
  N  N62  1  0.88631616  0.87399800  0.87710397  1
  N  N63  1  0.78959013  0.77400076  0.61827587  1
  N  N64  1  0.55509830  0.87307183  0.37711841  1
  N  N65  1  0.46275994  0.77017278  0.11146646  1
  N  N66  1  0.22098125  0.86757873  0.87228224  1
  N  N67  1  0.08652898  0.77293767  0.61782496  1
  N  N68  1  0.88800798  0.87044438  0.39081079  1
  N  N69  1  0.75375972  0.77460826  0.11782754  1
  N  N70  1  0.55883433  0.87103259  0.89266421  1
  N  N71  1  0.44838493  0.76145939  0.63099621  1
