# generated using pymatgen
data_Al11BN12
_symmetry_space_group_name_H-M   'P 1'
_cell_length_a   9.26292542
_cell_length_b   9.26784398
_cell_length_c   10.04835569
_cell_angle_alpha   89.95979092
_cell_angle_beta   89.57560315
_cell_angle_gamma   59.94129660
_symmetry_Int_Tables_number   1
_chemical_formula_structural   Al11BN12
_chemical_formula_sum   'Al33 B3 N36'
_cell_volume   746.58759804
_cell_formula_units_Z   3
loop_
 _symmetry_equiv_pos_site_id
 _symmetry_equiv_pos_as_xyz
  1  'x, y, z'
loop_
 _atom_site_type_symbol
 _atom_site_label
 _atom_site_symmetry_multiplicity
 _atom_site_fract_x
 _atom_site_fract_y
 _atom_site_fract_z
 _atom_site_occupancy
  Al  Al0  1  0.11434631  0.09345127  0.40690438  1
  Al  Al1  1  0.21798644  0.20355721  0.14796287  1
  Al  Al2  1  0.78706722  0.07969398  0.83171338  1
  Al  Al3  1  0.89075424  0.20172485  0.61795911  1
  Al  Al4  1  0.44524025  0.09193333  0.39065080  1
  Al  Al5  1  0.55528981  0.20551776  0.14536350  1
  Al  Al6  1  0.10407309  0.09770535  0.89301221  1
  Al  Al7  1  0.22559392  0.20476986  0.65316897  1
  Al  Al8  1  0.78752731  0.09839270  0.32870849  1
  Al  Al9  1  0.44864350  0.08861750  0.90350384  1
  Al  Al10  1  0.55320351  0.20056295  0.64605460  1
  Al  Al11  1  0.11047858  0.42613716  0.40047792  1
  Al  Al12  1  0.22478626  0.53704471  0.15440631  1
  Al  Al13  1  0.78037304  0.42236242  0.89166232  1
  Al  Al14  1  0.88986074  0.54803138  0.65166887  1
  Al  Al15  1  0.44731802  0.42568802  0.40001516  1
  Al  Al16  1  0.56104405  0.53492495  0.14755028  1
  Al  Al17  1  0.11073354  0.43030862  0.90058909  1
  Al  Al18  1  0.21498897  0.54432447  0.64775988  1
  Al  Al19  1  0.77486122  0.43171970  0.40739674  1
  Al  Al20  1  0.88539173  0.53355161  0.15145608  1
  Al  Al21  1  0.44387714  0.42744536  0.89790383  1
  Al  Al22  1  0.55326282  0.54393773  0.65331757  1
  Al  Al23  1  0.10392340  0.76523309  0.39234053  1
  Al  Al24  1  0.21979777  0.87892565  0.15230577  1
  Al  Al25  1  0.76879114  0.76226068  0.91104840  1
  Al  Al26  1  0.44495793  0.76129330  0.39310108  1
  Al  Al27  1  0.11509066  0.75885769  0.90727154  1
  Al  Al28  1  0.21769810  0.87349859  0.65082806  1
  Al  Al29  1  0.77743015  0.76546754  0.38339417  1
  Al  Al30  1  0.88859367  0.87529813  0.11707166  1
  Al  Al31  1  0.44558761  0.76575277  0.90416517  1
  Al  Al32  1  0.55982667  0.87406080  0.64543174  1
  B  B33  1  0.88713223  0.20799068  0.10627409  1
  B  B34  1  0.88594791  0.87202836  0.60442217  1
  B  B35  1  0.55686990  0.86587612  0.15379902  1
  N  N36  1  0.22019613  0.20496674  0.33628447  1
  N  N37  1  0.08035852  0.11019887  0.08953083  1
  N  N38  1  0.88956826  0.20718488  0.82478174  1
  N  N39  1  0.79327971  0.05408392  0.63307219  1
  N  N40  1  0.55346043  0.20604667  0.33590186  1
  N  N41  1  0.45680245  0.06932464  0.09551089  1
  N  N42  1  0.22472008  0.20509632  0.84446406  1
  N  N43  1  0.12319207  0.09024468  0.59493966  1
  N  N44  1  0.88560835  0.20345645  0.40338066  1
  N  N45  1  0.79385831  0.11851636  0.13073133  1
  N  N46  1  0.55190437  0.20580278  0.83808735  1
  N  N47  1  0.44451245  0.09311487  0.58161341  1
  N  N48  1  0.22339753  0.53763872  0.34388891  1
  N  N49  1  0.11072092  0.42952528  0.09046865  1
  N  N50  1  0.88764377  0.54321908  0.84236032  1
  N  N51  1  0.77283337  0.44267793  0.59639011  1
  N  N52  1  0.55762626  0.53672503  0.33631256  1
  N  N53  1  0.44473644  0.42672724  0.08699310  1
  N  N54  1  0.22098898  0.54149126  0.83664347  1
  N  N55  1  0.11164323  0.42651771  0.59044803  1
  N  N56  1  0.88851648  0.53657282  0.33990212  1
  N  N57  1  0.79330465  0.39858275  0.08818036  1
  N  N58  1  0.55341507  0.54259437  0.84409805  1
  N  N59  1  0.44562024  0.42831104  0.59042664  1
  N  N60  1  0.22031257  0.87452589  0.34064237  1
  N  N61  1  0.12646089  0.75409851  0.09492460  1
  N  N62  1  0.88491744  0.87512925  0.90797721  1
  N  N63  1  0.79177336  0.77569468  0.58348061  1
  N  N64  1  0.55371563  0.87166354  0.31935836  1
  N  N65  1  0.45440512  0.77448279  0.09760160  1
  N  N66  1  0.22295567  0.87105357  0.84139007  1
  N  N67  1  0.07973254  0.77713743  0.58955137  1
  N  N68  1  0.89092314  0.86855046  0.32176387  1
  N  N69  1  0.74642362  0.76475903  0.10150692  1
  N  N70  1  0.55707123  0.87163571  0.83324561  1
  N  N71  1  0.44378755  0.76281299  0.58521033  1
