# generated using pymatgen
data_Al11BN12
_symmetry_space_group_name_H-M   'P 1'
_cell_length_a   9.29430843
_cell_length_b   9.33220730
_cell_length_c   10.16747049
_cell_angle_alpha   90.18911860
_cell_angle_beta   89.72504676
_cell_angle_gamma   59.87581949
_symmetry_Int_Tables_number   1
_chemical_formula_structural   Al11BN12
_chemical_formula_sum   'Al33 B3 N36'
_cell_volume   762.75619451
_cell_formula_units_Z   3
loop_
 _symmetry_equiv_pos_site_id
 _symmetry_equiv_pos_as_xyz
  1  'x, y, z'
loop_
 _atom_site_type_symbol
 _atom_site_label
 _atom_site_symmetry_multiplicity
 _atom_site_fract_x
 _atom_site_fract_y
 _atom_site_fract_z
 _atom_site_occupancy
  Al  Al0  1  0.11621854  0.09405570  0.39584315  1
  Al  Al1  1  0.21360975  0.20450339  0.13558626  1
  Al  Al2  1  0.78144363  0.08372169  0.81951803  1
  Al  Al3  1  0.88942246  0.19978818  0.59776306  1
  Al  Al4  1  0.45298367  0.08574431  0.32414724  1
  Al  Al5  1  0.56410890  0.19856830  0.06569941  1
  Al  Al6  1  0.10095107  0.09838333  0.88713792  1
  Al  Al7  1  0.21510509  0.21088711  0.64235323  1
  Al  Al8  1  0.78322837  0.09917271  0.31689452  1
  Al  Al9  1  0.44904790  0.09143698  0.81560514  1
  Al  Al10  1  0.56124096  0.19729404  0.56369333  1
  Al  Al11  1  0.11157717  0.42805356  0.38831118  1
  Al  Al12  1  0.21665062  0.54135589  0.14309483  1
  Al  Al13  1  0.77442682  0.42702131  0.82037978  1
  Al  Al14  1  0.89699596  0.54339276  0.63741443  1
  Al  Al15  1  0.45033019  0.42351952  0.31763437  1
  Al  Al16  1  0.56212953  0.53262894  0.08977952  1
  Al  Al17  1  0.11159616  0.42837420  0.89077359  1
  Al  Al18  1  0.21077062  0.54712886  0.63711016  1
  Al  Al19  1  0.78263152  0.41809554  0.32876636  1
  Al  Al20  1  0.88866134  0.53293480  0.13168502  1
  Al  Al21  1  0.44845253  0.42328018  0.82464063  1
  Al  Al22  1  0.55320251  0.53904897  0.59254476  1
  Al  Al23  1  0.10162901  0.76820509  0.38519308  1
  Al  Al24  1  0.21925341  0.87995077  0.14312930  1
  Al  Al25  1  0.78011034  0.76864535  0.82918249  1
  Al  Al26  1  0.44003761  0.76428338  0.39186654  1
  Al  Al27  1  0.11527555  0.75883466  0.89726694  1
  Al  Al28  1  0.21347093  0.87648945  0.64576944  1
  Al  Al29  1  0.76860108  0.76766831  0.31957419  1
  Al  Al30  1  0.88674647  0.87814810  0.10009829  1
  Al  Al31  1  0.44474667  0.76838401  0.88983128  1
  Al  Al32  1  0.55999076  0.87502645  0.59657307  1
  B  B33  1  0.88754755  0.20659462  0.10330444  1
  B  B34  1  0.88931968  0.87126791  0.60488403  1
  B  B35  1  0.55393171  0.87103278  0.10477761  1
  N  N36  1  0.21822783  0.20773238  0.32370026  1
  N  N37  1  0.07985082  0.10873356  0.08154541  1
  N  N38  1  0.88967782  0.20116182  0.82169555  1
  N  N39  1  0.79143875  0.05808448  0.62342179  1
  N  N40  1  0.55880109  0.20380540  0.37639025  1
  N  N41  1  0.46467218  0.06090816  0.12531826  1
  N  N42  1  0.21570280  0.20761486  0.83445851  1
  N  N43  1  0.12212326  0.09021336  0.58161350  1
  N  N44  1  0.88353965  0.20623821  0.39428442  1
  N  N45  1  0.79173289  0.11692431  0.12314124  1
  N  N46  1  0.55673826  0.20132637  0.88030125  1
  N  N47  1  0.44348398  0.10340015  0.62604282  1
  N  N48  1  0.21743424  0.54351203  0.33375706  1
  N  N49  1  0.11253817  0.42779626  0.07715815  1
  N  N50  1  0.89322346  0.53875420  0.83233224  1
  N  N51  1  0.77388513  0.43640060  0.62334036  1
  N  N52  1  0.55568976  0.54334744  0.34479216  1
  N  N53  1  0.44764205  0.41727233  0.12692397  1
  N  N54  1  0.21378538  0.54422846  0.82624067  1
  N  N55  1  0.11308995  0.42671251  0.57473871  1
  N  N56  1  0.89375328  0.53729112  0.32454129  1
  N  N57  1  0.79753134  0.39148519  0.12277180  1
  N  N58  1  0.55519882  0.53581330  0.88495526  1
  N  N59  1  0.45105050  0.42008596  0.62984757  1
  N  N60  1  0.22008731  0.87620102  0.32921190  1
  N  N61  1  0.12656243  0.75499680  0.08249513  1
  N  N62  1  0.88218490  0.87683580  0.89875505  1
  N  N63  1  0.80209579  0.77573380  0.62418936  1
  N  N64  1  0.55974975  0.87553540  0.39492931  1
  N  N65  1  0.45257792  0.78426502  0.08541946  1
  N  N66  1  0.22011247  0.87257180  0.83333725  1
  N  N67  1  0.08080624  0.77935244  0.58086631  1
  N  N68  1  0.89151988  0.87143100  0.31256992  1
  N  N69  1  0.73970630  0.77198639  0.11994589  1
  N  N70  1  0.55546115  0.86582049  0.82258048  1
  N  N71  1  0.43201137  0.76220145  0.58184736  1
