# generated using pymatgen
data_Al11BN12
_symmetry_space_group_name_H-M   'P 1'
_cell_length_a   9.25607987
_cell_length_b   9.25578106
_cell_length_c   9.89708777
_cell_angle_alpha   90.02947295
_cell_angle_beta   90.03217164
_cell_angle_gamma   60.01830467
_symmetry_Int_Tables_number   1
_chemical_formula_structural   Al11BN12
_chemical_formula_sum   'Al33 B3 N36'
_cell_volume   734.44319576
_cell_formula_units_Z   3
loop_
 _symmetry_equiv_pos_site_id
 _symmetry_equiv_pos_as_xyz
  1  'x, y, z'
loop_
 _atom_site_type_symbol
 _atom_site_label
 _atom_site_symmetry_multiplicity
 _atom_site_fract_x
 _atom_site_fract_y
 _atom_site_fract_z
 _atom_site_occupancy
  Al  Al0  1  0.10835020  0.09551708  0.39691091  1
  Al  Al1  1  0.21982957  0.20265166  0.15351060  1
  Al  Al2  1  0.78157430  0.09409309  0.90129173  1
  Al  Al3  1  0.89048466  0.19997670  0.65198908  1
  Al  Al4  1  0.44581496  0.09213007  0.39635921  1
  Al  Al5  1  0.56249884  0.20194177  0.15371422  1
  Al  Al6  1  0.10600778  0.09675992  0.90788912  1
  Al  Al7  1  0.22321913  0.20331078  0.65317818  1
  Al  Al8  1  0.78175947  0.09063518  0.40156248  1
  Al  Al9  1  0.44731127  0.08862302  0.90830071  1
  Al  Al10  1  0.56021912  0.19825133  0.65337051  1
  Al  Al11  1  0.11059771  0.42781849  0.40385455  1
  Al  Al12  1  0.22069405  0.54101106  0.15435414  1
  Al  Al13  1  0.78067515  0.42242974  0.90768711  1
  Al  Al14  1  0.88883103  0.54285879  0.65322806  1
  Al  Al15  1  0.44475040  0.42786853  0.40416752  1
  Al  Al16  1  0.56072048  0.53677843  0.15342612  1
  Al  Al17  1  0.11108571  0.42767544  0.90380768  1
  Al  Al18  1  0.21723117  0.54215757  0.65352002  1
  Al  Al19  1  0.77901866  0.42481253  0.39724285  1
  Al  Al20  1  0.88456970  0.53897265  0.15359707  1
  Al  Al21  1  0.44429411  0.42749685  0.90331273  1
  Al  Al22  1  0.55691111  0.53935023  0.65372261  1
  Al  Al23  1  0.10542346  0.76418615  0.40795126  1
  Al  Al24  1  0.21862169  0.87671111  0.15318666  1
  Al  Al25  1  0.77387158  0.76520914  0.90117761  1
  Al  Al26  1  0.44575213  0.76218672  0.39620765  1
  Al  Al27  1  0.10823023  0.76260711  0.89632211  1
  Al  Al28  1  0.21848835  0.87454510  0.65286963  1
  Al  Al29  1  0.77778321  0.76502034  0.40082790  1
  Al  Al30  1  0.88507124  0.87792472  0.15201171  1
  Al  Al31  1  0.44722762  0.76413238  0.90761230  1
  Al  Al32  1  0.55972639  0.87347345  0.65166276  1
  B  B33  1  0.88882930  0.20462012  0.15596617  1
  B  B34  1  0.88806604  0.87310959  0.65487774  1
  B  B35  1  0.55614224  0.87277377  0.15657366  1
  N  N36  1  0.22164288  0.20622457  0.34307210  1
  N  N37  1  0.08532472  0.10696342  0.10168977  1
  N  N38  1  0.88936662  0.20565247  0.84011694  1
  N  N39  1  0.79094316  0.06968652  0.59797181  1
  N  N40  1  0.55791546  0.20526243  0.34501295  1
  N  N41  1  0.45687545  0.06999762  0.10262219  1
  N  N42  1  0.22351808  0.20301449  0.84779690  1
  N  N43  1  0.11001034  0.09508111  0.58931010  1
  N  N44  1  0.88799289  0.20429022  0.32394952  1
  N  N45  1  0.79100252  0.10594659  0.09704576  1
  N  N46  1  0.55618643  0.20298710  0.84697440  1
  N  N47  1  0.44468787  0.09309068  0.58914626  1
  N  N48  1  0.22096096  0.54129339  0.34701041  1
  N  N49  1  0.11049907  0.42828432  0.09511987  1
  N  N50  1  0.88696211  0.53965672  0.84682527  1
  N  N51  1  0.77932485  0.42517840  0.59062801  1
  N  N52  1  0.55547297  0.53834982  0.34319681  1
  N  N53  1  0.44377218  0.42786685  0.09493357  1
  N  N54  1  0.22231188  0.53825786  0.84362781  1
  N  N55  1  0.11109940  0.42641339  0.59521228  1
  N  N56  1  0.88780828  0.54087294  0.34491845  1
  N  N57  1  0.79080924  0.40214596  0.10163830  1
  N  N58  1  0.55675529  0.54000158  0.84779956  1
  N  N59  1  0.44501859  0.42682217  0.59645353  1
  N  N60  1  0.22063378  0.87065628  0.34436393  1
  N  N61  1  0.10835862  0.76229674  0.08909585  1
  N  N62  1  0.88676971  0.87340552  0.82475853  1
  N  N63  1  0.78949808  0.77387635  0.59755895  1
  N  N64  1  0.55755529  0.87146544  0.32378129  1
  N  N65  1  0.45629264  0.77397107  0.10215590  1
  N  N66  1  0.22368681  0.87360575  0.84634578  1
  N  N67  1  0.08598199  0.77416601  0.60256073  1
  N  N68  1  0.88947933  0.87211388  0.33970385  1
  N  N69  1  0.75364908  0.77476474  0.09763251  1
  N  N70  1  0.55502913  0.87261068  0.83985645  1
  N  N71  1  0.44561770  0.76204554  0.59011433  1
