# generated using pymatgen
data_Al11BN12
_symmetry_space_group_name_H-M   'P 1'
_cell_length_a   9.27785526
_cell_length_b   9.28804936
_cell_length_c   9.94379280
_cell_angle_alpha   90.00569663
_cell_angle_beta   89.81783855
_cell_angle_gamma   59.96280481
_symmetry_Int_Tables_number   1
_chemical_formula_structural   Al11BN12
_chemical_formula_sum   'Al33 B3 N36'
_cell_volume   741.80351216
_cell_formula_units_Z   3
loop_
 _symmetry_equiv_pos_site_id
 _symmetry_equiv_pos_as_xyz
  1  'x, y, z'
loop_
 _atom_site_type_symbol
 _atom_site_label
 _atom_site_symmetry_multiplicity
 _atom_site_fract_x
 _atom_site_fract_y
 _atom_site_fract_z
 _atom_site_occupancy
  Al  Al0  1  0.10874233  0.09614201  0.37733819  1
  Al  Al1  1  0.21824970  0.20358828  0.06529256  1
  Al  Al2  1  0.77739353  0.08599092  0.80373177  1
  Al  Al3  1  0.88674002  0.20359736  0.59316141  1
  Al  Al4  1  0.44803074  0.08800587  0.30689815  1
  Al  Al5  1  0.56401506  0.20227469  0.06354473  1
  Al  Al6  1  0.10415669  0.09686849  0.84000984  1
  Al  Al7  1  0.22995283  0.20785422  0.56644721  1
  Al  Al8  1  0.78239909  0.09351976  0.32526124  1
  Al  Al9  1  0.44622752  0.09159982  0.82145560  1
  Al  Al10  1  0.55952688  0.19793534  0.56026590  1
  Al  Al11  1  0.11214497  0.42853759  0.31127364  1
  Al  Al12  1  0.22137367  0.54034626  0.06111708  1
  Al  Al13  1  0.77490437  0.43252256  0.80651084  1
  Al  Al14  1  0.88995432  0.54679237  0.55960104  1
  Al  Al15  1  0.44404967  0.42761229  0.31245393  1
  Al  Al16  1  0.56246270  0.53404269  0.06377566  1
  Al  Al17  1  0.10992731  0.42827133  0.81333287  1
  Al  Al18  1  0.21834932  0.54243306  0.56342457  1
  Al  Al19  1  0.78073552  0.42285550  0.31848631  1
  Al  Al20  1  0.88549245  0.53649437  0.06386892  1
  Al  Al21  1  0.44691162  0.42644600  0.81257228  1
  Al  Al22  1  0.55492441  0.54262350  0.55932387  1
  Al  Al23  1  0.10845491  0.76108733  0.31950589  1
  Al  Al24  1  0.21685026  0.87649175  0.06638418  1
  Al  Al25  1  0.77831210  0.76388914  0.81616533  1
  Al  Al26  1  0.44722548  0.76455139  0.30730677  1
  Al  Al27  1  0.10494795  0.76382456  0.80918307  1
  Al  Al28  1  0.22387339  0.86497542  0.56698021  1
  Al  Al29  1  0.77324146  0.76557554  0.31369459  1
  Al  Al30  1  0.88578020  0.87874886  0.06509501  1
  Al  Al31  1  0.44595023  0.76157994  0.82158421  1
  Al  Al32  1  0.55956406  0.87323085  0.56554887  1
  B  B33  1  0.89212245  0.20283519  0.10667754  1
  B  B34  1  0.88350140  0.87364160  0.55991878  1
  B  B35  1  0.55646829  0.87231022  0.05918131  1
  N  N36  1  0.22762045  0.20759695  0.36968330  1
  N  N37  1  0.07637994  0.11099304  0.09367239  1
  N  N38  1  0.88324421  0.20595236  0.81349298  1
  N  N39  1  0.78637313  0.06244889  0.61088386  1
  N  N40  1  0.55439961  0.20356338  0.36818981  1
  N  N41  1  0.45727629  0.06951007  0.11353694  1
  N  N42  1  0.22184646  0.20668391  0.87362899  1
  N  N43  1  0.11989369  0.09123779  0.59426231  1
  N  N44  1  0.88163648  0.20989140  0.38744652  1
  N  N45  1  0.79363568  0.10773803  0.12632309  1
  N  N46  1  0.55865748  0.20396492  0.87320691  1
  N  N47  1  0.44763500  0.09262152  0.62962280  1
  N  N48  1  0.22277135  0.53803159  0.37341053  1
  N  N49  1  0.11088180  0.42854422  0.12104120  1
  N  N50  1  0.88696226  0.53981023  0.87323647  1
  N  N51  1  0.77340334  0.44202197  0.61598075  1
  N  N52  1  0.55399148  0.54198922  0.36672778  1
  N  N53  1  0.44389889  0.42748016  0.12133861  1
  N  N54  1  0.22172553  0.54057509  0.86960350  1
  N  N55  1  0.11086497  0.42900651  0.62287777  1
  N  N56  1  0.88874446  0.54115381  0.36719740  1
  N  N57  1  0.79337597  0.39663113  0.12160133  1
  N  N58  1  0.55684731  0.53763092  0.87471510  1
  N  N59  1  0.44744696  0.42596901  0.62001940  1
  N  N60  1  0.22711276  0.86565725  0.37098316  1
  N  N61  1  0.10812017  0.76103019  0.12749370  1
  N  N62  1  0.88821656  0.87323949  0.87777638  1
  N  N63  1  0.78956676  0.77368107  0.61885895  1
  N  N64  1  0.55438068  0.87283014  0.37702005  1
  N  N65  1  0.45673725  0.77343223  0.11386097  1
  N  N66  1  0.22094940  0.86898215  0.87301889  1
  N  N67  1  0.08657583  0.77277790  0.61588422  1
  N  N68  1  0.88778499  0.87013272  0.39047599  1
  N  N69  1  0.75346409  0.77468663  0.11810266  1
  N  N70  1  0.55754717  0.87103288  0.89292498  1
  N  N71  1  0.44652742  0.76154777  0.62872236  1
