# generated using pymatgen
data_Al11BN12
_symmetry_space_group_name_H-M   'P 1'
_cell_length_a   9.28796081
_cell_length_b   9.27523708
_cell_length_c   10.01340016
_cell_angle_alpha   90.04955592
_cell_angle_beta   89.75494492
_cell_angle_gamma   59.90655973
_symmetry_Int_Tables_number   1
_chemical_formula_structural   Al11BN12
_chemical_formula_sum   'Al33 B3 N36'
_cell_volume   746.34789138
_cell_formula_units_Z   3
loop_
 _symmetry_equiv_pos_site_id
 _symmetry_equiv_pos_as_xyz
  1  'x, y, z'
loop_
 _atom_site_type_symbol
 _atom_site_label
 _atom_site_symmetry_multiplicity
 _atom_site_fract_x
 _atom_site_fract_y
 _atom_site_fract_z
 _atom_site_occupancy
  Al  Al0  1  0.11365111  0.08895395  0.39699734  1
  Al  Al1  1  0.22228150  0.20483197  0.07560028  1
  Al  Al2  1  0.77695340  0.08675299  0.81244757  1
  Al  Al3  1  0.88902334  0.20242510  0.60261710  1
  Al  Al4  1  0.44799514  0.08915367  0.31752581  1
  Al  Al5  1  0.56329974  0.20275099  0.07311074  1
  Al  Al6  1  0.09535895  0.09660730  0.88768169  1
  Al  Al7  1  0.23075819  0.20813272  0.57458371  1
  Al  Al8  1  0.78263411  0.09407371  0.33594927  1
  Al  Al9  1  0.44490356  0.09159445  0.83116760  1
  Al  Al10  1  0.55926874  0.19911414  0.57038565  1
  Al  Al11  1  0.11261214  0.42801194  0.32187688  1
  Al  Al12  1  0.22099388  0.53942211  0.07081003  1
  Al  Al13  1  0.77590918  0.43092496  0.81504863  1
  Al  Al14  1  0.89026968  0.54646105  0.56964221  1
  Al  Al15  1  0.44415017  0.42838145  0.32276915  1
  Al  Al16  1  0.56231187  0.53387172  0.07312663  1
  Al  Al17  1  0.11014430  0.42434207  0.82277489  1
  Al  Al18  1  0.21773480  0.54472555  0.57360472  1
  Al  Al19  1  0.78226151  0.42170235  0.32913951  1
  Al  Al20  1  0.88578047  0.53641150  0.07359250  1
  Al  Al21  1  0.44640462  0.42622704  0.82223642  1
  Al  Al22  1  0.55440309  0.54413883  0.56963797  1
  Al  Al23  1  0.10624964  0.76030036  0.32999647  1
  Al  Al24  1  0.21457146  0.88184112  0.13432457  1
  Al  Al25  1  0.77722854  0.76347895  0.82539839  1
  Al  Al26  1  0.45431751  0.76240183  0.31737150  1
  Al  Al27  1  0.10006302  0.75870221  0.82297416  1
  Al  Al28  1  0.21830330  0.87721987  0.64588012  1
  Al  Al29  1  0.77458492  0.76567014  0.32390714  1
  Al  Al30  1  0.88395028  0.87846913  0.07414988  1
  Al  Al31  1  0.45080180  0.75926820  0.83599391  1
  Al  Al32  1  0.56045110  0.87374313  0.57551894  1
  B  B33  1  0.88730184  0.20493277  0.11551261  1
  B  B34  1  0.88486983  0.87330464  0.57141445  1
  B  B35  1  0.55824188  0.87057221  0.06940933  1
  N  N36  1  0.22821420  0.20766136  0.37876411  1
  N  N37  1  0.07343426  0.11120319  0.08739543  1
  N  N38  1  0.88696637  0.20359352  0.82085968  1
  N  N39  1  0.78602382  0.06356624  0.62092701  1
  N  N40  1  0.55473532  0.20437025  0.37909143  1
  N  N41  1  0.45800168  0.06938561  0.12495034  1
  N  N42  1  0.22194550  0.20439405  0.88574959  1
  N  N43  1  0.12137760  0.08901195  0.58728833  1
  N  N44  1  0.88384080  0.20854249  0.39446900  1
  N  N45  1  0.79292334  0.10816011  0.13623051  1
  N  N46  1  0.55837305  0.20377633  0.88360598  1
  N  N47  1  0.44726365  0.09365964  0.64014602  1
  N  N48  1  0.22314182  0.53880653  0.38459621  1
  N  N49  1  0.11046324  0.42797284  0.13250507  1
  N  N50  1  0.88690601  0.53889997  0.88359025  1
  N  N51  1  0.77398614  0.44093279  0.62568513  1
  N  N52  1  0.55460350  0.54212695  0.37794617  1
  N  N53  1  0.44330963  0.42827698  0.13232314  1
  N  N54  1  0.22175047  0.53694667  0.88085173  1
  N  N55  1  0.11120740  0.42884431  0.63324128  1
  N  N56  1  0.88906950  0.54127313  0.37789101  1
  N  N57  1  0.79330772  0.39625564  0.13180516  1
  N  N58  1  0.55820250  0.53503717  0.88559341  1
  N  N59  1  0.44659374  0.42772139  0.63082445  1
  N  N60  1  0.22290349  0.87630806  0.32853610  1
  N  N61  1  0.10292493  0.75811015  0.13491102  1
  N  N62  1  0.88458067  0.87455182  0.88835721  1
  N  N63  1  0.78979878  0.77377307  0.62935422  1
  N  N64  1  0.55594929  0.87367996  0.38785629  1
  N  N65  1  0.46250231  0.77091197  0.12162882  1
  N  N66  1  0.21814914  0.87176228  0.84437807  1
  N  N67  1  0.08354465  0.77343013  0.62687959  1
  N  N68  1  0.88794046  0.87063593  0.40147851  1
  N  N69  1  0.75369859  0.77431677  0.12880929  1
  N  N70  1  0.55841383  0.87146217  0.90437957  1
  N  N71  1  0.45304698  0.76041751  0.64020959  1
