# generated using pymatgen
data_Al11BN12
_symmetry_space_group_name_H-M   'P 1'
_cell_length_a   9.25130776
_cell_length_b   9.30469864
_cell_length_c   10.18918070
_cell_angle_alpha   90.15020415
_cell_angle_beta   89.63608330
_cell_angle_gamma   59.82544296
_symmetry_Int_Tables_number   1
_chemical_formula_structural   Al11BN12
_chemical_formula_sum   'Al33 B3 N36'
_cell_volume   758.21113857
_cell_formula_units_Z   3
loop_
 _symmetry_equiv_pos_site_id
 _symmetry_equiv_pos_as_xyz
  1  'x, y, z'
loop_
 _atom_site_type_symbol
 _atom_site_label
 _atom_site_symmetry_multiplicity
 _atom_site_fract_x
 _atom_site_fract_y
 _atom_site_fract_z
 _atom_site_occupancy
  Al  Al0  1  0.11651900  0.09314336  0.39706835  1
  Al  Al1  1  0.21278858  0.20701351  0.13399368  1
  Al  Al2  1  0.78025590  0.08606772  0.82013655  1
  Al  Al3  1  0.89016420  0.20062613  0.60080919  1
  Al  Al4  1  0.45582770  0.08380302  0.31143698  1
  Al  Al5  1  0.56161126  0.20372275  0.06628128  1
  Al  Al6  1  0.09642856  0.10170799  0.88835451  1
  Al  Al7  1  0.21757314  0.20751246  0.64733265  1
  Al  Al8  1  0.78278476  0.09800350  0.31921386  1
  Al  Al9  1  0.45068867  0.09034299  0.82898183  1
  Al  Al10  1  0.55975891  0.19434457  0.56753282  1
  Al  Al11  1  0.12115848  0.42100698  0.38887338  1
  Al  Al12  1  0.21631035  0.54287267  0.14580169  1
  Al  Al13  1  0.77502748  0.43319461  0.81137839  1
  Al  Al14  1  0.88435175  0.54971865  0.56713196  1
  Al  Al15  1  0.45249784  0.42127965  0.32181195  1
  Al  Al16  1  0.56179805  0.53033820  0.07469915  1
  Al  Al17  1  0.11735638  0.42725763  0.89154567  1
  Al  Al18  1  0.21035978  0.54548818  0.63743664  1
  Al  Al19  1  0.78681275  0.41910848  0.32541559  1
  Al  Al20  1  0.87699814  0.53960102  0.06768578  1
  Al  Al21  1  0.45168083  0.42552416  0.81721715  1
  Al  Al22  1  0.55698012  0.53599733  0.56578205  1
  Al  Al23  1  0.09867612  0.76812397  0.38725472  1
  Al  Al24  1  0.21744569  0.87971482  0.14157745  1
  Al  Al25  1  0.78098935  0.76396741  0.83127336  1
  Al  Al26  1  0.44220370  0.76333747  0.36788424  1
  Al  Al27  1  0.11408812  0.75953022  0.89710952  1
  Al  Al28  1  0.21795622  0.87418603  0.64593382  1
  Al  Al29  1  0.77212969  0.76008754  0.30699734  1
  Al  Al30  1  0.88567438  0.87782398  0.09908372  1
  Al  Al31  1  0.43938114  0.76725150  0.89061822  1
  Al  Al32  1  0.55907106  0.87550579  0.57266493  1
  B  B33  1  0.88636983  0.20873841  0.10790727  1
  B  B34  1  0.88687794  0.87090857  0.61020826  1
  B  B35  1  0.55848490  0.87250854  0.06410098  1
  N  N36  1  0.21911704  0.20484596  0.32166727  1
  N  N37  1  0.07714296  0.11163916  0.08173454  1
  N  N38  1  0.88735259  0.20518438  0.81832676  1
  N  N39  1  0.79109476  0.05656510  0.62464091  1
  N  N40  1  0.55687167  0.20041802  0.37966339  1
  N  N41  1  0.46361153  0.06708462  0.11997519  1
  N  N42  1  0.21526381  0.20763478  0.83709774  1
  N  N43  1  0.12422396  0.08849278  0.58198419  1
  N  N44  1  0.88325035  0.20652476  0.39457076  1
  N  N45  1  0.79061642  0.11913204  0.12460052  1
  N  N46  1  0.55575613  0.20788554  0.88119794  1
  N  N47  1  0.45215364  0.08937778  0.63958498  1
  N  N48  1  0.21827862  0.54353641  0.33516169  1
  N  N49  1  0.11450138  0.42886651  0.08020715  1
  N  N50  1  0.88231514  0.54082518  0.87981213  1
  N  N51  1  0.77478674  0.44002246  0.62550806  1
  N  N52  1  0.55994184  0.53385917  0.37543286  1
  N  N53  1  0.45063344  0.42116973  0.13337664  1
  N  N54  1  0.21484312  0.54512055  0.82494058  1
  N  N55  1  0.11892753  0.42088054  0.57714349  1
  N  N56  1  0.88480169  0.54434202  0.37638796  1
  N  N57  1  0.79550378  0.39798505  0.13100294  1
  N  N58  1  0.55727402  0.53499401  0.88591749  1
  N  N59  1  0.45350062  0.42016047  0.62704668  1
  N  N60  1  0.21663845  0.87563030  0.32851613  1
  N  N61  1  0.12478636  0.75517566  0.08149356  1
  N  N62  1  0.88174330  0.87804856  0.89607408  1
  N  N63  1  0.79477747  0.77325269  0.63420558  1
  N  N64  1  0.55971527  0.87438748  0.38504630  1
  N  N65  1  0.45139515  0.77615517  0.09290664  1
  N  N66  1  0.21750473  0.87573650  0.83377677  1
  N  N67  1  0.07814249  0.77778443  0.58253862  1
  N  N68  1  0.89016888  0.87033164  0.31290922  1
  N  N69  1  0.74622727  0.76764517  0.11958457  1
  N  N70  1  0.55971639  0.87710430  0.89981030  1
  N  N71  1  0.44147366  0.76153631  0.59490795  1
