# generated using pymatgen
data_Al11BN12
_symmetry_space_group_name_H-M   'P 1'
_cell_length_a   9.28218219
_cell_length_b   9.27125966
_cell_length_c   10.04779054
_cell_angle_alpha   90.02926329
_cell_angle_beta   89.76142655
_cell_angle_gamma   59.87387889
_symmetry_Int_Tables_number   1
_chemical_formula_structural   Al11BN12
_chemical_formula_sum   'Al33 B3 N36'
_cell_volume   747.87836461
_cell_formula_units_Z   3
loop_
 _symmetry_equiv_pos_site_id
 _symmetry_equiv_pos_as_xyz
  1  'x, y, z'
loop_
 _atom_site_type_symbol
 _atom_site_label
 _atom_site_symmetry_multiplicity
 _atom_site_fract_x
 _atom_site_fract_y
 _atom_site_fract_z
 _atom_site_occupancy
  Al  Al0  1  0.11297594  0.08847328  0.39681795  1
  Al  Al1  1  0.22291080  0.20526760  0.07543127  1
  Al  Al2  1  0.77699576  0.08754394  0.81523577  1
  Al  Al3  1  0.88890237  0.20202583  0.60254208  1
  Al  Al4  1  0.44813657  0.08906527  0.31773481  1
  Al  Al5  1  0.56301868  0.20301966  0.07266682  1
  Al  Al6  1  0.09563146  0.09742958  0.88829015  1
  Al  Al7  1  0.23066053  0.20785275  0.57369241  1
  Al  Al8  1  0.78254907  0.09379340  0.33315457  1
  Al  Al9  1  0.44498621  0.09158547  0.83055499  1
  Al  Al10  1  0.55988388  0.19825653  0.57012049  1
  Al  Al11  1  0.11217186  0.42856395  0.32210166  1
  Al  Al12  1  0.22248944  0.53806814  0.07000410  1
  Al  Al13  1  0.77595743  0.43115712  0.81457862  1
  Al  Al14  1  0.89018927  0.54666207  0.56944590  1
  Al  Al15  1  0.44383031  0.42861750  0.32297864  1
  Al  Al16  1  0.56247658  0.53384250  0.07294024  1
  Al  Al17  1  0.11054703  0.42410408  0.82196896  1
  Al  Al18  1  0.21657807  0.54568334  0.57330243  1
  Al  Al19  1  0.78204036  0.42160849  0.32932905  1
  Al  Al20  1  0.88632246  0.53551079  0.07317864  1
  Al  Al21  1  0.44666064  0.42613895  0.82141051  1
  Al  Al22  1  0.55405264  0.54429562  0.56912704  1
  Al  Al23  1  0.10556133  0.76055128  0.32521465  1
  Al  Al24  1  0.21569012  0.88253872  0.13302723  1
  Al  Al25  1  0.77718475  0.76322867  0.82837736  1
  Al  Al26  1  0.45392015  0.76260044  0.31691408  1
  Al  Al27  1  0.10057732  0.75876913  0.82721883  1
  Al  Al28  1  0.21713559  0.87773524  0.64767743  1
  Al  Al29  1  0.77426064  0.76555057  0.32148817  1
  Al  Al30  1  0.88420485  0.87829738  0.07592058  1
  Al  Al31  1  0.45116775  0.75899490  0.83563248  1
  Al  Al32  1  0.56054342  0.87355789  0.57538150  1
  B  B33  1  0.88714511  0.20585605  0.11433704  1
  B  B34  1  0.88549509  0.87194361  0.58423668  1
  B  B35  1  0.55862324  0.86960255  0.06915252  1
  N  N36  1  0.22779472  0.20770818  0.37884580  1
  N  N37  1  0.07360813  0.11217465  0.08646372  1
  N  N38  1  0.88757712  0.20380194  0.82070741  1
  N  N39  1  0.78652665  0.06208123  0.62384022  1
  N  N40  1  0.55479492  0.20450348  0.37947093  1
  N  N41  1  0.45850366  0.06928245  0.12532611  1
  N  N42  1  0.22248182  0.20471798  0.88594560  1
  N  N43  1  0.12130501  0.08836577  0.58657132  1
  N  N44  1  0.88254935  0.20844293  0.39514806  1
  N  N45  1  0.79271942  0.10967378  0.13406447  1
  N  N46  1  0.55776355  0.20419062  0.88374596  1
  N  N47  1  0.44719213  0.09348409  0.63998801  1
  N  N48  1  0.22232760  0.54028103  0.38463086  1
  N  N49  1  0.11077734  0.42832564  0.13299731  1
  N  N50  1  0.88765759  0.53794320  0.88378220  1
  N  N51  1  0.77372815  0.44115366  0.62584202  1
  N  N52  1  0.55416141  0.54246878  0.37809035  1
  N  N53  1  0.44395755  0.42794197  0.13282239  1
  N  N54  1  0.22260905  0.53578141  0.88080465  1
  N  N55  1  0.11122497  0.42860100  0.63296412  1
  N  N56  1  0.88844544  0.54144812  0.37836475  1
  N  N57  1  0.79341828  0.39679192  0.13211602  1
  N  N58  1  0.55835347  0.53479816  0.88570135  1
  N  N59  1  0.44633342  0.42774724  0.63053405  1
  N  N60  1  0.22231602  0.87688748  0.32640140  1
  N  N61  1  0.10600177  0.75751469  0.13074059  1
  N  N62  1  0.88412071  0.87497358  0.89047394  1
  N  N63  1  0.79022153  0.77384037  0.63224278  1
  N  N64  1  0.55604579  0.87314432  0.38807194  1
  N  N65  1  0.46293401  0.77077458  0.12133822  1
  N  N66  1  0.21836082  0.87240731  0.84468716  1
  N  N67  1  0.08099461  0.77392935  0.63079085  1
  N  N68  1  0.88737516  0.87069347  0.39064558  1
  N  N69  1  0.75329024  0.77288049  0.12707981  1
  N  N70  1  0.55771007  0.87171839  0.90442410  1
  N  N71  1  0.45247480  0.76042946  0.64043682  1
