# generated using pymatgen
data_Al11BN12
_symmetry_space_group_name_H-M   'P 1'
_cell_length_a   9.27105420
_cell_length_b   9.32251880
_cell_length_c   10.19570186
_cell_angle_alpha   90.29209744
_cell_angle_beta   89.68080062
_cell_angle_gamma   59.85324315
_symmetry_Int_Tables_number   1
_chemical_formula_structural   Al11BN12
_chemical_formula_sum   'Al33 B3 N36'
_cell_volume   761.97576283
_cell_formula_units_Z   3
loop_
 _symmetry_equiv_pos_site_id
 _symmetry_equiv_pos_as_xyz
  1  'x, y, z'
loop_
 _atom_site_type_symbol
 _atom_site_label
 _atom_site_symmetry_multiplicity
 _atom_site_fract_x
 _atom_site_fract_y
 _atom_site_fract_z
 _atom_site_occupancy
  Al  Al0  1  0.11534555  0.09407214  0.39684393  1
  Al  Al1  1  0.21324464  0.20455307  0.13732236  1
  Al  Al2  1  0.77990171  0.08445727  0.82039274  1
  Al  Al3  1  0.88935416  0.20002494  0.60113091  1
  Al  Al4  1  0.45383864  0.08433290  0.32450767  1
  Al  Al5  1  0.56258483  0.20030421  0.06709977  1
  Al  Al6  1  0.09757847  0.10102261  0.88718897  1
  Al  Al7  1  0.21410750  0.21115439  0.64310095  1
  Al  Al8  1  0.78368105  0.09820209  0.31810603  1
  Al  Al9  1  0.44814998  0.09324288  0.81637311  1
  Al  Al10  1  0.56128754  0.19596194  0.56359066  1
  Al  Al11  1  0.11358167  0.42659634  0.38547574  1
  Al  Al12  1  0.21885213  0.54174310  0.14546749  1
  Al  Al13  1  0.77292673  0.43188148  0.81661202  1
  Al  Al14  1  0.89175249  0.54664687  0.60893114  1
  Al  Al15  1  0.45294494  0.42316865  0.32077263  1
  Al  Al16  1  0.56351805  0.52826847  0.07130902  1
  Al  Al17  1  0.11363718  0.42794519  0.89256166  1
  Al  Al18  1  0.21227101  0.54644475  0.63610746  1
  Al  Al19  1  0.78328618  0.41811612  0.32425060  1
  Al  Al20  1  0.88467198  0.53559775  0.10699141  1
  Al  Al21  1  0.45005345  0.42412002  0.81820278  1
  Al  Al22  1  0.55728789  0.53272952  0.56608494  1
  Al  Al23  1  0.10182428  0.76811961  0.38565366  1
  Al  Al24  1  0.22027052  0.87922044  0.14256058  1
  Al  Al25  1  0.78219362  0.76460181  0.83033000  1
  Al  Al26  1  0.43861279  0.76814764  0.39509827  1
  Al  Al27  1  0.11499201  0.75868237  0.89705097  1
  Al  Al28  1  0.21488631  0.87546822  0.64651531  1
  Al  Al29  1  0.76989681  0.76541577  0.31613040  1
  Al  Al30  1  0.88702696  0.87844813  0.10004340  1
  Al  Al31  1  0.44333641  0.77052052  0.88698034  1
  Al  Al32  1  0.55804366  0.87444416  0.60179066  1
  B  B33  1  0.88606331  0.20669726  0.10544848  1
  B  B34  1  0.89063311  0.87058080  0.60641999  1
  B  B35  1  0.55365379  0.87130576  0.10480863  1
  N  N36  1  0.21886258  0.20582544  0.32430109  1
  N  N37  1  0.07789742  0.11034579  0.08192240  1
  N  N38  1  0.88640832  0.20413575  0.82008140  1
  N  N39  1  0.79152613  0.05680087  0.62426879  1
  N  N40  1  0.55893473  0.20249000  0.37683471  1
  N  N41  1  0.46373076  0.06129622  0.12550710  1
  N  N42  1  0.21402363  0.20850547  0.83410626  1
  N  N43  1  0.12199319  0.08959687  0.58200523  1
  N  N44  1  0.88273084  0.20712368  0.39461792  1
  N  N45  1  0.79097023  0.11693903  0.12396231  1
  N  N46  1  0.55445181  0.20463688  0.88177531  1
  N  N47  1  0.44299849  0.10368054  0.62732646  1
  N  N48  1  0.21934889  0.54331555  0.33473715  1
  N  N49  1  0.11838122  0.42556878  0.07974617  1
  N  N50  1  0.88570433  0.54055711  0.86501640  1
  N  N51  1  0.77310692  0.43935905  0.62662334  1
  N  N52  1  0.55944515  0.53549648  0.37608351  1
  N  N53  1  0.45203260  0.41984401  0.13194681  1
  N  N54  1  0.21382981  0.54429918  0.82430255  1
  N  N55  1  0.11509107  0.42556019  0.57348469  1
  N  N56  1  0.89242109  0.53775126  0.33179963  1
  N  N57  1  0.79320577  0.39378244  0.12655347  1
  N  N58  1  0.55367588  0.53616369  0.88552655  1
  N  N59  1  0.45416865  0.41933350  0.62796429  1
  N  N60  1  0.22103327  0.87551446  0.32848662  1
  N  N61  1  0.12742405  0.75422566  0.08186490  1
  N  N62  1  0.88141145  0.87761918  0.89887663  1
  N  N63  1  0.80318764  0.77386242  0.62770398  1
  N  N64  1  0.56166702  0.87472850  0.39524836  1
  N  N65  1  0.45428167  0.78225000  0.08462166  1
  N  N66  1  0.21805191  0.87450549  0.83376663  1
  N  N67  1  0.08127941  0.77878556  0.58076159  1
  N  N68  1  0.89256387  0.87058253  0.31205265  1
  N  N69  1  0.73942588  0.77391285  0.12052400  1
  N  N70  1  0.55557116  0.86702196  0.82141103  1
  N  N71  1  0.43300481  0.76103946  0.58422026  1
