# generated using pymatgen
data_Al11BN12
_symmetry_space_group_name_H-M   'P 1'
_cell_length_a   9.25265827
_cell_length_b   9.30422878
_cell_length_c   10.18146755
_cell_angle_alpha   90.13724328
_cell_angle_beta   89.62855378
_cell_angle_gamma   59.82463158
_symmetry_Int_Tables_number   1
_chemical_formula_structural   Al11BN12
_chemical_formula_sum   'Al33 B3 N36'
_cell_volume   757.70356646
_cell_formula_units_Z   3
loop_
 _symmetry_equiv_pos_site_id
 _symmetry_equiv_pos_as_xyz
  1  'x, y, z'
loop_
 _atom_site_type_symbol
 _atom_site_label
 _atom_site_symmetry_multiplicity
 _atom_site_fract_x
 _atom_site_fract_y
 _atom_site_fract_z
 _atom_site_occupancy
  Al  Al0  1  0.11690103  0.09277217  0.39719118  1
  Al  Al1  1  0.21286725  0.20702817  0.13404936  1
  Al  Al2  1  0.78025387  0.08605871  0.82009591  1
  Al  Al3  1  0.89013344  0.20068574  0.60068624  1
  Al  Al4  1  0.45580531  0.08404899  0.31175633  1
  Al  Al5  1  0.56160755  0.20379001  0.06638889  1
  Al  Al6  1  0.09608499  0.10206194  0.88847639  1
  Al  Al7  1  0.21774548  0.20738457  0.64727870  1
  Al  Al8  1  0.78288656  0.09799410  0.31929353  1
  Al  Al9  1  0.45066294  0.09017814  0.82911327  1
  Al  Al10  1  0.55984978  0.19437771  0.56773475  1
  Al  Al11  1  0.12114091  0.42098753  0.38896813  1
  Al  Al12  1  0.21633721  0.54276318  0.14585928  1
  Al  Al13  1  0.77504601  0.43317561  0.81113573  1
  Al  Al14  1  0.88428340  0.54976360  0.56732667  1
  Al  Al15  1  0.45244630  0.42132417  0.32213125  1
  Al  Al16  1  0.56166991  0.53053842  0.07444922  1
  Al  Al17  1  0.11731231  0.42727442  0.89146943  1
  Al  Al18  1  0.21051305  0.54547186  0.63732662  1
  Al  Al19  1  0.78698075  0.41898396  0.32566676  1
  Al  Al20  1  0.87701690  0.53957949  0.06781606  1
  Al  Al21  1  0.45169718  0.42542687  0.81705187  1
  Al  Al22  1  0.55600964  0.53822523  0.56598781  1
  Al  Al23  1  0.09895616  0.76805798  0.38745017  1
  Al  Al24  1  0.21586107  0.88055937  0.14066316  1
  Al  Al25  1  0.78068286  0.76401783  0.83124664  1
  Al  Al26  1  0.44492097  0.76237624  0.35313470  1
  Al  Al27  1  0.11367032  0.75949753  0.89719617  1
  Al  Al28  1  0.21805980  0.87419757  0.64633459  1
  Al  Al29  1  0.77257744  0.76009943  0.30737429  1
  Al  Al30  1  0.88543177  0.87784221  0.09909148  1
  Al  Al31  1  0.44023858  0.76640216  0.88408148  1
  Al  Al32  1  0.55797330  0.87477505  0.57292874  1
  B  B33  1  0.88616128  0.20895269  0.10796399  1
  B  B34  1  0.88683553  0.87090027  0.61020382  1
  B  B35  1  0.55851156  0.87226352  0.06462687  1
  N  N36  1  0.21920406  0.20479240  0.32179885  1
  N  N37  1  0.07689212  0.11201196  0.08181345  1
  N  N38  1  0.88712474  0.20533986  0.81847886  1
  N  N39  1  0.79119185  0.05658067  0.62464509  1
  N  N40  1  0.55703282  0.20038711  0.37972923  1
  N  N41  1  0.46366924  0.06712360  0.12020823  1
  N  N42  1  0.21527625  0.20758149  0.83719457  1
  N  N43  1  0.12432536  0.08835044  0.58205516  1
  N  N44  1  0.88344851  0.20639411  0.39452106  1
  N  N45  1  0.79060690  0.11914609  0.12462075  1
  N  N46  1  0.55572516  0.20778846  0.88120303  1
  N  N47  1  0.45229497  0.08930080  0.63950857  1
  N  N48  1  0.21831571  0.54348465  0.33527183  1
  N  N49  1  0.11448784  0.42884584  0.08025450  1
  N  N50  1  0.88222198  0.54083850  0.87980898  1
  N  N51  1  0.77484342  0.43977682  0.62517150  1
  N  N52  1  0.55945725  0.53487961  0.37557897  1
  N  N53  1  0.45065847  0.42128977  0.13351153  1
  N  N54  1  0.21491051  0.54510365  0.82499351  1
  N  N55  1  0.11890487  0.42090185  0.57725323  1
  N  N56  1  0.88487392  0.54430852  0.37637526  1
  N  N57  1  0.79533628  0.39809607  0.13110568  1
  N  N58  1  0.55733852  0.53480188  0.88635333  1
  N  N59  1  0.45360535  0.42037640  0.62676234  1
  N  N60  1  0.21632426  0.87568017  0.32820964  1
  N  N61  1  0.12438249  0.75504657  0.08156397  1
  N  N62  1  0.88133040  0.87806689  0.89615972  1
  N  N63  1  0.79470393  0.77339656  0.63415020  1
  N  N64  1  0.55918538  0.87385623  0.38507851  1
  N  N65  1  0.45247783  0.77557438  0.09785597  1
  N  N66  1  0.21600602  0.87648941  0.83483394  1
  N  N67  1  0.07823890  0.77779246  0.58260956  1
  N  N68  1  0.89027282  0.87038692  0.31317950  1
  N  N69  1  0.74643550  0.76762401  0.11983748  1
  N  N70  1  0.55911506  0.87675056  0.90092660  1
  N  N71  1  0.44378192  0.76069388  0.60511447  1
