# generated using pymatgen
data_Al11BN12
_symmetry_space_group_name_H-M   'P 1'
_cell_length_a   9.25141665
_cell_length_b   9.25274444
_cell_length_c   9.93358638
_cell_angle_alpha   90.02292578
_cell_angle_beta   90.00715935
_cell_angle_gamma   59.99443411
_symmetry_Int_Tables_number   1
_chemical_formula_structural   Al11BN12
_chemical_formula_sum   'Al33 B3 N36'
_cell_volume   736.36156985
_cell_formula_units_Z   3
loop_
 _symmetry_equiv_pos_site_id
 _symmetry_equiv_pos_as_xyz
  1  'x, y, z'
loop_
 _atom_site_type_symbol
 _atom_site_label
 _atom_site_symmetry_multiplicity
 _atom_site_fract_x
 _atom_site_fract_y
 _atom_site_fract_z
 _atom_site_occupancy
  Al  Al0  1  0.10852591  0.09627838  0.39262577  1
  Al  Al1  1  0.22011434  0.20261227  0.14822608  1
  Al  Al2  1  0.78129574  0.09424525  0.90043443  1
  Al  Al3  1  0.89050472  0.19920618  0.64716905  1
  Al  Al4  1  0.44543183  0.09228292  0.39184205  1
  Al  Al5  1  0.56170027  0.20230418  0.14925125  1
  Al  Al6  1  0.10555550  0.09643496  0.90280621  1
  Al  Al7  1  0.22309610  0.20351300  0.64917390  1
  Al  Al8  1  0.78188755  0.09123991  0.39125911  1
  Al  Al9  1  0.44801270  0.08838898  0.90306092  1
  Al  Al10  1  0.56075052  0.19751946  0.64847453  1
  Al  Al11  1  0.11091427  0.42744377  0.39949118  1
  Al  Al12  1  0.22234125  0.53935133  0.15026210  1
  Al  Al13  1  0.78053026  0.42237644  0.90245934  1
  Al  Al14  1  0.88888189  0.54363570  0.64845796  1
  Al  Al15  1  0.44512225  0.42774770  0.39998830  1
  Al  Al16  1  0.56061693  0.53674520  0.14841726  1
  Al  Al17  1  0.11046873  0.42857960  0.89869333  1
  Al  Al18  1  0.21610253  0.54308261  0.64872953  1
  Al  Al19  1  0.77874051  0.42516603  0.39317573  1
  Al  Al20  1  0.88496294  0.53738969  0.14941653  1
  Al  Al21  1  0.44396195  0.42754758  0.89808748  1
  Al  Al22  1  0.55672272  0.53944772  0.64978376  1
  Al  Al23  1  0.10621207  0.76384180  0.39791663  1
  Al  Al24  1  0.22012625  0.87727432  0.14947735  1
  Al  Al25  1  0.77339867  0.76497348  0.90067671  1
  Al  Al26  1  0.44587650  0.76203261  0.39239683  1
  Al  Al27  1  0.10803742  0.76269193  0.89639581  1
  Al  Al28  1  0.21725860  0.87493418  0.64800095  1
  Al  Al29  1  0.77731833  0.76502571  0.39057616  1
  Al  Al30  1  0.88596475  0.87736921  0.14269657  1
  Al  Al31  1  0.44668426  0.76435251  0.90241948  1
  Al  Al32  1  0.56025774  0.87385330  0.64694384  1
  B  B33  1  0.88814211  0.20568090  0.15123239  1
  B  B34  1  0.88789197  0.87304601  0.62798159  1
  B  B35  1  0.55630508  0.87130293  0.15187371  1
  N  N36  1  0.22174010  0.20645679  0.33767344  1
  N  N37  1  0.08556338  0.10702229  0.09639077  1
  N  N38  1  0.88844575  0.20533990  0.83476782  1
  N  N39  1  0.79213227  0.06737927  0.58845566  1
  N  N40  1  0.55692693  0.20572395  0.33986452  1
  N  N41  1  0.45744367  0.06970816  0.09715675  1
  N  N42  1  0.22336427  0.20314605  0.84293782  1
  N  N43  1  0.10993282  0.09540634  0.58451217  1
  N  N44  1  0.88866264  0.20546460  0.31907435  1
  N  N45  1  0.79017870  0.10871448  0.09512917  1
  N  N46  1  0.55662383  0.20318810  0.84123617  1
  N  N47  1  0.44454190  0.09326063  0.58419374  1
  N  N48  1  0.22194510  0.53982270  0.34210385  1
  N  N49  1  0.11052640  0.42860744  0.08973949  1
  N  N50  1  0.88610815  0.54017806  0.84123825  1
  N  N51  1  0.77911411  0.42535112  0.58597459  1
  N  N52  1  0.55537972  0.53843453  0.33806668  1
  N  N53  1  0.44436285  0.42721756  0.08933419  1
  N  N54  1  0.22174490  0.53944318  0.83818184  1
  N  N55  1  0.11100880  0.42655569  0.59027976  1
  N  N56  1  0.88847336  0.53971445  0.34003283  1
  N  N57  1  0.79081928  0.40219931  0.09630163  1
  N  N58  1  0.55644593  0.54009128  0.84291706  1
  N  N59  1  0.44491932  0.42698156  0.59163944  1
  N  N60  1  0.22131730  0.87169921  0.33993702  1
  N  N61  1  0.11314854  0.76041873  0.08823100  1
  N  N62  1  0.88615525  0.87324693  0.84035084  1
  N  N63  1  0.79050609  0.77547086  0.58815780  1
  N  N64  1  0.55597740  0.87198566  0.31893924  1
  N  N65  1  0.45620829  0.77397361  0.09691957  1
  N  N66  1  0.22308463  0.87303501  0.84072693  1
  N  N67  1  0.08316040  0.77548536  0.59303128  1
  N  N68  1  0.88964480  0.87204081  0.33093424  1
  N  N69  1  0.75213700  0.77244174  0.09595474  1
  N  N70  1  0.55567336  0.87188749  0.83459223  1
  N  N71  1  0.44560353  0.76209171  0.58565346  1
