# generated using pymatgen
data_Al11BN12
_symmetry_space_group_name_H-M   'P 1'
_cell_length_a   9.29319670
_cell_length_b   9.29169473
_cell_length_c   9.94775046
_cell_angle_alpha   90.00407634
_cell_angle_beta   89.75981241
_cell_angle_gamma   59.95530678
_symmetry_Int_Tables_number   1
_chemical_formula_structural   Al11BN12
_chemical_formula_sum   'Al33 B3 N36'
_cell_volume   743.55762433
_cell_formula_units_Z   3
loop_
 _symmetry_equiv_pos_site_id
 _symmetry_equiv_pos_as_xyz
  1  'x, y, z'
loop_
 _atom_site_type_symbol
 _atom_site_label
 _atom_site_symmetry_multiplicity
 _atom_site_fract_x
 _atom_site_fract_y
 _atom_site_fract_z
 _atom_site_occupancy
  Al  Al0  1  0.11158489  0.09218931  0.38199666  1
  Al  Al1  1  0.22160420  0.20487592  0.06641896  1
  Al  Al2  1  0.77735594  0.08620068  0.80223719  1
  Al  Al3  1  0.88815881  0.20328171  0.59256599  1
  Al  Al4  1  0.44806794  0.08850801  0.30698772  1
  Al  Al5  1  0.56369683  0.20244748  0.06312053  1
  Al  Al6  1  0.09554779  0.09875983  0.87438732  1
  Al  Al7  1  0.23036525  0.20847037  0.56428184  1
  Al  Al8  1  0.78266309  0.09416166  0.32542600  1
  Al  Al9  1  0.44512488  0.09152571  0.82112727  1
  Al  Al10  1  0.55910697  0.19870923  0.55972320  1
  Al  Al11  1  0.11231790  0.42899018  0.31144347  1
  Al  Al12  1  0.22115933  0.53877480  0.06009017  1
  Al  Al13  1  0.77583748  0.43136226  0.80499141  1
  Al  Al14  1  0.89010827  0.54687388  0.55892275  1
  Al  Al15  1  0.44374972  0.42864595  0.31250390  1
  Al  Al16  1  0.56344255  0.53277685  0.06279929  1
  Al  Al17  1  0.11024641  0.42541609  0.81264682  1
  Al  Al18  1  0.21837151  0.54338359  0.56340842  1
  Al  Al19  1  0.78103288  0.42289231  0.31882323  1
  Al  Al20  1  0.88568154  0.53660555  0.06356467  1
  Al  Al21  1  0.44695950  0.42583903  0.81206293  1
  Al  Al22  1  0.55442391  0.54341542  0.55907048  1
  Al  Al23  1  0.10738908  0.76128989  0.31747250  1
  Al  Al24  1  0.21790357  0.87513222  0.09103714  1
  Al  Al25  1  0.77821022  0.76344878  0.81513411  1
  Al  Al26  1  0.45065170  0.76398198  0.30502288  1
  Al  Al27  1  0.10383104  0.76148996  0.81429575  1
  Al  Al28  1  0.22096156  0.87063223  0.60126518  1
  Al  Al29  1  0.77376875  0.76593759  0.31354197  1
  Al  Al30  1  0.88395155  0.87866215  0.06383760  1
  Al  Al31  1  0.44730907  0.76085485  0.82695078  1
  Al  Al32  1  0.55971201  0.87390240  0.56534285  1
  B  B33  1  0.88838853  0.20502402  0.10599607  1
  B  B34  1  0.88211735  0.87484284  0.55927069  1
  B  B35  1  0.55890075  0.87019064  0.05821068  1
  N  N36  1  0.22787874  0.20839552  0.36744482  1
  N  N37  1  0.07297324  0.11337856  0.08044078  1
  N  N38  1  0.88652206  0.20388890  0.80935188  1
  N  N39  1  0.78586730  0.06318078  0.60975896  1
  N  N40  1  0.55455547  0.20418868  0.36779310  1
  N  N41  1  0.45824132  0.06897306  0.11377399  1
  N  N42  1  0.22200851  0.20531329  0.87478357  1
  N  N43  1  0.12003360  0.09118613  0.57950717  1
  N  N44  1  0.88248372  0.20990448  0.38451361  1
  N  N45  1  0.79333678  0.10810397  0.12555978  1
  N  N46  1  0.55886098  0.20346237  0.87265800  1
  N  N47  1  0.44703305  0.09335787  0.62912765  1
  N  N48  1  0.22257056  0.53936716  0.37365437  1
  N  N49  1  0.11039642  0.42825920  0.12139801  1
  N  N50  1  0.88709322  0.53910477  0.87272342  1
  N  N51  1  0.77332275  0.44218536  0.61478945  1
  N  N52  1  0.55391787  0.54284319  0.36683464  1
  N  N53  1  0.44345909  0.42795475  0.12115374  1
  N  N54  1  0.22217378  0.53745847  0.86918445  1
  N  N55  1  0.11085064  0.42904975  0.62215422  1
  N  N56  1  0.88875381  0.54166534  0.36665163  1
  N  N57  1  0.79313298  0.39657562  0.12117941  1
  N  N58  1  0.55844088  0.53517328  0.87418530  1
  N  N59  1  0.44716735  0.42669546  0.61967009  1
  N  N60  1  0.22399462  0.87305688  0.33297849  1
  N  N61  1  0.10350326  0.75766528  0.12430554  1
  N  N62  1  0.88599414  0.87412089  0.87705839  1
  N  N63  1  0.78961045  0.77400296  0.61822390  1
  N  N64  1  0.55513722  0.87311237  0.37710870  1
  N  N65  1  0.46354048  0.76981805  0.11091889  1
  N  N66  1  0.22073927  0.86793327  0.86830260  1
  N  N67  1  0.08627780  0.77287912  0.61775972  1
  N  N68  1  0.88805491  0.87046863  0.39082340  1
  N  N69  1  0.75377102  0.77462996  0.11782160  1
  N  N70  1  0.55897067  0.87110423  0.89263554  1
  N  N71  1  0.44908199  0.76121964  0.63098821  1
