# generated using pymatgen
data_Al11BN12
_symmetry_space_group_name_H-M   'P 1'
_cell_length_a   9.29728549
_cell_length_b   9.33273650
_cell_length_c   10.16534417
_cell_angle_alpha   90.18661686
_cell_angle_beta   89.72529177
_cell_angle_gamma   59.87232941
_symmetry_Int_Tables_number   1
_chemical_formula_structural   Al11BN12
_chemical_formula_sum   'Al33 B3 N36'
_cell_volume   762.85751919
_cell_formula_units_Z   3
loop_
 _symmetry_equiv_pos_site_id
 _symmetry_equiv_pos_as_xyz
  1  'x, y, z'
loop_
 _atom_site_type_symbol
 _atom_site_label
 _atom_site_symmetry_multiplicity
 _atom_site_fract_x
 _atom_site_fract_y
 _atom_site_fract_z
 _atom_site_occupancy
  Al  Al0  1  0.11633898  0.09394392  0.39576130  1
  Al  Al1  1  0.21364082  0.20446811  0.13554336  1
  Al  Al2  1  0.78148455  0.08367703  0.81948852  1
  Al  Al3  1  0.88944146  0.19972531  0.59760892  1
  Al  Al4  1  0.45300327  0.08559981  0.32413293  1
  Al  Al5  1  0.56419574  0.19856649  0.06558106  1
  Al  Al6  1  0.10114622  0.09820756  0.88712768  1
  Al  Al7  1  0.21513752  0.21086696  0.64231057  1
  Al  Al8  1  0.78325109  0.09917864  0.31675573  1
  Al  Al9  1  0.44906285  0.09130465  0.81556072  1
  Al  Al10  1  0.56123716  0.19733008  0.56359984  1
  Al  Al11  1  0.11165897  0.42800673  0.38827232  1
  Al  Al12  1  0.21658811  0.54130693  0.14294340  1
  Al  Al13  1  0.77537169  0.42648121  0.82119644  1
  Al  Al14  1  0.89712173  0.54341749  0.63733639  1
  Al  Al15  1  0.45013504  0.42343924  0.31756247  1
  Al  Al16  1  0.56155739  0.53415855  0.09719942  1
  Al  Al17  1  0.11158877  0.42834873  0.89079186  1
  Al  Al18  1  0.21058649  0.54714421  0.63703681  1
  Al  Al19  1  0.78276920  0.41825842  0.32943271  1
  Al  Al20  1  0.88874149  0.53278085  0.13159249  1
  Al  Al21  1  0.44789219  0.42285052  0.82520569  1
  Al  Al22  1  0.55234119  0.54067863  0.60255518  1
  Al  Al23  1  0.10162927  0.76825150  0.38513915  1
  Al  Al24  1  0.21915545  0.88004187  0.14312805  1
  Al  Al25  1  0.78004004  0.76868434  0.82917053  1
  Al  Al26  1  0.44071313  0.76302338  0.39177492  1
  Al  Al27  1  0.11528971  0.75886174  0.89724431  1
  Al  Al28  1  0.21321533  0.87662655  0.64571441  1
  Al  Al29  1  0.76857303  0.76765226  0.31955824  1
  Al  Al30  1  0.88674458  0.87817084  0.10008568  1
  Al  Al31  1  0.44492949  0.76803752  0.89004242  1
  Al  Al32  1  0.56010739  0.87510607  0.59635875  1
  B  B33  1  0.88760537  0.20667018  0.10306602  1
  B  B34  1  0.88928355  0.87131549  0.60484809  1
  B  B35  1  0.55390956  0.87107321  0.10463232  1
  N  N36  1  0.21828838  0.20769390  0.32369830  1
  N  N37  1  0.08000684  0.10858370  0.08150069  1
  N  N38  1  0.88996953  0.20086004  0.82152552  1
  N  N39  1  0.79139121  0.05813910  0.62335389  1
  N  N40  1  0.55885471  0.20380998  0.37632294  1
  N  N41  1  0.46470460  0.06082739  0.12529763  1
  N  N42  1  0.21573876  0.20759905  0.83442403  1
  N  N43  1  0.12215793  0.09020690  0.58155570  1
  N  N44  1  0.88354251  0.20618651  0.39426444  1
  N  N45  1  0.79175211  0.11694873  0.12310835  1
  N  N46  1  0.55688301  0.20098016  0.88020175  1
  N  N47  1  0.44346936  0.10339312  0.62593904  1
  N  N48  1  0.21745728  0.54352327  0.33378220  1
  N  N49  1  0.11248859  0.42778809  0.07715642  1
  N  N50  1  0.89336920  0.53875749  0.83224321  1
  N  N51  1  0.77444106  0.43623220  0.62251355  1
  N  N52  1  0.55534378  0.54488461  0.33643755  1
  N  N53  1  0.44713814  0.41696995  0.12618917  1
  N  N54  1  0.21352385  0.54426281  0.82621140  1
  N  N55  1  0.11309101  0.42667689  0.57469926  1
  N  N56  1  0.89390112  0.53724563  0.32456991  1
  N  N57  1  0.79813303  0.39119093  0.12183006  1
  N  N58  1  0.55470166  0.53653275  0.88032909  1
  N  N59  1  0.45049456  0.41991001  0.62948293  1
  N  N60  1  0.22027114  0.87606641  0.32931916  1
  N  N61  1  0.12650514  0.75504764  0.08251555  1
  N  N62  1  0.88220449  0.87678281  0.89873453  1
  N  N63  1  0.80211691  0.77575132  0.62414856  1
  N  N64  1  0.55972460  0.87532865  0.39501819  1
  N  N65  1  0.45245195  0.78442173  0.08498667  1
  N  N66  1  0.22015498  0.87254319  0.83324199  1
  N  N67  1  0.08073700  0.77939472  0.58085582  1
  N  N68  1  0.89149692  0.87140737  0.31258095  1
  N  N69  1  0.73963565  0.77191605  0.11995735  1
  N  N70  1  0.55543810  0.86576306  0.82249957  1
  N  N71  1  0.43206604  0.76181385  0.58143245  1
