# generated using pymatgen
data_Al11BN12
_symmetry_space_group_name_H-M   'P 1'
_cell_length_a   9.28178165
_cell_length_b   9.27138901
_cell_length_c   10.06686794
_cell_angle_alpha   90.02493293
_cell_angle_beta   89.76394736
_cell_angle_gamma   59.86211477
_symmetry_Int_Tables_number   1
_chemical_formula_structural   Al11BN12
_chemical_formula_sum   'Al33 B3 N36'
_cell_volume   749.18755004
_cell_formula_units_Z   3
loop_
 _symmetry_equiv_pos_site_id
 _symmetry_equiv_pos_as_xyz
  1  'x, y, z'
loop_
 _atom_site_type_symbol
 _atom_site_label
 _atom_site_symmetry_multiplicity
 _atom_site_fract_x
 _atom_site_fract_y
 _atom_site_fract_z
 _atom_site_occupancy
  Al  Al0  1  0.11271538  0.08821582  0.39670217  1
  Al  Al1  1  0.22308802  0.20542206  0.07543884  1
  Al  Al2  1  0.77689387  0.08819551  0.81747192  1
  Al  Al3  1  0.88914552  0.20189117  0.60256536  1
  Al  Al4  1  0.44840711  0.08897436  0.31780414  1
  Al  Al5  1  0.56284995  0.20321598  0.07243416  1
  Al  Al6  1  0.09570984  0.09773690  0.88865466  1
  Al  Al7  1  0.23067965  0.20777924  0.57326845  1
  Al  Al8  1  0.78244992  0.09394055  0.33084744  1
  Al  Al9  1  0.44486761  0.09160848  0.83037597  1
  Al  Al10  1  0.56010170  0.19781282  0.56989578  1
  Al  Al11  1  0.11190926  0.42893970  0.32216599  1
  Al  Al12  1  0.22326074  0.53738204  0.06959894  1
  Al  Al13  1  0.77593047  0.43126351  0.81441647  1
  Al  Al14  1  0.89039130  0.54666629  0.56927078  1
  Al  Al15  1  0.44371012  0.42873401  0.32306157  1
  Al  Al16  1  0.56245576  0.53388830  0.07298175  1
  Al  Al17  1  0.11069935  0.42393079  0.82171562  1
  Al  Al18  1  0.21611351  0.54586612  0.57314175  1
  Al  Al19  1  0.78205603  0.42152983  0.32941408  1
  Al  Al20  1  0.88636135  0.53510044  0.07294734  1
  Al  Al21  1  0.44673644  0.42610701  0.82112457  1
  Al  Al22  1  0.55402732  0.54431759  0.56882796  1
  Al  Al23  1  0.10541962  0.76046593  0.32216178  1
  Al  Al24  1  0.21623820  0.88282299  0.13262750  1
  Al  Al25  1  0.77700469  0.76297377  0.83079165  1
  Al  Al26  1  0.45377887  0.76267487  0.31677167  1
  Al  Al27  1  0.10114723  0.75873592  0.83023877  1
  Al  Al28  1  0.21678210  0.87815897  0.64854845  1
  Al  Al29  1  0.77384825  0.76540190  0.31923557  1
  Al  Al30  1  0.88436698  0.87813334  0.07832219  1
  Al  Al31  1  0.45129608  0.75883371  0.83551247  1
  Al  Al32  1  0.56051262  0.87369246  0.57523675  1
  B  B33  1  0.88676877  0.20646063  0.11357110  1
  B  B34  1  0.88578211  0.87125501  0.59843611  1
  B  B35  1  0.55892860  0.86874351  0.06895837  1
  N  N36  1  0.22768396  0.20777029  0.37891865  1
  N  N37  1  0.07364871  0.11257917  0.08603795  1
  N  N38  1  0.88790458  0.20385179  0.82038382  1
  N  N39  1  0.78714307  0.06081791  0.62553990  1
  N  N40  1  0.55488940  0.20469166  0.37977367  1
  N  N41  1  0.45869717  0.06930056  0.12546123  1
  N  N42  1  0.22260906  0.20482859  0.88602164  1
  N  N43  1  0.12138496  0.08811616  0.58629857  1
  N  N44  1  0.88193494  0.20836111  0.39564516  1
  N  N45  1  0.79222836  0.11134495  0.13208660  1
  N  N46  1  0.55731080  0.20442304  0.88371826  1
  N  N47  1  0.44723041  0.09343781  0.63996259  1
  N  N48  1  0.22199770  0.54100311  0.38478327  1
  N  N49  1  0.11079217  0.42856502  0.13315862  1
  N  N50  1  0.88804402  0.53731706  0.88379526  1
  N  N51  1  0.77366488  0.44136392  0.62597860  1
  N  N52  1  0.55406778  0.54255855  0.37816720  1
  N  N53  1  0.44421456  0.42772983  0.13304246  1
  N  N54  1  0.22304677  0.53505939  0.88066773  1
  N  N55  1  0.11125263  0.42852810  0.63292712  1
  N  N56  1  0.88812110  0.54160512  0.37869706  1
  N  N57  1  0.79342873  0.39719591  0.13229656  1
  N  N58  1  0.55839512  0.53468194  0.88577462  1
  N  N59  1  0.44631682  0.42775627  0.63047214  1
  N  N60  1  0.22223490  0.87699539  0.32573494  1
  N  N61  1  0.10852695  0.75686311  0.12787628  1
  N  N62  1  0.88390996  0.87516539  0.89188617  1
  N  N63  1  0.79067426  0.77402576  0.63435309  1
  N  N64  1  0.55617612  0.87283546  0.38824966  1
  N  N65  1  0.46288198  0.77079044  0.12119622  1
  N  N66  1  0.21847142  0.87277027  0.84450757  1
  N  N67  1  0.07942966  0.77434842  0.63308304  1
  N  N68  1  0.88659061  0.87111924  0.37610656  1
  N  N69  1  0.75237047  0.77169624  0.12539795  1
  N  N70  1  0.55708831  0.87193545  0.90426469  1
  N  N71  1  0.45233628  0.76039109  0.64048360  1
