# generated using pymatgen
data_Al11BN12
_symmetry_space_group_name_H-M   'P 1'
_cell_length_a   9.29532849
_cell_length_b   9.29021759
_cell_length_c   10.06777418
_cell_angle_alpha   90.00004378
_cell_angle_beta   89.74101126
_cell_angle_gamma   59.79439947
_symmetry_Int_Tables_number   1
_chemical_formula_structural   Al11BN12
_chemical_formula_sum   'Al33 B3 N36'
_cell_volume   751.35519484
_cell_formula_units_Z   3
loop_
 _symmetry_equiv_pos_site_id
 _symmetry_equiv_pos_as_xyz
  1  'x, y, z'
loop_
 _atom_site_type_symbol
 _atom_site_label
 _atom_site_symmetry_multiplicity
 _atom_site_fract_x
 _atom_site_fract_y
 _atom_site_fract_z
 _atom_site_occupancy
  Al  Al0  1  0.11227849  0.08745910  0.39672672  1
  Al  Al1  1  0.22382624  0.20623258  0.07577784  1
  Al  Al2  1  0.77783656  0.08817908  0.82401288  1
  Al  Al3  1  0.88956520  0.20104443  0.60420879  1
  Al  Al4  1  0.44890448  0.08866968  0.31798923  1
  Al  Al5  1  0.56283082  0.20369952  0.07126287  1
  Al  Al6  1  0.09569541  0.10021445  0.88900577  1
  Al  Al7  1  0.23060042  0.20694113  0.57316114  1
  Al  Al8  1  0.78038192  0.09824886  0.32416931  1
  Al  Al9  1  0.44494356  0.09162850  0.83016880  1
  Al  Al10  1  0.56101816  0.19631934  0.57064454  1
  Al  Al11  1  0.11138521  0.42935111  0.32301509  1
  Al  Al12  1  0.22685203  0.53363031  0.06889346  1
  Al  Al13  1  0.77574748  0.43167784  0.81414785  1
  Al  Al14  1  0.89044298  0.54680921  0.57057795  1
  Al  Al15  1  0.44358439  0.42861347  0.32394211  1
  Al  Al16  1  0.56241961  0.53402343  0.07354320  1
  Al  Al17  1  0.11145868  0.42409968  0.82098564  1
  Al  Al18  1  0.21463631  0.54723065  0.57430782  1
  Al  Al19  1  0.78223809  0.42146378  0.33024856  1
  Al  Al20  1  0.88677135  0.53338491  0.07188447  1
  Al  Al21  1  0.44722255  0.42600591  0.82019982  1
  Al  Al22  1  0.55345498  0.54455208  0.56865102  1
  Al  Al23  1  0.10896070  0.75833419  0.31271280  1
  Al  Al24  1  0.21800052  0.88461452  0.12873801  1
  Al  Al25  1  0.77759374  0.76302037  0.83772146  1
  Al  Al26  1  0.45251017  0.76317496  0.31620032  1
  Al  Al27  1  0.10224265  0.76024099  0.84606265  1
  Al  Al28  1  0.21441668  0.87813497  0.65197976  1
  Al  Al29  1  0.77022931  0.76242386  0.31307295  1
  Al  Al30  1  0.88385737  0.87775577  0.09525578  1
  Al  Al31  1  0.45157371  0.75853329  0.83555626  1
  Al  Al32  1  0.56016346  0.87325570  0.57630798  1
  B  B33  1  0.88566408  0.20976062  0.11142841  1
  B  B34  1  0.88676671  0.86969119  0.62279588  1
  B  B35  1  0.55962836  0.86508586  0.06744741  1
  N  N36  1  0.22737896  0.20750437  0.37908893  1
  N  N37  1  0.07349634  0.11528399  0.08522799  1
  N  N38  1  0.88828505  0.20408054  0.81941124  1
  N  N39  1  0.78884558  0.05760764  0.62847147  1
  N  N40  1  0.55544082  0.20427091  0.38062448  1
  N  N41  1  0.45961888  0.06949823  0.12564230  1
  N  N42  1  0.22313673  0.20575512  0.88587117  1
  N  N43  1  0.12167631  0.08679031  0.58661479  1
  N  N44  1  0.88095253  0.20760775  0.39674307  1
  N  N45  1  0.79025136  0.11866187  0.12663857  1
  N  N46  1  0.55632556  0.20509953  0.88283505  1
  N  N47  1  0.44726412  0.09295782  0.63975083  1
  N  N48  1  0.22037065  0.54334081  0.38488153  1
  N  N49  1  0.11077737  0.42952783  0.13382718  1
  N  N50  1  0.88937353  0.53558004  0.88310200  1
  N  N51  1  0.77320844  0.44161193  0.62584254  1
  N  N52  1  0.55361001  0.54296886  0.37800177  1
  N  N53  1  0.44568616  0.42647400  0.13398931  1
  N  N54  1  0.22491161  0.53260816  0.88042560  1
  N  N55  1  0.11160585  0.42796038  0.63232410  1
  N  N56  1  0.88757333  0.54222931  0.38010712  1
  N  N57  1  0.79348695  0.39924971  0.13291915  1
  N  N58  1  0.55844000  0.53446548  0.88587346  1
  N  N59  1  0.44632273  0.42747039  0.62970130  1
  N  N60  1  0.22110807  0.87789279  0.32322907  1
  N  N61  1  0.11810441  0.75439149  0.11724616  1
  N  N62  1  0.88205598  0.87644367  0.90005033  1
  N  N63  1  0.79129104  0.77404106  0.63870734  1
  N  N64  1  0.55618343  0.87205710  0.38886237  1
  N  N65  1  0.46185752  0.77125703  0.12027173  1
  N  N66  1  0.21878872  0.87461122  0.84681839  1
  N  N67  1  0.07705077  0.77466623  0.63875848  1
  N  N68  1  0.88413409  0.87260012  0.32727095  1
  N  N69  1  0.74860147  0.76590593  0.12109460  1
  N  N70  1  0.55557413  0.87233564  0.90347421  1
  N  N71  1  0.45064206  0.76038248  0.64078339  1
