# generated using pymatgen
data_Al11BN12
_symmetry_space_group_name_H-M   'P 1'
_cell_length_a   9.25607804
_cell_length_b   9.25577925
_cell_length_c   9.89709087
_cell_angle_alpha   89.97051493
_cell_angle_beta   89.96782938
_cell_angle_gamma   60.01830908
_symmetry_Int_Tables_number   1
_chemical_formula_structural   Al11BN12
_chemical_formula_sum   'Al33 B3 N36'
_cell_volume   734.44317007
_cell_formula_units_Z   3
loop_
 _symmetry_equiv_pos_site_id
 _symmetry_equiv_pos_as_xyz
  1  'x, y, z'
loop_
 _atom_site_type_symbol
 _atom_site_label
 _atom_site_symmetry_multiplicity
 _atom_site_fract_x
 _atom_site_fract_y
 _atom_site_fract_z
 _atom_site_occupancy
  Al  Al0  1  0.10602801  0.09678756  0.29203779  1
  Al  Al1  1  0.21984982  0.20267922  0.04641616  1
  Al  Al2  1  0.78177980  0.09066273  0.79836416  1
  Al  Al3  1  0.89050493  0.20000433  0.54793784  1
  Al  Al4  1  0.44733148  0.08865065  0.29162615  1
  Al  Al5  1  0.56251912  0.20196939  0.04621243  1
  Al  Al6  1  0.10837052  0.09554467  0.80301589  1
  Al  Al7  1  0.22323935  0.20333841  0.54674846  1
  Al  Al8  1  0.78159457  0.09412081  0.29863499  1
  Al  Al9  1  0.44583509  0.09215774  0.80356748  1
  Al  Al10  1  0.56023938  0.19827892  0.54655609  1
  Al  Al11  1  0.11110605  0.42770299  0.29611891  1
  Al  Al12  1  0.22071438  0.54103857  0.04557239  1
  Al  Al13  1  0.77903892  0.42484013  0.80268389  1
  Al  Al14  1  0.88885135  0.54288641  0.54669860  1
  Al  Al15  1  0.44431432  0.42752446  0.29661397  1
  Al  Al16  1  0.56074082  0.53680591  0.04650065  1
  Al  Al17  1  0.11061803  0.42784607  0.79607225  1
  Al  Al18  1  0.21725139  0.54218517  0.54640665  1
  Al  Al19  1  0.78069545  0.42245730  0.29223986  1
  Al  Al20  1  0.88459004  0.53900008  0.04632951  1
  Al  Al21  1  0.44477063  0.42789617  0.79575922  1
  Al  Al22  1  0.55693135  0.53937782  0.54620398  1
  Al  Al23  1  0.10825058  0.76263459  0.30360440  1
  Al  Al24  1  0.21864197  0.87673874  0.04674006  1
  Al  Al25  1  0.77780358  0.76504791  0.79909883  1
  Al  Al26  1  0.44724789  0.76415997  0.29231465  1
  Al  Al27  1  0.10544383  0.76421367  0.79197570  1
  Al  Al28  1  0.21850854  0.87457275  0.54705701  1
  Al  Al29  1  0.77389174  0.76523677  0.29874901  1
  Al  Al30  1  0.88509155  0.87795236  0.04791516  1
  Al  Al31  1  0.44577239  0.76221423  0.80371908  1
  Al  Al32  1  0.55974666  0.87350108  0.54826422  1
  B  B33  1  0.88884963  0.20464763  0.04396050  1
  B  B34  1  0.88808625  0.87313717  0.54504891  1
  B  B35  1  0.55616257  0.87280130  0.04335287  1
  N  N36  1  0.22353829  0.20304211  0.35213082  1
  N  N37  1  0.08534494  0.10699095  0.09823772  1
  N  N38  1  0.88801319  0.20431786  0.87597764  1
  N  N39  1  0.79096339  0.06971403  0.60195573  1
  N  N40  1  0.55620658  0.20301486  0.35295328  1
  N  N41  1  0.45689583  0.07002519  0.09730527  1
  N  N42  1  0.22166303  0.20625233  0.85685550  1
  N  N43  1  0.11003059  0.09510878  0.61061740  1
  N  N44  1  0.88938690  0.20568016  0.35981048  1
  N  N45  1  0.79102290  0.10597431  0.10288187  1
  N  N46  1  0.55793560  0.20529004  0.85491466  1
  N  N47  1  0.44470813  0.09311836  0.61078118  1
  N  N48  1  0.22233224  0.53828534  0.35629958  1
  N  N49  1  0.11051937  0.42831177  0.10480728  1
  N  N50  1  0.88782869  0.54090051  0.85500911  1
  N  N51  1  0.77934499  0.42520611  0.60929950  1
  N  N52  1  0.55677556  0.54002913  0.35212842  1
  N  N53  1  0.44379247  0.42789433  0.10499371  1
  N  N54  1  0.22098133  0.54132105  0.85291722  1
  N  N55  1  0.11111959  0.42644103  0.60471518  1
  N  N56  1  0.88698253  0.53968431  0.35310241  1
  N  N57  1  0.79082971  0.40217327  0.09828924  1
  N  N58  1  0.55549326  0.53837739  0.85673096  1
  N  N59  1  0.44503884  0.42684979  0.60347382  1
  N  N60  1  0.22370712  0.87363330  0.35358206  1
  N  N61  1  0.10837893  0.76232423  0.11083152  1
  N  N62  1  0.88949978  0.87214144  0.86022356  1
  N  N63  1  0.78951837  0.77390411  0.60236863  1
  N  N64  1  0.55504932  0.87263832  0.36007097  1
  N  N65  1  0.45631298  0.77399873  0.09777169  1
  N  N66  1  0.22065415  0.87068388  0.85556381  1
  N  N67  1  0.08600199  0.77419376  0.59736674  1
  N  N68  1  0.88679001  0.87343308  0.37516853  1
  N  N69  1  0.75366927  0.77479240  0.10229492  1
  N  N70  1  0.55757554  0.87149303  0.87614562  1
  N  N71  1  0.44563791  0.76207305  0.60981333  1
