# generated using pymatgen
data_Al11BN12
_symmetry_space_group_name_H-M   'P 1'
_cell_length_a   9.28386274
_cell_length_b   9.31025318
_cell_length_c   10.08351359
_cell_angle_alpha   90.01570997
_cell_angle_beta   89.47089245
_cell_angle_gamma   59.90525713
_symmetry_Int_Tables_number   1
_chemical_formula_structural   Al11BN12
_chemical_formula_sum   'Al33 B3 N36'
_cell_volume   754.03553744
_cell_formula_units_Z   3
loop_
 _symmetry_equiv_pos_site_id
 _symmetry_equiv_pos_as_xyz
  1  'x, y, z'
loop_
 _atom_site_type_symbol
 _atom_site_label
 _atom_site_symmetry_multiplicity
 _atom_site_fract_x
 _atom_site_fract_y
 _atom_site_fract_z
 _atom_site_occupancy
  Al  Al0  1  0.11778290  0.09188630  0.39649454  1
  Al  Al1  1  0.21789438  0.20143153  0.12995593  1
  Al  Al2  1  0.78027008  0.08704696  0.82135686  1
  Al  Al3  1  0.88982976  0.20172428  0.60104906  1
  Al  Al4  1  0.45557319  0.08390282  0.31526921  1
  Al  Al5  1  0.56397758  0.20391317  0.06895948  1
  Al  Al6  1  0.09664576  0.10208506  0.89031850  1
  Al  Al7  1  0.22410690  0.19734499  0.64770415  1
  Al  Al8  1  0.78289180  0.09793544  0.32108987  1
  Al  Al9  1  0.45101889  0.08937219  0.83649447  1
  Al  Al10  1  0.56192225  0.19314829  0.56943726  1
  Al  Al11  1  0.10902845  0.43260818  0.32313472  1
  Al  Al12  1  0.22760064  0.53495457  0.08417025  1
  Al  Al13  1  0.77469901  0.43222302  0.81318216  1
  Al  Al14  1  0.89074391  0.54586215  0.56877197  1
  Al  Al15  1  0.44605130  0.42615977  0.32577763  1
  Al  Al16  1  0.56039628  0.53738891  0.07285150  1
  Al  Al17  1  0.10538848  0.43573752  0.82344917  1
  Al  Al18  1  0.22072617  0.53656221  0.58176363  1
  Al  Al19  1  0.78349509  0.42000475  0.32811721  1
  Al  Al20  1  0.88398261  0.53619626  0.06864926  1
  Al  Al21  1  0.44792279  0.42689316  0.81853920  1
  Al  Al22  1  0.55563743  0.54271323  0.56729121  1
  Al  Al23  1  0.09863564  0.77035936  0.38567015  1
  Al  Al24  1  0.21255711  0.88310487  0.14051646  1
  Al  Al25  1  0.77787285  0.76544327  0.83462729  1
  Al  Al26  1  0.45172629  0.76165271  0.31808059  1
  Al  Al27  1  0.11009727  0.76557160  0.89679630  1
  Al  Al28  1  0.21031986  0.87536650  0.64673247  1
  Al  Al29  1  0.77091050  0.76063805  0.31019278  1
  Al  Al30  1  0.88387690  0.87774011  0.10172970  1
  Al  Al31  1  0.44800942  0.76057103  0.83130666  1
  Al  Al32  1  0.56021633  0.87230996  0.57502787  1
  B  B33  1  0.88470788  0.21085624  0.10914572  1
  B  B34  1  0.88624445  0.87081158  0.61213158  1
  B  B35  1  0.55847704  0.86651208  0.06659452  1
  N  N36  1  0.22272223  0.20002820  0.32483637  1
  N  N37  1  0.07522142  0.11362203  0.08373274  1
  N  N38  1  0.88834158  0.20526858  0.81930963  1
  N  N39  1  0.79110790  0.05706781  0.62539033  1
  N  N40  1  0.55795319  0.20078135  0.37978441  1
  N  N41  1  0.46560207  0.06654181  0.12016319  1
  N  N42  1  0.21832031  0.20482686  0.84592883  1
  N  N43  1  0.12429815  0.08690547  0.58242404  1
  N  N44  1  0.88388033  0.20626894  0.39523058  1
  N  N45  1  0.79034284  0.11998855  0.12575589  1
  N  N46  1  0.55773434  0.20741963  0.88219536  1
  N  N47  1  0.45475143  0.08729686  0.64175388  1
  N  N48  1  0.22395954  0.53663798  0.38401336  1
  N  N49  1  0.10486227  0.43644615  0.12943391  1
  N  N50  1  0.88459787  0.53967194  0.88146890  1
  N  N51  1  0.77401324  0.44083362  0.62496373  1
  N  N52  1  0.55551428  0.54127529  0.37749438  1
  N  N53  1  0.44841988  0.42518096  0.13574032  1
  N  N54  1  0.22399756  0.53886391  0.86654269  1
  N  N55  1  0.10842845  0.42752501  0.63061186  1
  N  N56  1  0.88640123  0.54266766  0.37924500  1
  N  N57  1  0.79354087  0.39961299  0.13075706  1
  N  N58  1  0.55619706  0.53775083  0.88522462  1
  N  N59  1  0.45252809  0.42219095  0.62774403  1
  N  N60  1  0.21776411  0.87411541  0.33032659  1
  N  N61  1  0.11971391  0.76104589  0.08549641  1
  N  N62  1  0.87920368  0.87893303  0.89714532  1
  N  N63  1  0.79396155  0.77344935  0.63461498  1
  N  N64  1  0.55703719  0.87094479  0.38795369  1
  N  N65  1  0.45748856  0.77416444  0.12318235  1
  N  N66  1  0.21334150  0.87857383  0.83596437  1
  N  N67  1  0.07587099  0.77994112  0.58586898  1
  N  N68  1  0.88933850  0.86965618  0.31447656  1
  N  N69  1  0.74708337  0.76563411  0.12032108  1
  N  N70  1  0.55479023  0.87041011  0.90285117  1
  N  N71  1  0.44956609  0.75912132  0.63696060  1
