# generated using pymatgen
data_Al11BN12
_symmetry_space_group_name_H-M   'P 1'
_cell_length_a   9.30319915
_cell_length_b   9.33046829
_cell_length_c   10.16982489
_cell_angle_alpha   90.17707595
_cell_angle_beta   89.71818370
_cell_angle_gamma   59.85945657
_symmetry_Int_Tables_number   1
_chemical_formula_structural   Al11BN12
_chemical_formula_sum   'Al33 B3 N36'
_cell_volume   763.39417121
_cell_formula_units_Z   3
loop_
 _symmetry_equiv_pos_site_id
 _symmetry_equiv_pos_as_xyz
  1  'x, y, z'
loop_
 _atom_site_type_symbol
 _atom_site_label
 _atom_site_symmetry_multiplicity
 _atom_site_fract_x
 _atom_site_fract_y
 _atom_site_fract_z
 _atom_site_occupancy
  Al  Al0  1  0.11689789  0.09340248  0.39567726  1
  Al  Al1  1  0.21362754  0.20436460  0.13553840  1
  Al  Al2  1  0.78156146  0.08354446  0.81921896  1
  Al  Al3  1  0.88904813  0.20028175  0.59684351  1
  Al  Al4  1  0.45308156  0.08497250  0.32407253  1
  Al  Al5  1  0.56444838  0.19895667  0.06542551  1
  Al  Al6  1  0.10166327  0.09777607  0.88714548  1
  Al  Al7  1  0.21518001  0.21084266  0.64213015  1
  Al  Al8  1  0.78335424  0.09900455  0.31626951  1
  Al  Al9  1  0.44907571  0.09105748  0.81533693  1
  Al  Al10  1  0.56071389  0.19818304  0.56349446  1
  Al  Al11  1  0.11194456  0.42779399  0.38837292  1
  Al  Al12  1  0.21660134  0.54134790  0.14256251  1
  Al  Al13  1  0.77919790  0.42444841  0.82163058  1
  Al  Al14  1  0.89710629  0.54321763  0.63666171  1
  Al  Al15  1  0.44930948  0.42291098  0.31889698  1
  Al  Al16  1  0.56059517  0.53829322  0.12102997  1
  Al  Al17  1  0.11152750  0.42835619  0.89081905  1
  Al  Al18  1  0.21081053  0.54687303  0.63643449  1
  Al  Al19  1  0.78338365  0.41891491  0.33423611  1
  Al  Al20  1  0.88889413  0.53224069  0.13139639  1
  Al  Al21  1  0.44581948  0.42091731  0.82450797  1
  Al  Al22  1  0.55001497  0.54549764  0.63151576  1
  Al  Al23  1  0.10156649  0.76842989  0.38523985  1
  Al  Al24  1  0.21880878  0.88014303  0.14296105  1
  Al  Al25  1  0.77998430  0.76881230  0.82881723  1
  Al  Al26  1  0.44182795  0.76048414  0.39349258  1
  Al  Al27  1  0.11517269  0.75901436  0.89712692  1
  Al  Al28  1  0.21323067  0.87668028  0.64545368  1
  Al  Al29  1  0.76858651  0.76772747  0.31949071  1
  Al  Al30  1  0.88670313  0.87821741  0.09990786  1
  Al  Al31  1  0.44530735  0.76712325  0.88967217  1
  Al  Al32  1  0.56011094  0.87489744  0.59582558  1
  B  B33  1  0.88716097  0.20724750  0.10251495  1
  B  B34  1  0.88912855  0.87153767  0.60479655  1
  B  B35  1  0.55433655  0.87064606  0.10389283  1
  N  N36  1  0.21847322  0.20755527  0.32361793  1
  N  N37  1  0.08007676  0.10856768  0.08149223  1
  N  N38  1  0.89065151  0.19996522  0.82175264  1
  N  N39  1  0.79120496  0.05846469  0.62324784  1
  N  N40  1  0.55913415  0.20337106  0.37591988  1
  N  N41  1  0.46460101  0.06026745  0.12516998  1
  N  N42  1  0.21578096  0.20762238  0.83429807  1
  N  N43  1  0.12206833  0.09026066  0.58133702  1
  N  N44  1  0.88397905  0.20533727  0.39377589  1
  N  N45  1  0.79164862  0.11708216  0.12307267  1
  N  N46  1  0.55711424  0.20046276  0.88033626  1
  N  N47  1  0.44356412  0.10311556  0.62575542  1
  N  N48  1  0.21748395  0.54354395  0.33357903  1
  N  N49  1  0.11258795  0.42770807  0.07719041  1
  N  N50  1  0.89376999  0.53885811  0.83215534  1
  N  N51  1  0.77555284  0.43599792  0.61910589  1
  N  N52  1  0.55507618  0.54711847  0.32320438  1
  N  N53  1  0.44688205  0.41768822  0.12471901  1
  N  N54  1  0.21264380  0.54448451  0.82617608  1
  N  N55  1  0.11308316  0.42666123  0.57446037  1
  N  N56  1  0.89425450  0.53709764  0.32447608  1
  N  N57  1  0.79798362  0.39160452  0.11913860  1
  N  N58  1  0.55218311  0.54059972  0.85395330  1
  N  N59  1  0.44901481  0.41970147  0.62748045  1
  N  N60  1  0.22120757  0.87529241  0.32928999  1
  N  N61  1  0.12620548  0.75524754  0.08246166  1
  N  N62  1  0.88212039  0.87674726  0.89876748  1
  N  N63  1  0.80205574  0.77586519  0.62416087  1
  N  N64  1  0.55980287  0.87453152  0.39495364  1
  N  N65  1  0.45323265  0.78249477  0.08335171  1
  N  N66  1  0.22007710  0.87262416  0.83319083  1
  N  N67  1  0.08046317  0.77957995  0.58068464  1
  N  N68  1  0.89164095  0.87119888  0.31246440  1
  N  N69  1  0.73959155  0.77163343  0.12010946  1
  N  N70  1  0.55551340  0.86593290  0.82317266  1
  N  N71  1  0.43262727  0.76025206  0.58085530  1
