# generated using pymatgen
data_Al11BN12
_symmetry_space_group_name_H-M   'P 1'
_cell_length_a   9.29443935
_cell_length_b   9.29138720
_cell_length_c   9.94982712
_cell_angle_alpha   90.00636632
_cell_angle_beta   89.75913254
_cell_angle_gamma   59.95078414
_symmetry_Int_Tables_number   1
_chemical_formula_structural   Al11BN12
_chemical_formula_sum   'Al33 B3 N36'
_cell_volume   743.75357826
_cell_formula_units_Z   3
loop_
 _symmetry_equiv_pos_site_id
 _symmetry_equiv_pos_as_xyz
  1  'x, y, z'
loop_
 _atom_site_type_symbol
 _atom_site_label
 _atom_site_symmetry_multiplicity
 _atom_site_fract_x
 _atom_site_fract_y
 _atom_site_fract_z
 _atom_site_occupancy
  Al  Al0  1  0.11203168  0.09138212  0.38222237  1
  Al  Al1  1  0.22169355  0.20491035  0.06627867  1
  Al  Al2  1  0.77735570  0.08626843  0.80216635  1
  Al  Al3  1  0.88820361  0.20322484  0.59238822  1
  Al  Al4  1  0.44800703  0.08858967  0.30696242  1
  Al  Al5  1  0.56367133  0.20245421  0.06309308  1
  Al  Al6  1  0.09543468  0.09857516  0.87509880  1
  Al  Al7  1  0.23040543  0.20841064  0.56412253  1
  Al  Al8  1  0.78265758  0.09420690  0.32542725  1
  Al  Al9  1  0.44510234  0.09154361  0.82109658  1
  Al  Al10  1  0.55909858  0.19872033  0.55972629  1
  Al  Al11  1  0.11232683  0.42893429  0.31143249  1
  Al  Al12  1  0.22117266  0.53869251  0.06001087  1
  Al  Al13  1  0.77591613  0.43127119  0.80489819  1
  Al  Al14  1  0.89010588  0.54686953  0.55890595  1
  Al  Al15  1  0.44375926  0.42864219  0.31246667  1
  Al  Al16  1  0.56343916  0.53277345  0.06272013  1
  Al  Al17  1  0.11025369  0.42524479  0.81258989  1
  Al  Al18  1  0.21833031  0.54353950  0.56338243  1
  Al  Al19  1  0.78112655  0.42281003  0.31883681  1
  Al  Al20  1  0.88569747  0.53662013  0.06354853  1
  Al  Al21  1  0.44696624  0.42581403  0.81200751  1
  Al  Al22  1  0.55436378  0.54351875  0.55906064  1
  Al  Al23  1  0.10718904  0.76122828  0.31741083  1
  Al  Al24  1  0.21742561  0.87622424  0.09797299  1
  Al  Al25  1  0.77813572  0.76345500  0.81503707  1
  Al  Al26  1  0.45119758  0.76381085  0.30493984  1
  Al  Al27  1  0.10329947  0.76095199  0.81457235  1
  Al  Al28  1  0.22029779  0.87186247  0.60978659  1
  Al  Al29  1  0.77381729  0.76595356  0.31349353  1
  Al  Al30  1  0.88385014  0.87865070  0.06373065  1
  Al  Al31  1  0.44798652  0.76051946  0.82725370  1
  Al  Al32  1  0.55975311  0.87387435  0.56530211  1
  B  B33  1  0.88822582  0.20510793  0.10586453  1
  B  B34  1  0.88232926  0.87472854  0.55931901  1
  B  B35  1  0.55902188  0.87004727  0.05813267  1
  N  N36  1  0.22785647  0.20834773  0.36745284  1
  N  N37  1  0.07284461  0.11341040  0.07975318  1
  N  N38  1  0.88668799  0.20381949  0.80922312  1
  N  N39  1  0.78586166  0.06320922  0.60972462  1
  N  N40  1  0.55455917  0.20420797  0.36779649  1
  N  N41  1  0.45820866  0.06898962  0.11378475  1
  N  N42  1  0.22201663  0.20521320  0.87475976  1
  N  N43  1  0.12032660  0.09058882  0.57865707  1
  N  N44  1  0.88267398  0.20977129  0.38443647  1
  N  N45  1  0.79334310  0.10811520  0.12554024  1
  N  N46  1  0.55887279  0.20345881  0.87265313  1
  N  N47  1  0.44700207  0.09337238  0.62911152  1
  N  N48  1  0.22259912  0.53947010  0.37364418  1
  N  N49  1  0.11040860  0.42817764  0.12141748  1
  N  N50  1  0.88709038  0.53909540  0.87270300  1
  N  N51  1  0.77337769  0.44209551  0.61470739  1
  N  N52  1  0.55384888  0.54291393  0.36683535  1
  N  N53  1  0.44345195  0.42798369  0.12116172  1
  N  N54  1  0.22223717  0.53718816  0.86919662  1
  N  N55  1  0.11087314  0.42898666  0.62210893  1
  N  N56  1  0.88875282  0.54168406  0.36663733  1
  N  N57  1  0.79314724  0.39654794  0.12117907  1
  N  N58  1  0.55856208  0.53496524  0.87419301  1
  N  N59  1  0.44712913  0.42675666  0.61965378  1
  N  N60  1  0.22336052  0.87441894  0.32639382  1
  N  N61  1  0.10312020  0.75734669  0.12378750  1
  N  N62  1  0.88570799  0.87422920  0.87704567  1
  N  N63  1  0.78961887  0.77400273  0.61818026  1
  N  N64  1  0.55515794  0.87317282  0.37708577  1
  N  N65  1  0.46403457  0.76959856  0.11046155  1
  N  N66  1  0.22042161  0.86843451  0.86299078  1
  N  N67  1  0.08595705  0.77286531  0.61756522  1
  N  N68  1  0.88809041  0.87050412  0.39078199  1
  N  N69  1  0.75377105  0.77464081  0.11782229  1
  N  N70  1  0.55906760  0.87116960  0.89264749  1
  N  N71  1  0.44976428  0.76098889  0.63084350  1
