# generated using pymatgen
data_Al11BN12
_symmetry_space_group_name_H-M   'P 1'
_cell_length_a   9.25607282
_cell_length_b   9.25577379
_cell_length_c   9.89710155
_cell_angle_alpha   89.97050668
_cell_angle_beta   89.96781780
_cell_angle_gamma   60.01829043
_symmetry_Int_Tables_number   1
_chemical_formula_structural   Al11BN12
_chemical_formula_sum   'Al33 B3 N36'
_cell_volume   734.44297654
_cell_formula_units_Z   3
loop_
 _symmetry_equiv_pos_site_id
 _symmetry_equiv_pos_as_xyz
  1  'x, y, z'
loop_
 _atom_site_type_symbol
 _atom_site_label
 _atom_site_symmetry_multiplicity
 _atom_site_fract_x
 _atom_site_fract_y
 _atom_site_fract_z
 _atom_site_occupancy
  Al  Al0  1  0.10602600  0.09678333  0.29866509  1
  Al  Al1  1  0.21984735  0.20267503  0.05304055  1
  Al  Al2  1  0.78177754  0.09065858  0.80498852  1
  Al  Al3  1  0.89050269  0.20000013  0.55456386  1
  Al  Al4  1  0.44732886  0.08864670  0.29825257  1
  Al  Al5  1  0.56251695  0.20196500  0.05283676  1
  Al  Al6  1  0.10836762  0.09554045  0.80964418  1
  Al  Al7  1  0.22323699  0.20333381  0.55337478  1
  Al  Al8  1  0.78159213  0.09411635  0.30525990  1
  Al  Al9  1  0.44583317  0.09215303  0.81019452  1
  Al  Al10  1  0.56023655  0.19827500  0.55318113  1
  Al  Al11  1  0.11110339  0.42769843  0.30274334  1
  Al  Al12  1  0.22071154  0.54103477  0.05219916  1
  Al  Al13  1  0.77903700  0.42483534  0.80931270  1
  Al  Al14  1  0.88884869  0.54288195  0.55332375  1
  Al  Al15  1  0.44431257  0.42752013  0.30323756  1
  Al  Al16  1  0.56073833  0.53680215  0.05312537  1
  Al  Al17  1  0.11061570  0.42784229  0.80269622  1
  Al  Al18  1  0.21724927  0.54218073  0.55302984  1
  Al  Al19  1  0.78069249  0.42245368  0.29886732  1
  Al  Al20  1  0.88458760  0.53899604  0.05295443  1
  Al  Al21  1  0.44476761  0.42789203  0.80238478  1
  Al  Al22  1  0.55692901  0.53937338  0.55283180  1
  Al  Al23  1  0.10824759  0.76263102  0.31023172  1
  Al  Al24  1  0.21863966  0.87673427  0.05336607  1
  Al  Al25  1  0.77780087  0.76504377  0.80572365  1
  Al  Al26  1  0.44724560  0.76415536  0.29894279  1
  Al  Al27  1  0.10544176  0.76420882  0.79860212  1
  Al  Al28  1  0.21850616  0.87456867  0.55368331  1
  Al  Al29  1  0.77388947  0.76523271  0.30537405  1
  Al  Al30  1  0.88508927  0.87794821  0.05454029  1
  Al  Al31  1  0.44577006  0.76221048  0.81034667  1
  Al  Al32  1  0.55974411  0.87349705  0.55489048  1
  B  B33  1  0.88884698  0.20464327  0.05058842  1
  B  B34  1  0.88808382  0.87313294  0.55167577  1
  B  B35  1  0.55616030  0.87279708  0.04998088  1
  N  N36  1  0.22353585  0.20303803  0.35875710  1
  N  N37  1  0.08534289  0.10698671  0.10486464  1
  N  N38  1  0.88801054  0.20431320  0.88260548  1
  N  N39  1  0.79096084  0.06970994  0.60858106  1
  N  N40  1  0.55620420  0.20301080  0.35957826  1
  N  N41  1  0.45689320  0.07002130  0.10393154  1
  N  N42  1  0.22166060  0.20624839  0.86348050  1
  N  N43  1  0.11002801  0.09510435  0.61724506  1
  N  N44  1  0.88938435  0.20567582  0.36643673  1
  N  N45  1  0.79102025  0.10597004  0.10950748  1
  N  N46  1  0.55793373  0.20528570  0.86153940  1
  N  N47  1  0.44470589  0.09311418  0.61740793  1
  N  N48  1  0.22233012  0.53828074  0.36292336  1
  N  N49  1  0.11051680  0.42830734  0.11143252  1
  N  N50  1  0.88782649  0.54089648  0.86163429  1
  N  N51  1  0.77934294  0.42520152  0.61592731  1
  N  N52  1  0.55677291  0.54002464  0.35875546  1
  N  N53  1  0.44379053  0.42789008  0.11161816  1
  N  N54  1  0.22097868  0.54131656  0.85954367  1
  N  N55  1  0.11111731  0.42643718  0.61133963  1
  N  N56  1  0.88698001  0.53968031  0.35972770  1
  N  N57  1  0.79082675  0.40216980  0.10491601  1
  N  N58  1  0.55549051  0.53837319  0.86335619  1
  N  N59  1  0.44503576  0.42684564  0.61009984  1
  N  N60  1  0.22370463  0.87362920  0.36020847  1
  N  N61  1  0.10837618  0.76232052  0.11745846  1
  N  N62  1  0.88949706  0.87213733  0.86684889  1
  N  N63  1  0.78951603  0.77389952  0.60899426  1
  N  N64  1  0.55504717  0.87263415  0.36669746  1
  N  N65  1  0.45631062  0.77399415  0.10439911  1
  N  N66  1  0.22065166  0.87067929  0.86219009  1
  N  N67  1  0.08600020  0.77418882  0.60399278  1
  N  N68  1  0.88678726  0.87342904  0.38179520  1
  N  N69  1  0.75366714  0.77478817  0.10892085  1
  N  N70  1  0.55757341  0.87148859  0.88277342  1
  N  N71  1  0.44563552  0.76206910  0.61644052  1
