# generated using pymatgen
data_Al11BN12
_symmetry_space_group_name_H-M   'P 1'
_cell_length_a   9.25607891
_cell_length_b   9.25578012
_cell_length_c   9.89709065
_cell_angle_alpha   90.02948231
_cell_angle_beta   90.03216929
_cell_angle_gamma   60.01831016
_symmetry_Int_Tables_number   1
_chemical_formula_structural   Al11BN12
_chemical_formula_sum   'Al33 B3 N36'
_cell_volume   734.44329935
_cell_formula_units_Z   3
loop_
 _symmetry_equiv_pos_site_id
 _symmetry_equiv_pos_as_xyz
  1  'x, y, z'
loop_
 _atom_site_type_symbol
 _atom_site_label
 _atom_site_symmetry_multiplicity
 _atom_site_fract_x
 _atom_site_fract_y
 _atom_site_fract_z
 _atom_site_occupancy
  Al  Al0  1  0.10834788  0.09551134  0.40522149  1
  Al  Al1  1  0.21982724  0.20264595  0.16182111  1
  Al  Al2  1  0.78157200  0.09408731  0.90960224  1
  Al  Al3  1  0.89048239  0.19997093  0.66029958  1
  Al  Al4  1  0.44581263  0.09212433  0.40466979  1
  Al  Al5  1  0.56249650  0.20193604  0.16202472  1
  Al  Al6  1  0.10600550  0.09675414  0.91619971  1
  Al  Al7  1  0.22321684  0.20330501  0.66148879  1
  Al  Al8  1  0.78175715  0.09062945  0.40987298  1
  Al  Al9  1  0.44730896  0.08861726  0.91661125  1
  Al  Al10  1  0.56021684  0.19824557  0.66168103  1
  Al  Al11  1  0.11059537  0.42781276  0.41216510  1
  Al  Al12  1  0.22069173  0.54100532  0.16266474  1
  Al  Al13  1  0.78067285  0.42242399  0.91599770  1
  Al  Al14  1  0.88882876  0.54285299  0.66153859  1
  Al  Al15  1  0.44474811  0.42786278  0.41247804  1
  Al  Al16  1  0.56071815  0.53677270  0.16173664  1
  Al  Al17  1  0.11108342  0.42766968  0.91211822  1
  Al  Al18  1  0.21722891  0.54215176  0.66183050  1
  Al  Al19  1  0.77901632  0.42480680  0.40555340  1
  Al  Al20  1  0.88456738  0.53896693  0.16190758  1
  Al  Al21  1  0.44429180  0.42749108  0.91162329  1
  Al  Al22  1  0.55690882  0.53934444  0.66203316  1
  Al  Al23  1  0.10542116  0.76418041  0.41626184  1
  Al  Al24  1  0.21861936  0.87670537  0.16149720  1
  Al  Al25  1  0.77386927  0.76520337  0.90948809  1
  Al  Al26  1  0.44574981  0.76218096  0.40451821  1
  Al  Al27  1  0.10822795  0.76260131  0.90463264  1
  Al  Al28  1  0.21848607  0.87453933  0.66118018  1
  Al  Al29  1  0.77778087  0.76501459  0.40913844  1
  Al  Al30  1  0.88506893  0.87791897  0.16032219  1
  Al  Al31  1  0.44722530  0.76412661  0.91592287  1
  Al  Al32  1  0.55972410  0.87346767  0.65997326  1
  B  B33  1  0.88882700  0.20461438  0.16427651  1
  B  B34  1  0.88806379  0.87310379  0.66318799  1
  B  B35  1  0.55613987  0.87276804  0.16488392  1
  N  N36  1  0.22164056  0.20621885  0.35138224  1
  N  N37  1  0.08532248  0.10695763  0.10999985  1
  N  N38  1  0.88936434  0.20564672  0.84842706  1
  N  N39  1  0.79094082  0.06968080  0.60628176  1
  N  N40  1  0.55791313  0.20525670  0.35332308  1
  N  N41  1  0.45687308  0.06999194  0.11093218  1
  N  N42  1  0.22351577  0.20300872  0.85610706  1
  N  N43  1  0.11000811  0.09507531  0.59762024  1
  N  N44  1  0.88799060  0.20428450  0.33225949  1
  N  N45  1  0.79100016  0.10594083  0.10535580  1
  N  N46  1  0.55618414  0.20298135  0.85528452  1
  N  N47  1  0.44468556  0.09308492  0.59745642  1
  N  N48  1  0.22095864  0.54128765  0.35532059  1
  N  N49  1  0.11049676  0.42827860  0.10342999  1
  N  N50  1  0.88695983  0.53965092  0.85513539  1
  N  N51  1  0.77932252  0.42517267  0.59893806  1
  N  N52  1  0.55547065  0.53834408  0.35150692  1
  N  N53  1  0.44376985  0.42786110  0.10324372  1
  N  N54  1  0.22230963  0.53825205  0.85193786  1
  N  N55  1  0.11109711  0.42640759  0.60352240  1
  N  N56  1  0.88780597  0.54086719  0.35322858  1
  N  N57  1  0.79080690  0.40214029  0.10994838  1
  N  N58  1  0.55675301  0.53999579  0.85610970  1
  N  N59  1  0.44501633  0.42681637  0.60476354  1
  N  N60  1  0.22063145  0.87065055  0.35267410  1
  N  N61  1  0.10835637  0.76229094  0.09740597  1
  N  N62  1  0.88676747  0.87339973  0.83306843  1
  N  N63  1  0.78949581  0.77387048  0.60586895  1
  N  N64  1  0.55755292  0.87145973  0.33209125  1
  N  N65  1  0.45629027  0.77396531  0.11046593  1
  N  N66  1  0.22368453  0.87359998  0.85465591  1
  N  N67  1  0.08597981  0.77416019  0.61087074  1
  N  N68  1  0.88947706  0.87210810  0.34801399  1
  N  N69  1  0.75364678  0.77475895  0.10594247  1
  N  N70  1  0.55502681  0.87260490  0.84816655  1
  N  N71  1  0.44561540  0.76203970  0.59842441  1
