# generated using pymatgen
data_Al11BN12
_symmetry_space_group_name_H-M   'P 1'
_cell_length_a   9.25607678
_cell_length_b   9.25577788
_cell_length_c   9.89709056
_cell_angle_alpha   90.02948511
_cell_angle_beta   90.03217981
_cell_angle_gamma   60.01830989
_symmetry_Int_Tables_number   1
_chemical_formula_structural   Al11BN12
_chemical_formula_sum   'Al33 B3 N36'
_cell_volume   734.44294397
_cell_formula_units_Z   3
loop_
 _symmetry_equiv_pos_site_id
 _symmetry_equiv_pos_as_xyz
  1  'x, y, z'
loop_
 _atom_site_type_symbol
 _atom_site_label
 _atom_site_symmetry_multiplicity
 _atom_site_fract_x
 _atom_site_fract_y
 _atom_site_fract_z
 _atom_site_occupancy
  Al  Al0  1  0.10834871  0.09551519  0.39968324  1
  Al  Al1  1  0.21982853  0.20265015  0.15628856  1
  Al  Al2  1  0.78157337  0.09409102  0.90407066  1
  Al  Al3  1  0.89048434  0.19997490  0.65476730  1
  Al  Al4  1  0.44581478  0.09212757  0.39913275  1
  Al  Al5  1  0.56249860  0.20193988  0.15649193  1
  Al  Al6  1  0.10600789  0.09675794  0.91066512  1
  Al  Al7  1  0.22321853  0.20330822  0.65595238  1
  Al  Al8  1  0.78175890  0.09063351  0.40434234  1
  Al  Al9  1  0.44730987  0.08862195  0.91107785  1
  Al  Al10  1  0.56021757  0.19824979  0.65614702  1
  Al  Al11  1  0.11059715  0.42781742  0.40663136  1
  Al  Al12  1  0.22069248  0.54101003  0.15712700  1
  Al  Al13  1  0.78067347  0.42242891  0.91046246  1
  Al  Al14  1  0.88882999  0.54285638  0.65600465  1
  Al  Al15  1  0.44474847  0.42786681  0.40694204  1
  Al  Al16  1  0.56071963  0.53677684  0.15620381  1
  Al  Al17  1  0.11108467  0.42767278  0.90658416  1
  Al  Al18  1  0.21723113  0.54215485  0.65629877  1
  Al  Al19  1  0.77901871  0.42480974  0.40001491  1
  Al  Al20  1  0.88456904  0.53897111  0.15637442  1
  Al  Al21  1  0.44429437  0.42749478  0.90609043  1
  Al  Al22  1  0.55691046  0.53934814  0.65649501  1
  Al  Al23  1  0.10542368  0.76418297  0.41072852  1
  Al  Al24  1  0.21862071  0.87670851  0.15596306  1
  Al  Al25  1  0.77387105  0.76520737  0.90395663  1
  Al  Al26  1  0.44575148  0.76218541  0.39898085  1
  Al  Al27  1  0.10822873  0.76260609  0.89909509  1
  Al  Al28  1  0.21848807  0.87454377  0.65564524  1
  Al  Al29  1  0.77778216  0.76501842  0.40360768  1
  Al  Al30  1  0.88507106  0.87792282  0.15479151  1
  Al  Al31  1  0.44722685  0.76412970  0.91038717  1
  Al  Al32  1  0.55972508  0.87347208  0.65444082  1
  B  B33  1  0.88882809  0.20461771  0.15874147  1
  B  B34  1  0.88806454  0.87310798  0.65765472  1
  B  B35  1  0.55614241  0.87277146  0.15934934  1
  N  N36  1  0.22164187  0.20622332  0.34584839  1
  N  N37  1  0.08532448  0.10696124  0.10446558  1
  N  N38  1  0.88936590  0.20565053  0.84289443  1
  N  N39  1  0.79094229  0.06968487  0.60074940  1
  N  N40  1  0.55791566  0.20526017  0.34778929  1
  N  N41  1  0.45687455  0.06999626  0.10539889  1
  N  N42  1  0.22351746  0.20301242  0.85057105  1
  N  N43  1  0.11000878  0.09507928  0.59208301  1
  N  N44  1  0.88799168  0.20428767  0.32672352  1
  N  N45  1  0.79100189  0.10594434  0.09982276  1
  N  N46  1  0.55618566  0.20298536  0.84975057  1
  N  N47  1  0.44468764  0.09308825  0.59192005  1
  N  N48  1  0.22095970  0.54129177  0.34978323  1
  N  N49  1  0.11049794  0.42828193  0.09789542  1
  N  N50  1  0.88696105  0.53965526  0.84960111  1
  N  N51  1  0.77932478  0.42517553  0.59340098  1
  N  N52  1  0.55547200  0.53834787  0.34597272  1
  N  N53  1  0.44377217  0.42786481  0.09771014  1
  N  N54  1  0.22231173  0.53825517  0.84640534  1
  N  N55  1  0.11109868  0.42641202  0.59798833  1
  N  N56  1  0.88780772  0.54087165  0.34769469  1
  N  N57  1  0.79080795  0.40214474  0.10441389  1
  N  N58  1  0.55675436  0.53999948  0.85057245  1
  N  N59  1  0.44501693  0.42682029  0.59922749  1
  N  N60  1  0.22063280  0.87065374  0.34713906  1
  N  N61  1  0.10835666  0.76229592  0.09186927  1
  N  N62  1  0.88676802  0.87340415  0.82753447  1
  N  N63  1  0.78949699  0.77387447  0.60033644  1
  N  N64  1  0.55755542  0.87146304  0.32655591  1
  N  N65  1  0.45629202  0.77396866  0.10493108  1
  N  N66  1  0.22368623  0.87360428  0.84912033  1
  N  N67  1  0.08598190  0.77416330  0.60533773  1
  N  N68  1  0.88947861  0.87211199  0.34248283  1
  N  N69  1  0.75364870  0.77476324  0.10040967  1
  N  N70  1  0.55502844  0.87260907  0.84263388  1
  N  N71  1  0.44561723  0.76204425  0.59288769  1
