# generated using pymatgen
data_Al11BN12
_symmetry_space_group_name_H-M   'P 1'
_cell_length_a   9.28551259
_cell_length_b   9.27952610
_cell_length_c   10.11746672
_cell_angle_alpha   90.04479690
_cell_angle_beta   89.69078704
_cell_angle_gamma   59.85094052
_symmetry_Int_Tables_number   1
_chemical_formula_structural   Al11BN12
_chemical_formula_sum   'Al33 B3 N36'
_cell_volume   753.82398019
_cell_formula_units_Z   3
loop_
 _symmetry_equiv_pos_site_id
 _symmetry_equiv_pos_as_xyz
  1  'x, y, z'
loop_
 _atom_site_type_symbol
 _atom_site_label
 _atom_site_symmetry_multiplicity
 _atom_site_fract_x
 _atom_site_fract_y
 _atom_site_fract_z
 _atom_site_occupancy
  Al  Al0  1  0.11270432  0.09372159  0.40600943  1
  Al  Al1  1  0.21882495  0.20195419  0.14706264  1
  Al  Al2  1  0.78395804  0.08160944  0.82748645  1
  Al  Al3  1  0.89066087  0.20375008  0.61893085  1
  Al  Al4  1  0.44780346  0.08678250  0.36157947  1
  Al  Al5  1  0.56654141  0.19156274  0.07616532  1
  Al  Al6  1  0.10192220  0.09901739  0.89483880  1
  Al  Al7  1  0.21393974  0.21262667  0.65238860  1
  Al  Al8  1  0.78099207  0.10258151  0.32464906  1
  Al  Al9  1  0.45052780  0.09238722  0.82644207  1
  Al  Al10  1  0.56817366  0.19267320  0.57832459  1
  Al  Al11  1  0.10968167  0.42773354  0.40042257  1
  Al  Al12  1  0.22584198  0.53607881  0.15591837  1
  Al  Al13  1  0.78079157  0.42201333  0.89293608  1
  Al  Al14  1  0.89088099  0.54832296  0.65509389  1
  Al  Al15  1  0.44333797  0.43370646  0.40073243  1
  Al  Al16  1  0.56117080  0.53442340  0.14827068  1
  Al  Al17  1  0.11143326  0.42969475  0.90308709  1
  Al  Al18  1  0.21748049  0.54313597  0.64841595  1
  Al  Al19  1  0.77436256  0.43360726  0.40733440  1
  Al  Al20  1  0.88382479  0.53485776  0.15141904  1
  Al  Al21  1  0.44060550  0.43302362  0.89967263  1
  Al  Al22  1  0.55295413  0.54106689  0.65732364  1
  Al  Al23  1  0.10191634  0.76849622  0.39222460  1
  Al  Al24  1  0.22010039  0.87923233  0.15144453  1
  Al  Al25  1  0.76955304  0.76358191  0.90260229  1
  Al  Al26  1  0.44054466  0.75860704  0.40585622  1
  Al  Al27  1  0.11424706  0.75945397  0.90828728  1
  Al  Al28  1  0.21328794  0.87496414  0.65437033  1
  Al  Al29  1  0.78350972  0.76358748  0.39492074  1
  Al  Al30  1  0.88891759  0.87486231  0.11794169  1
  Al  Al31  1  0.44515551  0.76727981  0.89552047  1
  Al  Al32  1  0.55947538  0.86873263  0.61847698  1
  B  B33  1  0.88635069  0.20885656  0.10813782  1
  B  B34  1  0.89150527  0.86889654  0.60914734  1
  B  B35  1  0.55272962  0.87082433  0.11008697  1
  N  N36  1  0.21858781  0.20641629  0.33679723  1
  N  N37  1  0.07865087  0.11071050  0.09071574  1
  N  N38  1  0.88859540  0.20794817  0.82421285  1
  N  N39  1  0.79475288  0.05514571  0.63476860  1
  N  N40  1  0.56128817  0.20014066  0.38681524  1
  N  N41  1  0.46245815  0.05868069  0.12220390  1
  N  N42  1  0.21742798  0.20829842  0.84425957  1
  N  N43  1  0.12184100  0.09048780  0.59270665  1
  N  N44  1  0.88401707  0.20473078  0.40000415  1
  N  N45  1  0.79103012  0.11940427  0.13237916  1
  N  N46  1  0.56147120  0.19926298  0.88588677  1
  N  N47  1  0.44209268  0.10227336  0.62925475  1
  N  N48  1  0.22181042  0.53954080  0.34404475  1
  N  N49  1  0.11102387  0.42918968  0.09189357  1
  N  N50  1  0.88959000  0.54074333  0.84424647  1
  N  N51  1  0.77201376  0.44535663  0.59603626  1
  N  N52  1  0.55650224  0.53932566  0.33563987  1
  N  N53  1  0.44402868  0.42785101  0.09105602  1
  N  N54  1  0.22051124  0.54115510  0.83707339  1
  N  N55  1  0.10968115  0.43000781  0.58872253  1
  N  N56  1  0.88810368  0.53841321  0.33870246  1
  N  N57  1  0.79284897  0.39866755  0.08909047  1
  N  N58  1  0.55457072  0.54054609  0.84609034  1
  N  N59  1  0.44533061  0.43045785  0.59245391  1
  N  N60  1  0.22138758  0.87452523  0.33882951  1
  N  N61  1  0.12655568  0.75367304  0.09513077  1
  N  N62  1  0.88525616  0.87631597  0.90669228  1
  N  N63  1  0.80296651  0.77224309  0.59220184  1
  N  N64  1  0.55707345  0.86837964  0.39952902  1
  N  N65  1  0.45474542  0.77749012  0.09108836  1
  N  N66  1  0.21943803  0.87341880  0.84343926  1
  N  N67  1  0.08198517  0.77777054  0.58985021  1
  N  N68  1  0.88862008  0.86938966  0.32014822  1
  N  N69  1  0.74155143  0.76786971  0.09646238  1
  N  N70  1  0.56232501  0.86208088  0.82342904  1
  N  N71  1  0.43290954  0.75651240  0.59433560  1
