# generated using pymatgen
data_Al11BN12
_symmetry_space_group_name_H-M   'P 1'
_cell_length_a   9.27094428
_cell_length_b   9.32385123
_cell_length_c   10.19760433
_cell_angle_alpha   90.29154009
_cell_angle_beta   89.68065998
_cell_angle_gamma   59.85304297
_symmetry_Int_Tables_number   1
_chemical_formula_structural   Al11BN12
_chemical_formula_sum   'Al33 B3 N36'
_cell_volume   762.21634385
_cell_formula_units_Z   3
loop_
 _symmetry_equiv_pos_site_id
 _symmetry_equiv_pos_as_xyz
  1  'x, y, z'
loop_
 _atom_site_type_symbol
 _atom_site_label
 _atom_site_symmetry_multiplicity
 _atom_site_fract_x
 _atom_site_fract_y
 _atom_site_fract_z
 _atom_site_occupancy
  Al  Al0  1  0.11543647  0.09404060  0.39681231  1
  Al  Al1  1  0.21328816  0.20450547  0.13715189  1
  Al  Al2  1  0.77993331  0.08447893  0.82029733  1
  Al  Al3  1  0.88929827  0.20004971  0.60089288  1
  Al  Al4  1  0.45371267  0.08447231  0.32447725  1
  Al  Al5  1  0.56263533  0.20029094  0.06705559  1
  Al  Al6  1  0.09768230  0.10098008  0.88720960  1
  Al  Al7  1  0.21414302  0.21114915  0.64300499  1
  Al  Al8  1  0.78367205  0.09820120  0.31802398  1
  Al  Al9  1  0.44806343  0.09334252  0.81633284  1
  Al  Al10  1  0.56132156  0.19597467  0.56361239  1
  Al  Al11  1  0.11280359  0.42701036  0.38583595  1
  Al  Al12  1  0.21881737  0.54173742  0.14532468  1
  Al  Al13  1  0.77246352  0.43136455  0.81630925  1
  Al  Al14  1  0.89302508  0.54581182  0.61758260  1
  Al  Al15  1  0.45279455  0.42316417  0.32074735  1
  Al  Al16  1  0.56364088  0.52827875  0.07129405  1
  Al  Al17  1  0.11321082  0.42818218  0.89228259  1
  Al  Al18  1  0.21230734  0.54644884  0.63599733  1
  Al  Al19  1  0.78301477  0.41788948  0.32466924  1
  Al  Al20  1  0.88583616  0.53501100  0.11447089  1
  Al  Al21  1  0.45000474  0.42413896  0.81816457  1
  Al  Al22  1  0.55729717  0.53270775  0.56603467  1
  Al  Al23  1  0.10185853  0.76809279  0.38571451  1
  Al  Al24  1  0.22027480  0.87921292  0.14256353  1
  Al  Al25  1  0.78172369  0.76562704  0.83044532  1
  Al  Al26  1  0.43852991  0.76816643  0.39513171  1
  Al  Al27  1  0.11507212  0.75864052  0.89702484  1
  Al  Al28  1  0.21488902  0.87546615  0.64649511  1
  Al  Al29  1  0.76968000  0.76592677  0.31654670  1
  Al  Al30  1  0.88701808  0.87843148  0.09992925  1
  Al  Al31  1  0.44328641  0.77056302  0.88701113  1
  Al  Al32  1  0.55828935  0.87432984  0.60161030  1
  B  B33  1  0.88605771  0.20665788  0.10532669  1
  B  B34  1  0.89045685  0.87063922  0.60627071  1
  B  B35  1  0.55372141  0.87122174  0.10467742  1
  N  N36  1  0.21868917  0.20610135  0.32423372  1
  N  N37  1  0.07796238  0.11027564  0.08193587  1
  N  N38  1  0.88651025  0.20397103  0.82032988  1
  N  N39  1  0.79153038  0.05697924  0.62426001  1
  N  N40  1  0.55894170  0.20249364  0.37682374  1
  N  N41  1  0.46375302  0.06128490  0.12551107  1
  N  N42  1  0.21407049  0.20849159  0.83412217  1
  N  N43  1  0.12201195  0.08958412  0.58195639  1
  N  N44  1  0.88287061  0.20697469  0.39448974  1
  N  N45  1  0.79097898  0.11686773  0.12397814  1
  N  N46  1  0.55447668  0.20464854  0.88174874  1
  N  N47  1  0.44303256  0.10362957  0.62728731  1
  N  N48  1  0.21912103  0.54327127  0.33466325  1
  N  N49  1  0.11770384  0.42590692  0.07915091  1
  N  N50  1  0.88720394  0.54021741  0.85705455  1
  N  N51  1  0.77288543  0.43878815  0.62602470  1
  N  N52  1  0.55929757  0.53557265  0.37600099  1
  N  N53  1  0.45198208  0.41983831  0.13191594  1
  N  N54  1  0.21395020  0.54430426  0.82431113  1
  N  N55  1  0.11448303  0.42587309  0.57336208  1
  N  N56  1  0.89290089  0.53739183  0.32743212  1
  N  N57  1  0.79316145  0.39361183  0.12618889  1
  N  N58  1  0.55370035  0.53621145  0.88557623  1
  N  N59  1  0.45405790  0.41936835  0.62791302  1
  N  N60  1  0.22102504  0.87550948  0.32846954  1
  N  N61  1  0.12742493  0.75422226  0.08185547  1
  N  N62  1  0.88147504  0.87774782  0.89897772  1
  N  N63  1  0.80292133  0.77438922  0.62720275  1
  N  N64  1  0.56152928  0.87478399  0.39517412  1
  N  N65  1  0.45426004  0.78224406  0.08462324  1
  N  N66  1  0.21807006  0.87449708  0.83375330  1
  N  N67  1  0.08132436  0.77881348  0.58071780  1
  N  N68  1  0.89257657  0.87059246  0.31207176  1
  N  N69  1  0.73953041  0.77380134  0.12006287  1
  N  N70  1  0.55540838  0.86718520  0.82158224  1
  N  N71  1  0.43305124  0.76104448  0.58419364  1
