# generated using pymatgen
data_Al11BN12
_symmetry_space_group_name_H-M   'P 1'
_cell_length_a   9.27565428
_cell_length_b   9.30561410
_cell_length_c   10.11489828
_cell_angle_alpha   90.01484391
_cell_angle_beta   89.43704066
_cell_angle_gamma   59.82720172
_symmetry_Int_Tables_number   1
_chemical_formula_structural   Al11BN12
_chemical_formula_sum   'Al33 B3 N36'
_cell_volume   754.73429869
_cell_formula_units_Z   3
loop_
 _symmetry_equiv_pos_site_id
 _symmetry_equiv_pos_as_xyz
  1  'x, y, z'
loop_
 _atom_site_type_symbol
 _atom_site_label
 _atom_site_symmetry_multiplicity
 _atom_site_fract_x
 _atom_site_fract_y
 _atom_site_fract_z
 _atom_site_occupancy
  Al  Al0  1  0.11750966  0.09124520  0.39597610  1
  Al  Al1  1  0.21496262  0.20553960  0.13162084  1
  Al  Al2  1  0.78103984  0.08551854  0.82067843  1
  Al  Al3  1  0.88989265  0.20170520  0.60016829  1
  Al  Al4  1  0.45552638  0.08400219  0.31343101  1
  Al  Al5  1  0.56251262  0.20470387  0.06817693  1
  Al  Al6  1  0.09653897  0.10043742  0.88932759  1
  Al  Al7  1  0.22001536  0.20516938  0.64771548  1
  Al  Al8  1  0.78283927  0.09795103  0.32051861  1
  Al  Al9  1  0.45147411  0.08805142  0.83377341  1
  Al  Al10  1  0.56005831  0.19481848  0.56907317  1
  Al  Al11  1  0.11734414  0.42224870  0.38005362  1
  Al  Al12  1  0.21825484  0.54301484  0.14465600  1
  Al  Al13  1  0.77572082  0.43177833  0.81201671  1
  Al  Al14  1  0.88663563  0.54842551  0.56857178  1
  Al  Al15  1  0.45218072  0.42365928  0.32415765  1
  Al  Al16  1  0.55890261  0.53715578  0.07160348  1
  Al  Al17  1  0.11501323  0.42825938  0.88557308  1
  Al  Al18  1  0.21180554  0.54452741  0.63630648  1
  Al  Al19  1  0.78371720  0.42038442  0.32679929  1
  Al  Al20  1  0.87880368  0.53833405  0.06963817  1
  Al  Al21  1  0.45223013  0.42486160  0.81839010  1
  Al  Al22  1  0.55497208  0.54287455  0.56681160  1
  Al  Al23  1  0.09958764  0.76829012  0.38679388  1
  Al  Al24  1  0.21244213  0.88261059  0.13954210  1
  Al  Al25  1  0.77903944  0.76445305  0.83375147  1
  Al  Al26  1  0.45172437  0.76191622  0.31732359  1
  Al  Al27  1  0.11366121  0.75977953  0.89782289  1
  Al  Al28  1  0.21092356  0.87665642  0.64591527  1
  Al  Al29  1  0.77133228  0.76118962  0.30939161  1
  Al  Al30  1  0.88441672  0.87774145  0.10005493  1
  Al  Al31  1  0.44843921  0.76064895  0.83048929  1
  Al  Al32  1  0.55885980  0.87392334  0.57411453  1
  B  B33  1  0.88483451  0.21022851  0.10855521  1
  B  B34  1  0.88618143  0.87096477  0.61040126  1
  B  B35  1  0.55764133  0.86771424  0.06649483  1
  N  N36  1  0.22002801  0.20289053  0.32132902  1
  N  N37  1  0.07575324  0.11293856  0.08259261  1
  N  N38  1  0.88790936  0.20467412  0.81877837  1
  N  N39  1  0.79158143  0.05659842  0.62459110  1
  N  N40  1  0.55686850  0.20098159  0.37998251  1
  N  N41  1  0.46472250  0.06653262  0.11985012  1
  N  N42  1  0.21675900  0.20540185  0.84019622  1
  N  N43  1  0.12488983  0.08806536  0.58172564  1
  N  N44  1  0.88327713  0.20680579  0.39486420  1
  N  N45  1  0.79068911  0.11917978  0.12528671  1
  N  N46  1  0.55692652  0.20672974  0.88179437  1
  N  N47  1  0.45375235  0.08827689  0.64142488  1
  N  N48  1  0.21870415  0.54356397  0.33620578  1
  N  N49  1  0.11336215  0.42995941  0.08446350  1
  N  N50  1  0.88196493  0.54038775  0.87993066  1
  N  N51  1  0.77417724  0.44063245  0.62483602  1
  N  N52  1  0.55545859  0.54199299  0.37795893  1
  N  N53  1  0.45181530  0.42356460  0.13335341  1
  N  N54  1  0.21649640  0.54516646  0.82606521  1
  N  N55  1  0.11779719  0.42069502  0.58193188  1
  N  N56  1  0.88341299  0.54442548  0.37626846  1
  N  N57  1  0.79338435  0.39918079  0.13081799  1
  N  N58  1  0.55607041  0.53794236  0.88467785  1
  N  N59  1  0.45410410  0.42197361  0.62633807  1
  N  N60  1  0.21729279  0.87428445  0.32945751  1
  N  N61  1  0.12268000  0.75633033  0.08261177  1
  N  N62  1  0.88084350  0.87744121  0.89677336  1
  N  N63  1  0.79458692  0.77349214  0.63435790  1
  N  N64  1  0.55620246  0.87199502  0.38744748  1
  N  N65  1  0.45781136  0.77388184  0.12286530  1
  N  N66  1  0.21333590  0.87705614  0.83521925  1
  N  N67  1  0.07805265  0.77754026  0.58286617  1
  N  N68  1  0.88938966  0.87039534  0.31512818  1
  N  N69  1  0.74696835  0.76697387  0.12031254  1
  N  N70  1  0.55479695  0.87055291  0.90252642  1
  N  N71  1  0.45023363  0.75940839  0.63676844  1
