# generated using pymatgen
data_Al11BN12
_symmetry_space_group_name_H-M   'P 1'
_cell_length_a   9.25235757
_cell_length_b   9.25311239
_cell_length_c   9.91537761
_cell_angle_alpha   90.02381028
_cell_angle_beta   90.01483895
_cell_angle_gamma   60.00111877
_symmetry_Int_Tables_number   1
_chemical_formula_structural   Al11BN12
_chemical_formula_sum   'Al33 B3 N36'
_cell_volume   735.16528846
_cell_formula_units_Z   3
loop_
 _symmetry_equiv_pos_site_id
 _symmetry_equiv_pos_as_xyz
  1  'x, y, z'
loop_
 _atom_site_type_symbol
 _atom_site_label
 _atom_site_symmetry_multiplicity
 _atom_site_fract_x
 _atom_site_fract_y
 _atom_site_fract_z
 _atom_site_occupancy
  Al  Al0  1  0.10843814  0.09595841  0.39235038  1
  Al  Al1  1  0.22002909  0.20261987  0.14835706  1
  Al  Al2  1  0.78144607  0.09403214  0.89792325  1
  Al  Al3  1  0.89032366  0.19958391  0.64701386  1
  Al  Al4  1  0.44564850  0.09219786  0.39166376  1
  Al  Al5  1  0.56208151  0.20204369  0.14894878  1
  Al  Al6  1  0.10575339  0.09663598  0.90279505  1
  Al  Al7  1  0.22312226  0.20345541  0.64871101  1
  Al  Al8  1  0.78190960  0.09082234  0.39410722  1
  Al  Al9  1  0.44760184  0.08852698  0.90311050  1
  Al  Al10  1  0.56061737  0.19787216  0.64830169  1
  Al  Al11  1  0.11078343  0.42764964  0.39924969  1
  Al  Al12  1  0.22158034  0.54008009  0.14979199  1
  Al  Al13  1  0.78056112  0.42240240  0.90251763  1
  Al  Al14  1  0.88868821  0.54345444  0.64823959  1
  Al  Al15  1  0.44496783  0.42779429  0.39965948  1
  Al  Al16  1  0.56070455  0.53671408  0.14844969  1
  Al  Al17  1  0.11076206  0.42811660  0.89868997  1
  Al  Al18  1  0.21656623  0.54284860  0.64856801  1
  Al  Al19  1  0.77886227  0.42501510  0.39280009  1
  Al  Al20  1  0.88491815  0.53800619  0.14899541  1
  Al  Al21  1  0.44408570  0.42752163  0.89814868  1
  Al  Al22  1  0.55676392  0.53943302  0.64929009  1
  Al  Al23  1  0.10571579  0.76408182  0.40064864  1
  Al  Al24  1  0.21944083  0.87706850  0.14885610  1
  Al  Al25  1  0.77371964  0.76510421  0.89800367  1
  Al  Al26  1  0.44583894  0.76210266  0.39192942  1
  Al  Al27  1  0.10802665  0.76272848  0.89349243  1
  Al  Al28  1  0.21774490  0.87466392  0.64785359  1
  Al  Al29  1  0.77762727  0.76507724  0.39339625  1
  Al  Al30  1  0.88558173  0.87758547  0.14539252  1
  Al  Al31  1  0.44690641  0.76426696  0.90245871  1
  Al  Al32  1  0.56011639  0.87357524  0.64674144  1
  B  B33  1  0.88869128  0.20515225  0.15103680  1
  B  B34  1  0.88792384  0.87308950  0.64269306  1
  B  B35  1  0.55609493  0.87216571  0.15166299  1
  N  N36  1  0.22171547  0.20636078  0.33782112  1
  N  N37  1  0.08546795  0.10701971  0.09647417  1
  N  N38  1  0.88887337  0.20547495  0.83493669  1
  N  N39  1  0.79142471  0.06875060  0.59075490  1
  N  N40  1  0.55744783  0.20547925  0.33983893  1
  N  N41  1  0.45718781  0.06977879  0.09729961  1
  N  N42  1  0.22340721  0.20309322  0.84286989  1
  N  N43  1  0.10993484  0.09530979  0.58443789  1
  N  N44  1  0.88832299  0.20489175  0.31885966  1
  N  N45  1  0.79073154  0.10686428  0.09320916  1
  N  N46  1  0.55638713  0.20304659  0.84157867  1
  N  N47  1  0.44458352  0.09320450  0.58418072  1
  N  N48  1  0.22149183  0.54056369  0.34195568  1
  N  N49  1  0.11059585  0.42839036  0.08983847  1
  N  N50  1  0.88651643  0.53992743  0.84151941  1
  N  N51  1  0.77918501  0.42530425  0.58583244  1
  N  N52  1  0.55542086  0.53840327  0.33811502  1
  N  N53  1  0.44413524  0.42749589  0.08955990  1
  N  N54  1  0.22194814  0.53889866  0.83841676  1
  N  N55  1  0.11103157  0.42653204  0.59027543  1
  N  N56  1  0.88815657  0.54027436  0.33988837  1
  N  N57  1  0.79084839  0.40209406  0.09638679  1
  N  N58  1  0.55654427  0.54006314  0.84286611  1
  N  N59  1  0.44492392  0.42693895  0.59157868  1
  N  N60  1  0.22099673  0.87120514  0.33959246  1
  N  N61  1  0.11043928  0.76152218  0.08582155  1
  N  N62  1  0.88652829  0.87330367  0.82546334  1
  N  N63  1  0.78986980  0.77460120  0.59039025  1
  N  N64  1  0.55680458  0.87168971  0.31871197  1
  N  N65  1  0.45633694  0.77393348  0.09695922  1
  N  N66  1  0.22330426  0.87336897  0.84103828  1
  N  N67  1  0.08473574  0.77476264  0.59530875  1
  N  N68  1  0.88960289  0.87205911  0.33276678  1
  N  N69  1  0.75327984  0.77366939  0.09393986  1
  N  N70  1  0.55535008  0.87226243  0.83472662  1
  N  N71  1  0.44556120  0.76211718  0.58544212  1
