# generated using pymatgen
data_Al11BN12
_symmetry_space_group_name_H-M   'P 1'
_cell_length_a   9.28793654
_cell_length_b   9.27522059
_cell_length_c   10.01367023
_cell_angle_alpha   90.04930233
_cell_angle_beta   89.75494177
_cell_angle_gamma   59.90643168
_symmetry_Int_Tables_number   1
_chemical_formula_structural   Al11BN12
_chemical_formula_sum   'Al33 B3 N36'
_cell_volume   746.36378978
_cell_formula_units_Z   3
loop_
 _symmetry_equiv_pos_site_id
 _symmetry_equiv_pos_as_xyz
  1  'x, y, z'
loop_
 _atom_site_type_symbol
 _atom_site_label
 _atom_site_symmetry_multiplicity
 _atom_site_fract_x
 _atom_site_fract_y
 _atom_site_fract_z
 _atom_site_occupancy
  Al  Al0  1  0.11365031  0.08894934  0.39412267  1
  Al  Al1  1  0.22228775  0.20485459  0.07270126  1
  Al  Al2  1  0.77694027  0.08676167  0.80956630  1
  Al  Al3  1  0.88901396  0.20241318  0.59973201  1
  Al  Al4  1  0.44800431  0.08914202  0.31463739  1
  Al  Al5  1  0.56329944  0.20277952  0.07021235  1
  Al  Al6  1  0.09536339  0.09660924  0.88478989  1
  Al  Al7  1  0.23076153  0.20811266  0.57169971  1
  Al  Al8  1  0.78264363  0.09406348  0.33305404  1
  Al  Al9  1  0.44489815  0.09160381  0.82827154  1
  Al  Al10  1  0.55927080  0.19909153  0.56749266  1
  Al  Al11  1  0.11262435  0.42799894  0.31898503  1
  Al  Al12  1  0.22099778  0.53945226  0.06791750  1
  Al  Al13  1  0.77590011  0.43093123  0.81216696  1
  Al  Al14  1  0.89027250  0.54643871  0.56675554  1
  Al  Al15  1  0.44416250  0.42837234  0.31987590  1
  Al  Al16  1  0.56230898  0.53390536  0.07023455  1
  Al  Al17  1  0.11014196  0.42435318  0.81987909  1
  Al  Al18  1  0.21773781  0.54470350  0.57070978  1
  Al  Al19  1  0.78227127  0.42169428  0.32624932  1
  Al  Al20  1  0.88578771  0.53643279  0.07069866  1
  Al  Al21  1  0.44639458  0.42624362  0.81933860  1
  Al  Al22  1  0.55440519  0.54411748  0.56674797  1
  Al  Al23  1  0.10625844  0.76029136  0.32711607  1
  Al  Al24  1  0.21457208  0.88187316  0.13147650  1
  Al  Al25  1  0.77721902  0.76348359  0.82251194  1
  Al  Al26  1  0.45433584  0.76239103  0.31449553  1
  Al  Al27  1  0.10005449  0.75871368  0.82007185  1
  Al  Al28  1  0.21830401  0.87719835  0.64297214  1
  Al  Al29  1  0.77459765  0.76566188  0.32101569  1
  Al  Al30  1  0.88395770  0.87849025  0.07125793  1
  Al  Al31  1  0.45078334  0.75928516  0.83309338  1
  Al  Al32  1  0.56045745  0.87371990  0.57263480  1
  B  B33  1  0.88730747  0.20495600  0.11261125  1
  B  B34  1  0.88487438  0.87328185  0.56854038  1
  B  B35  1  0.55823602  0.87059905  0.06652462  1
  N  N36  1  0.22822296  0.20764762  0.37588395  1
  N  N37  1  0.07344469  0.11122054  0.08450847  1
  N  N38  1  0.88694783  0.20360221  0.81800261  1
  N  N39  1  0.78602213  0.06354991  0.61805239  1
  N  N40  1  0.55474459  0.20435789  0.37620111  1
  N  N41  1  0.45800616  0.06940745  0.12206217  1
  N  N42  1  0.22194211  0.20440797  0.88285758  1
  N  N43  1  0.12136489  0.08901131  0.58440513  1
  N  N44  1  0.88384052  0.20853428  0.39158908  1
  N  N45  1  0.79292609  0.10818464  0.13333500  1
  N  N46  1  0.55835747  0.20379479  0.88071416  1
  N  N47  1  0.44726711  0.09363810  0.63725647  1
  N  N48  1  0.22315437  0.53879133  0.38170614  1
  N  N49  1  0.11047271  0.42799309  0.12961697  1
  N  N50  1  0.88690322  0.53890578  0.88070047  1
  N  N51  1  0.77398584  0.44091549  0.62280586  1
  N  N52  1  0.55461606  0.54211333  0.37506123  1
  N  N53  1  0.44331535  0.42830193  0.12943502  1
  N  N54  1  0.22174234  0.53696352  0.87796124  1
  N  N55  1  0.11121041  0.42882526  0.63035043  1
  N  N56  1  0.88908083  0.54125980  0.37500671  1
  N  N57  1  0.79331403  0.39627732  0.12891537  1
  N  N58  1  0.55818879  0.53505805  0.88270575  1
  N  N59  1  0.44659542  0.42770091  0.62793118  1
  N  N60  1  0.22291641  0.87630008  0.32567626  1
  N  N61  1  0.10293073  0.75813754  0.13203180  1
  N  N62  1  0.88457299  0.87455686  0.88546862  1
  N  N63  1  0.78980407  0.77375132  0.62647033  1
  N  N64  1  0.55596468  0.87366971  0.38497410  1
  N  N65  1  0.46249959  0.77094202  0.11875534  1
  N  N66  1  0.21813408  0.87177999  0.84145471  1
  N  N67  1  0.08354058  0.77340945  0.62398363  1
  N  N68  1  0.88794624  0.87062748  0.39859028  1
  N  N69  1  0.75370247  0.77433789  0.12592001  1
  N  N70  1  0.55840022  0.87147588  0.90149098  1
  N  N71  1  0.45304849  0.76039701  0.63731108  1
