# generated using pymatgen
data_Al11BN12
_symmetry_space_group_name_H-M   'P 1'
_cell_length_a   9.25604868
_cell_length_b   9.25576145
_cell_length_c   9.89709077
_cell_angle_alpha   90.02959994
_cell_angle_beta   90.03221606
_cell_angle_gamma   60.01835849
_symmetry_Int_Tables_number   1
_chemical_formula_structural   Al11BN12
_chemical_formula_sum   'Al33 B3 N36'
_cell_volume   734.43978543
_cell_formula_units_Z   3
loop_
 _symmetry_equiv_pos_site_id
 _symmetry_equiv_pos_as_xyz
  1  'x, y, z'
loop_
 _atom_site_type_symbol
 _atom_site_label
 _atom_site_symmetry_multiplicity
 _atom_site_fract_x
 _atom_site_fract_y
 _atom_site_fract_z
 _atom_site_occupancy
  Al  Al0  1  0.10835171  0.09550416  0.40798529  1
  Al  Al1  1  0.21984499  0.20262462  0.16458812  1
  Al  Al2  1  0.78155971  0.09409348  0.91236658  1
  Al  Al3  1  0.89045843  0.19999187  0.66306819  1
  Al  Al4  1  0.44582195  0.09211069  0.40742790  1
  Al  Al5  1  0.56251591  0.20191136  0.16478589  1
  Al  Al6  1  0.10599194  0.09676622  0.91896888  1
  Al  Al7  1  0.22319643  0.20332333  0.66424751  1
  Al  Al8  1  0.78176348  0.09061723  0.41264013  1
  Al  Al9  1  0.44729676  0.08862692  0.91937304  1
  Al  Al10  1  0.56019440  0.19826331  0.66444003  1
  Al  Al11  1  0.11060649  0.42780403  0.41492649  1
  Al  Al12  1  0.22071293  0.54098209  0.16541895  1
  Al  Al13  1  0.78066151  0.42243431  0.91875993  1
  Al  Al14  1  0.88881103  0.54286907  0.66430123  1
  Al  Al15  1  0.44475415  0.42785226  0.41523592  1
  Al  Al16  1  0.56073740  0.53675015  0.16450441  1
  Al  Al17  1  0.11107732  0.42767500  0.91487676  1
  Al  Al18  1  0.21721121  0.54217036  0.66459476  1
  Al  Al19  1  0.77902593  0.42479521  0.40831297  1
  Al  Al20  1  0.88459030  0.53894078  0.16467087  1
  Al  Al21  1  0.44428538  0.42749847  0.91438361  1
  Al  Al22  1  0.55688792  0.53936415  0.66479223  1
  Al  Al23  1  0.10543041  0.76416994  0.41902687  1
  Al  Al24  1  0.21863595  0.87668419  0.16426791  1
  Al  Al25  1  0.77386029  0.76520854  0.91225593  1
  Al  Al26  1  0.44575660  0.76217118  0.40728577  1
  Al  Al27  1  0.10821769  0.76261207  0.90739523  1
  Al  Al28  1  0.21846317  0.87456392  0.66395051  1
  Al  Al29  1  0.77779010  0.76500056  0.41190494  1
  Al  Al30  1  0.88508890  0.87789339  0.16309086  1
  Al  Al31  1  0.44721595  0.76413442  0.91868944  1
  Al  Al32  1  0.55970437  0.87348702  0.66274177  1
  B  B33  1  0.88884410  0.20459121  0.16704097  1
  B  B34  1  0.88804431  0.87311995  0.66595248  1
  B  B35  1  0.55615865  0.87274092  0.16764857  1
  N  N36  1  0.22164898  0.20620783  0.35414648  1
  N  N37  1  0.08533711  0.10693803  0.11276870  1
  N  N38  1  0.88935011  0.20565665  0.85119449  1
  N  N39  1  0.79092258  0.06969504  0.60904751  1
  N  N40  1  0.55792213  0.20524421  0.35608346  1
  N  N41  1  0.45688764  0.06997152  0.11369457  1
  N  N42  1  0.22350388  0.20301665  0.85886589  1
  N  N43  1  0.10998409  0.09509497  0.60038337  1
  N  N44  1  0.88799763  0.20427047  0.33502183  1
  N  N45  1  0.79101764  0.10591520  0.10811885  1
  N  N46  1  0.55617151  0.20299098  0.85804378  1
  N  N47  1  0.44466801  0.09309864  0.60021588  1
  N  N48  1  0.22096771  0.54127853  0.35807562  1
  N  N49  1  0.11051648  0.42825588  0.10618877  1
  N  N50  1  0.88695112  0.53965895  0.85789779  1
  N  N51  1  0.77930398  0.42518958  0.60169936  1
  N  N52  1  0.55547893  0.53833381  0.35427223  1
  N  N53  1  0.44379109  0.42783885  0.10600398  1
  N  N54  1  0.22230072  0.53826292  0.85470077  1
  N  N55  1  0.11108093  0.42642610  0.60628358  1
  N  N56  1  0.88781822  0.54085318  0.35599031  1
  N  N57  1  0.79082235  0.40212144  0.11271098  1
  N  N58  1  0.55674146  0.54000716  0.85886928  1
  N  N59  1  0.44499835  0.42683261  0.60752144  1
  N  N60  1  0.22063970  0.87064102  0.35544217  1
  N  N61  1  0.10837352  0.76227141  0.10016921  1
  N  N62  1  0.88675479  0.87340884  0.83583259  1
  N  N63  1  0.78947762  0.77388512  0.60863343  1
  N  N64  1  0.55756509  0.87144254  0.33485485  1
  N  N65  1  0.45630648  0.77394331  0.11323248  1
  N  N66  1  0.22367231  0.87361337  0.85742412  1
  N  N67  1  0.08596433  0.77417648  0.61363555  1
  N  N68  1  0.88948640  0.87209478  0.35078149  1
  N  N69  1  0.75366318  0.77473560  0.10870899  1
  N  N70  1  0.55501719  0.87261328  0.85093435  1
  N  N71  1  0.44559500  0.76205885  0.60119062  1
