# generated using pymatgen
data_Al11BN12
_symmetry_space_group_name_H-M   'P 1'
_cell_length_a   9.25606200
_cell_length_b   9.25576893
_cell_length_c   9.89716189
_cell_angle_alpha   90.02944451
_cell_angle_beta   90.03204433
_cell_angle_gamma   60.01813602
_symmetry_Int_Tables_number   1
_chemical_formula_structural   Al11BN12
_chemical_formula_sum   'Al33 B3 N36'
_cell_volume   734.44506942
_cell_formula_units_Z   3
loop_
 _symmetry_equiv_pos_site_id
 _symmetry_equiv_pos_as_xyz
  1  'x, y, z'
loop_
 _atom_site_type_symbol
 _atom_site_label
 _atom_site_symmetry_multiplicity
 _atom_site_fract_x
 _atom_site_fract_y
 _atom_site_fract_z
 _atom_site_occupancy
  Al  Al0  1  0.10835108  0.09552052  0.39412938  1
  Al  Al1  1  0.21983152  0.20265388  0.15072946  1
  Al  Al2  1  0.78157429  0.09409371  0.89851724  1
  Al  Al3  1  0.89048479  0.19997798  0.64921419  1
  Al  Al4  1  0.44581664  0.09213127  0.39357606  1
  Al  Al5  1  0.56249994  0.20194301  0.15093252  1
  Al  Al6  1  0.10600867  0.09676131  0.90511253  1
  Al  Al7  1  0.22321979  0.20331270  0.65039539  1
  Al  Al8  1  0.78176151  0.09063767  0.39877922  1
  Al  Al9  1  0.44731171  0.08862569  0.90552329  1
  Al  Al10  1  0.56022048  0.19825234  0.65058675  1
  Al  Al11  1  0.11059989  0.42782063  0.40107149  1
  Al  Al12  1  0.22069743  0.54101068  0.15156813  1
  Al  Al13  1  0.78067456  0.42243232  0.90490927  1
  Al  Al14  1  0.88883055  0.54286222  0.65044559  1
  Al  Al15  1  0.44475162  0.42786990  0.40138346  1
  Al  Al16  1  0.56072181  0.53677895  0.15064610  1
  Al  Al17  1  0.11108545  0.42767758  0.90102220  1
  Al  Al18  1  0.21723095  0.54216063  0.65073734  1
  Al  Al19  1  0.77902011  0.42481430  0.39446254  1
  Al  Al20  1  0.88457303  0.53897143  0.15081669  1
  Al  Al21  1  0.44429495  0.42749832  0.90052817  1
  Al  Al22  1  0.55691110  0.53935294  0.65093965  1
  Al  Al23  1  0.10542670  0.76418663  0.40516977  1
  Al  Al24  1  0.21862481  0.87671243  0.15040856  1
  Al  Al25  1  0.77387294  0.76521001  0.89840370  1
  Al  Al26  1  0.44575394  0.76218865  0.39342689  1
  Al  Al27  1  0.10822993  0.76261005  0.89354118  1
  Al  Al28  1  0.21848797  0.87454833  0.65008822  1
  Al  Al29  1  0.77778412  0.76502200  0.39804650  1
  Al  Al30  1  0.88507573  0.87792391  0.14923416  1
  Al  Al31  1  0.44722698  0.76413374  0.90483500  1
  Al  Al32  1  0.55972723  0.87347626  0.64888854  1
  B  B33  1  0.88883079  0.20462242  0.15318783  1
  B  B34  1  0.88806512  0.87311217  0.65208912  1
  B  B35  1  0.55614495  0.87277280  0.15379541  1
  N  N36  1  0.22164435  0.20622690  0.34028921  1
  N  N37  1  0.08532736  0.10696474  0.09891117  1
  N  N38  1  0.88936617  0.20565341  0.83734048  1
  N  N39  1  0.79094504  0.06968768  0.59518739  1
  N  N40  1  0.55791679  0.20526382  0.34222944  1
  N  N41  1  0.45687770  0.06999847  0.09984245  1
  N  N42  1  0.22351872  0.20301533  0.84501416  1
  N  N43  1  0.11000932  0.09508465  0.58652807  1
  N  N44  1  0.88799454  0.20429316  0.32116793  1
  N  N45  1  0.79100455  0.10594741  0.09426892  1
  N  N46  1  0.55618765  0.20298790  0.84419097  1
  N  N47  1  0.44468931  0.09309152  0.58636303  1
  N  N48  1  0.22096310  0.54129429  0.34422418  1
  N  N49  1  0.11050106  0.42828536  0.09233419  1
  N  N50  1  0.88696068  0.53965918  0.84404247  1
  N  N51  1  0.77932590  0.42517959  0.58784684  1
  N  N52  1  0.55547433  0.53835147  0.34041498  1
  N  N53  1  0.44377583  0.42786671  0.09214844  1
  N  N54  1  0.22231168  0.53826085  0.84084373  1
  N  N55  1  0.11109988  0.42641631  0.59242852  1
  N  N56  1  0.88781023  0.54087363  0.34213651  1
  N  N57  1  0.79081085  0.40214720  0.09885866  1
  N  N58  1  0.55675540  0.54000389  0.84501665  1
  N  N59  1  0.44501889  0.42682457  0.59366886  1
  N  N60  1  0.22063550  0.87065896  0.34158374  1
  N  N61  1  0.10836367  0.76229778  0.08631502  1
  N  N62  1  0.88676873  0.87340742  0.82198310  1
  N  N63  1  0.78949822  0.77388034  0.59477562  1
  N  N64  1  0.55755628  0.87146658  0.32099969  1
  N  N65  1  0.45629466  0.77397151  0.09937687  1
  N  N66  1  0.22368673  0.87360803  0.84356384  1
  N  N67  1  0.08598118  0.77416900  0.59977693  1
  N  N68  1  0.88948189  0.87211462  0.33692327  1
  N  N69  1  0.75365189  0.77476337  0.09485605  1
  N  N70  1  0.55503017  0.87261175  0.83708055  1
  N  N71  1  0.44561891  0.76204894  0.58733300  1
