# generated using pymatgen
data_Al11BN12
_symmetry_space_group_name_H-M   'P 1'
_cell_length_a   9.25608089
_cell_length_b   9.25578220
_cell_length_c   9.89708778
_cell_angle_alpha   90.02948267
_cell_angle_beta   90.03217884
_cell_angle_gamma   60.01831718
_symmetry_Int_Tables_number   1
_chemical_formula_structural   Al11BN12
_chemical_formula_sum   'Al33 B3 N36'
_cell_volume   734.44346025
_cell_formula_units_Z   3
loop_
 _symmetry_equiv_pos_site_id
 _symmetry_equiv_pos_as_xyz
  1  'x, y, z'
loop_
 _atom_site_type_symbol
 _atom_site_label
 _atom_site_symmetry_multiplicity
 _atom_site_fract_x
 _atom_site_fract_y
 _atom_site_fract_z
 _atom_site_occupancy
  Al  Al0  1  0.10834816  0.09551317  0.40245253  1
  Al  Al1  1  0.21982764  0.20264882  0.15905471  1
  Al  Al2  1  0.78157256  0.09408893  0.90683989  1
  Al  Al3  1  0.89048396  0.19997287  0.65753937  1
  Al  Al4  1  0.44581412  0.09212570  0.40189983  1
  Al  Al5  1  0.56249774  0.20193841  0.15925715  1
  Al  Al6  1  0.10600744  0.09675574  0.91343783  1
  Al  Al7  1  0.22321816  0.20330612  0.65871843  1
  Al  Al8  1  0.78175787  0.09063197  0.40711065  1
  Al  Al9  1  0.44730888  0.08862039  0.91384909  1
  Al  Al10  1  0.56021703  0.19824750  0.65891264  1
  Al  Al11  1  0.11059637  0.42781542  0.40939494  1
  Al  Al12  1  0.22069163  0.54100836  0.15989205  1
  Al  Al13  1  0.78067294  0.42242681  0.91323488  1
  Al  Al14  1  0.88882941  0.54285422  0.65877103  1
  Al  Al15  1  0.44474802  0.42786475  0.40970662  1
  Al  Al16  1  0.56071876  0.53677425  0.15897069  1
  Al  Al17  1  0.11108417  0.42767078  0.90934764  1
  Al  Al18  1  0.21723095  0.54215218  0.65906230  1
  Al  Al19  1  0.77901793  0.42480804  0.40278538  1
  Al  Al20  1  0.88456845  0.53896961  0.15914066  1
  Al  Al21  1  0.44429347  0.42749290  0.90885367  1
  Al  Al22  1  0.55690985  0.53934661  0.65926246  1
  Al  Al23  1  0.10542316  0.76418121  0.41350056  1
  Al  Al24  1  0.21861939  0.87670588  0.15873137  1
  Al  Al25  1  0.77387065  0.76520511  0.90672560  1
  Al  Al26  1  0.44575081  0.76218332  0.40174899  1
  Al  Al27  1  0.10822830  0.76260383  0.90186160  1
  Al  Al28  1  0.21848847  0.87454205  0.65841355  1
  Al  Al29  1  0.77778151  0.76501629  0.40637775  1
  Al  Al30  1  0.88507083  0.87792027  0.15756300  1
  Al  Al31  1  0.44722600  0.76412763  0.91316051  1
  Al  Al32  1  0.55972380  0.87347040  0.65721348  1
  B  B33  1  0.88882727  0.20461564  0.16151329  1
  B  B34  1  0.88806305  0.87310658  0.66042566  1
  B  B35  1  0.55614248  0.87276903  0.16212076  1
  N  N36  1  0.22164121  0.20622095  0.34861517  1
  N  N37  1  0.08532374  0.10695904  0.10723720  1
  N  N38  1  0.88936567  0.20564850  0.84566645  1
  N  N39  1  0.79094193  0.06968332  0.60351879  1
  N  N40  1  0.55791512  0.20525806  0.35055556  1
  N  N41  1  0.45687374  0.06999431  0.10816906  1
  N  N42  1  0.22351709  0.20300951  0.85333910  1
  N  N43  1  0.11000759  0.09507751  0.59485264  1
  N  N44  1  0.88799082  0.20428593  0.32949397  1
  N  N45  1  0.79100167  0.10594156  0.10259286  1
  N  N46  1  0.55618520  0.20298252  0.85251794  1
  N  N47  1  0.44468748  0.09308523  0.59468804  1
  N  N48  1  0.22095863  0.54129088  0.35254990  1
  N  N49  1  0.11049716  0.42828013  0.10066062  1
  N  N50  1  0.88695971  0.53965323  0.85236900  1
  N  N51  1  0.77932446  0.42517294  0.59617119  1
  N  N52  1  0.55547186  0.53834579  0.34874027  1
  N  N53  1  0.44377120  0.42786309  0.10047502  1
  N  N54  1  0.22231090  0.53825337  0.84916964  1
  N  N55  1  0.11109783  0.42640977  0.60075338  1
  N  N56  1  0.88780632  0.54087012  0.35046207  1
  N  N57  1  0.79080748  0.40214245  0.10718500  1
  N  N58  1  0.55675427  0.53999813  0.85334148  1
  N  N59  1  0.44501706  0.42681814  0.60199353  1
  N  N60  1  0.22063171  0.87065162  0.34990820  1
  N  N61  1  0.10835514  0.76229432  0.09463689  1
  N  N62  1  0.88676682  0.87340255  0.83030397  1
  N  N63  1  0.78949553  0.77387294  0.60310689  1
  N  N64  1  0.55755540  0.87146078  0.32932563  1
  N  N65  1  0.45629119  0.77396657  0.10770296  1
  N  N66  1  0.22368613  0.87360263  0.85189024  1
  N  N67  1  0.08598143  0.77416179  0.60810845  1
  N  N68  1  0.88947847  0.87210961  0.34525420  1
  N  N69  1  0.75364820  0.77476147  0.10317929  1
  N  N70  1  0.55502711  0.87260727  0.84540628  1
  N  N71  1  0.44561709  0.76204260  0.59565675  1
