# generated using pymatgen
data_Al11BN12
_symmetry_space_group_name_H-M   'P 1'
_cell_length_a   9.25761829
_cell_length_b   9.25957130
_cell_length_c   9.95255252
_cell_angle_alpha   90.02203770
_cell_angle_beta   89.97580017
_cell_angle_gamma   59.96885751
_symmetry_Int_Tables_number   1
_chemical_formula_structural   Al11BN12
_chemical_formula_sum   'Al33 B3 N36'
_cell_volume   738.61605937
_cell_formula_units_Z   3
loop_
 _symmetry_equiv_pos_site_id
 _symmetry_equiv_pos_as_xyz
  1  'x, y, z'
loop_
 _atom_site_type_symbol
 _atom_site_label
 _atom_site_symmetry_multiplicity
 _atom_site_fract_x
 _atom_site_fract_y
 _atom_site_fract_z
 _atom_site_occupancy
  Al  Al0  1  0.10872987  0.09697994  0.39306115  1
  Al  Al1  1  0.22026381  0.20270130  0.14791887  1
  Al  Al2  1  0.78007113  0.09651665  0.90507744  1
  Al  Al3  1  0.89067356  0.19866939  0.64693160  1
  Al  Al4  1  0.44509867  0.09243472  0.39194348  1
  Al  Al5  1  0.56095656  0.20276543  0.14964439  1
  Al  Al6  1  0.10525674  0.09620579  0.90285067  1
  Al  Al7  1  0.22301657  0.20365484  0.64978561  1
  Al  Al8  1  0.78219537  0.09155673  0.38493559  1
  Al  Al9  1  0.44853132  0.08817978  0.90298380  1
  Al  Al10  1  0.56093775  0.19695154  0.64811656  1
  Al  Al11  1  0.11119243  0.42712913  0.39980777  1
  Al  Al12  1  0.22393498  0.53798573  0.15121097  1
  Al  Al13  1  0.78050827  0.42232698  0.90230934  1
  Al  Al14  1  0.88916811  0.54382850  0.64828708  1
  Al  Al15  1  0.44552418  0.42759799  0.40043834  1
  Al  Al16  1  0.56040525  0.53680605  0.14820950  1
  Al  Al17  1  0.10997828  0.42931927  0.89872920  1
  Al  Al18  1  0.21544940  0.54336069  0.64845677  1
  Al  Al19  1  0.77850938  0.42554497  0.39382393  1
  Al  Al20  1  0.88495971  0.53628604  0.15034138  1
  Al  Al21  1  0.44372595  0.42750779  0.89783836  1
  Al  Al22  1  0.55661598  0.53947864  0.65042862  1
  Al  Al23  1  0.10672084  0.76365137  0.39262032  1
  Al  Al24  1  0.22136435  0.87781041  0.15075136  1
  Al  Al25  1  0.77160685  0.76357920  0.90556055  1
  Al  Al26  1  0.44591737  0.76189023  0.39312397  1
  Al  Al27  1  0.10999150  0.76168008  0.90155212  1
  Al  Al28  1  0.21653630  0.87543112  0.64769630  1
  Al  Al29  1  0.77697372  0.76519026  0.38508096  1
  Al  Al30  1  0.88681868  0.87665697  0.13257843  1
  Al  Al31  1  0.44607093  0.76458914  0.90238837  1
  Al  Al32  1  0.56029922  0.87427997  0.64678359  1
  B  B33  1  0.88697557  0.20714839  0.15173008  1
  B  B34  1  0.88790360  0.87312383  0.60400030  1
  B  B35  1  0.55657527  0.86923029  0.15244397  1
  N  N36  1  0.22184598  0.20668116  0.33748253  1
  N  N37  1  0.08580403  0.10715457  0.09626699  1
  N  N38  1  0.88784712  0.20490638  0.83436453  1
  N  N39  1  0.79309602  0.06550892  0.58473583  1
  N  N40  1  0.55604406  0.20609578  0.33993504  1
  N  N41  1  0.45783657  0.06963084  0.09688006  1
  N  N42  1  0.22323817  0.20329068  0.84308423  1
  N  N43  1  0.10991334  0.09572598  0.58473926  1
  N  N44  1  0.88944988  0.20670562  0.31954531  1
  N  N45  1  0.78870317  0.11330463  0.09877070  1
  N  N46  1  0.55710767  0.20310337  0.84047447  1
  N  N47  1  0.44436277  0.09338052  0.58420521  1
  N  N48  1  0.22282345  0.53852079  0.34269368  1
  N  N49  1  0.11035344  0.42920159  0.08972532  1
  N  N50  1  0.88558178  0.54050250  0.84058796  1
  N  N51  1  0.77894216  0.42546659  0.58633833  1
  N  N52  1  0.55535651  0.53846438  0.33803657  1
  N  N53  1  0.44484955  0.42657256  0.08886669  1
  N  N54  1  0.22125313  0.54030524  0.83759597  1
  N  N55  1  0.11102898  0.42652535  0.59035354  1
  N  N56  1  0.88906566  0.53879679  0.34064827  1
  N  N57  1  0.79086706  0.40255145  0.09616609  1
  N  N58  1  0.55623991  0.54014794  0.84310615  1
  N  N59  1  0.44499940  0.42701428  0.59181367  1
  N  N60  1  0.22179326  0.87271476  0.34092596  1
  N  N61  1  0.11984921  0.75770086  0.09255280  1
  N  N62  1  0.88551139  0.87290846  0.87414066  1
  N  N63  1  0.79134341  0.77679999  0.58487953  1
  N  N64  1  0.55442936  0.87249773  0.31953678  1
  N  N65  1  0.45566589  0.77419059  0.09696694  1
  N  N66  1  0.22248298  0.87270974  0.83999330  1
  N  N67  1  0.08078937  0.77660874  0.58970785  1
  N  N68  1  0.88989206  0.87176422  0.32607138  1
  N  N69  1  0.74923939  0.76924041  0.09961421  1
  N  N70  1  0.55601277  0.87137437  0.83419740  1
  N  N71  1  0.44565957  0.76198530  0.58606016  1
