# generated using pymatgen
data_Al11BN12
_symmetry_space_group_name_H-M   'P 1'
_cell_length_a   9.28793464
_cell_length_b   9.27521552
_cell_length_c   10.01367827
_cell_angle_alpha   90.04928457
_cell_angle_beta   89.75492663
_cell_angle_gamma   59.90645448
_symmetry_Int_Tables_number   1
_chemical_formula_structural   Al11BN12
_chemical_formula_sum   'Al33 B3 N36'
_cell_volume   746.36400001
_cell_formula_units_Z   3
loop_
 _symmetry_equiv_pos_site_id
 _symmetry_equiv_pos_as_xyz
  1  'x, y, z'
loop_
 _atom_site_type_symbol
 _atom_site_label
 _atom_site_symmetry_multiplicity
 _atom_site_fract_x
 _atom_site_fract_y
 _atom_site_fract_z
 _atom_site_occupancy
  Al  Al0  1  0.11365426  0.08894916  0.39120089  1
  Al  Al1  1  0.22228805  0.20485744  0.06977090  1
  Al  Al2  1  0.77694234  0.08676452  0.80664407  1
  Al  Al3  1  0.88901244  0.20241495  0.59679875  1
  Al  Al4  1  0.44800495  0.08914508  0.31170732  1
  Al  Al5  1  0.56330024  0.20278209  0.06728639  1
  Al  Al6  1  0.09536492  0.09661102  0.88186223  1
  Al  Al7  1  0.23076349  0.20811425  0.56877635  1
  Al  Al8  1  0.78264457  0.09406512  0.33012341  1
  Al  Al9  1  0.44490068  0.09160447  0.82534722  1
  Al  Al10  1  0.55927197  0.19909288  0.56457171  1
  Al  Al11  1  0.11262549  0.42799915  0.31606468  1
  Al  Al12  1  0.22099829  0.53945378  0.06500202  1
  Al  Al13  1  0.77590234  0.43093183  0.80923909  1
  Al  Al14  1  0.89027372  0.54644025  0.56383144  1
  Al  Al15  1  0.44416565  0.42837322  0.31695365  1
  Al  Al16  1  0.56231078  0.53390672  0.06730625  1
  Al  Al17  1  0.11014396  0.42435643  0.81695496  1
  Al  Al18  1  0.21773953  0.54470520  0.56778422  1
  Al  Al19  1  0.78227306  0.42169581  0.32332398  1
  Al  Al20  1  0.88578938  0.53643438  0.06777058  1
  Al  Al21  1  0.44639425  0.42624624  0.81641844  1
  Al  Al22  1  0.55440492  0.54411993  0.56382413  1
  Al  Al23  1  0.10625977  0.76029505  0.32419602  1
  Al  Al24  1  0.21457158  0.88187553  0.12854943  1
  Al  Al25  1  0.77722001  0.76348557  0.81958080  1
  Al  Al26  1  0.45433858  0.76239136  0.31156433  1
  Al  Al27  1  0.10005799  0.75871317  0.81715092  1
  Al  Al28  1  0.21830378  0.87720023  0.64004959  1
  Al  Al29  1  0.77460045  0.76566308  0.31808923  1
  Al  Al30  1  0.88395891  0.87849074  0.06832822  1
  Al  Al31  1  0.45078623  0.75928669  0.83016467  1
  Al  Al32  1  0.56045697  0.87372274  0.56970276  1
  B  B33  1  0.88730927  0.20495814  0.10968295  1
  B  B34  1  0.88487389  0.87328485  0.56561543  1
  B  B35  1  0.55823807  0.87059954  0.06359642  1
  N  N36  1  0.22822615  0.20764808  0.37296208  1
  N  N37  1  0.07344630  0.11122243  0.08158095  1
  N  N38  1  0.88694823  0.20360484  0.81508042  1
  N  N39  1  0.78602320  0.06355169  0.61512963  1
  N  N40  1  0.55474671  0.20435858  0.37327767  1
  N  N41  1  0.45800637  0.06941018  0.11913304  1
  N  N42  1  0.22194338  0.20441001  0.87992925  1
  N  N43  1  0.12136470  0.08901393  0.58148282  1
  N  N44  1  0.88384304  0.20853412  0.38866288  1
  N  N45  1  0.79292754  0.10818609  0.13040691  1
  N  N46  1  0.55835881  0.20379653  0.87778974  1
  N  N47  1  0.44726895  0.09363802  0.63433256  1
  N  N48  1  0.22315628  0.53879305  0.37878151  1
  N  N49  1  0.11047312  0.42799299  0.12669555  1
  N  N50  1  0.88690434  0.53890812  0.87777266  1
  N  N51  1  0.77398674  0.44091631  0.61987911  1
  N  N52  1  0.55461796  0.54211541  0.37213701  1
  N  N53  1  0.44331823  0.42830344  0.12651253  1
  N  N54  1  0.22174357  0.53696487  0.87504408  1
  N  N55  1  0.11121197  0.42882767  0.62742648  1
  N  N56  1  0.88908190  0.54126164  0.37208317  1
  N  N57  1  0.79331539  0.39627934  0.12598946  1
  N  N58  1  0.55819104  0.53505997  0.87977854  1
  N  N59  1  0.44659543  0.42770323  0.62500992  1
  N  N60  1  0.22291939  0.87630189  0.32275072  1
  N  N61  1  0.10292900  0.75814086  0.12911021  1
  N  N62  1  0.88457435  0.87455739  0.88254060  1
  N  N63  1  0.78980332  0.77375392  0.62354209  1
  N  N64  1  0.55596573  0.87367190  0.38204292  1
  N  N65  1  0.46250034  0.77094325  0.11582663  1
  N  N66  1  0.21813690  0.87178040  0.83853124  1
  N  N67  1  0.08354221  0.77341002  0.62106075  1
  N  N68  1  0.88794688  0.87063073  0.39566628  1
  N  N69  1  0.75370409  0.77433911  0.12299313  1
  N  N70  1  0.55840296  0.87147655  0.89856403  1
  N  N71  1  0.45304874  0.76040049  0.63438408  1
