# generated using pymatgen
data_Al11BN12
_symmetry_space_group_name_H-M   'P 1'
_cell_length_a   9.25605946
_cell_length_b   9.25576551
_cell_length_c   9.89718463
_cell_angle_alpha   89.97057271
_cell_angle_beta   89.96781835
_cell_angle_gamma   60.01787399
_symmetry_Int_Tables_number   1
_chemical_formula_structural   Al11BN12
_chemical_formula_sum   'Al33 B3 N36'
_cell_volume   734.44434574
_cell_formula_units_Z   3
loop_
 _symmetry_equiv_pos_site_id
 _symmetry_equiv_pos_as_xyz
  1  'x, y, z'
loop_
 _atom_site_type_symbol
 _atom_site_label
 _atom_site_symmetry_multiplicity
 _atom_site_fract_x
 _atom_site_fract_y
 _atom_site_fract_z
 _atom_site_occupancy
  Al  Al0  1  0.10602333  0.09677773  0.30739729  1
  Al  Al1  1  0.21984232  0.20266684  0.06176781  1
  Al  Al2  1  0.78177296  0.09065380  0.81371550  1
  Al  Al3  1  0.89049890  0.19999769  0.56329415  1
  Al  Al4  1  0.44732673  0.08864047  0.30697868  1
  Al  Al5  1  0.56251472  0.20195726  0.06156493  1
  Al  Al6  1  0.10836209  0.09553543  0.81836791  1
  Al  Al7  1  0.22323539  0.20333019  0.56210088  1
  Al  Al8  1  0.78159021  0.09411000  0.31399301  1
  Al  Al9  1  0.44582849  0.09214731  0.81892199  1
  Al  Al10  1  0.56023262  0.19827112  0.56190830  1
  Al  Al11  1  0.11110289  0.42769259  0.31146808  1
  Al  Al12  1  0.22070907  0.54102692  0.06092324  1
  Al  Al13  1  0.77903338  0.42483043  0.81803602  1
  Al  Al14  1  0.88884805  0.54287996  0.56204892  1
  Al  Al15  1  0.44431063  0.42751413  0.31196330  1
  Al  Al16  1  0.56073671  0.53679384  0.06185255  1
  Al  Al17  1  0.11061199  0.42783585  0.81142327  1
  Al  Al18  1  0.21724776  0.54217611  0.56175706  1
  Al  Al19  1  0.78069030  0.42244860  0.30759912  1
  Al  Al20  1  0.88458415  0.53898724  0.06168187  1
  Al  Al21  1  0.44476544  0.42788561  0.81111187  1
  Al  Al22  1  0.55692469  0.53937126  0.56155752  1
  Al  Al23  1  0.10824555  0.76262381  0.31895629  1
  Al  Al24  1  0.21863374  0.87672962  0.06209349  1
  Al  Al25  1  0.77779655  0.76503792  0.81445251  1
  Al  Al26  1  0.44724255  0.76414993  0.30766766  1
  Al  Al27  1  0.10543708  0.76420391  0.80732990  1
  Al  Al28  1  0.21850294  0.87456300  0.56240943  1
  Al  Al29  1  0.77388686  0.76522722  0.31409949  1
  Al  Al30  1  0.88508500  0.87794273  0.06326831  1
  Al  Al31  1  0.44576499  0.76220518  0.81907412  1
  Al  Al32  1  0.55974104  0.87349255  0.56361770  1
  B  B33  1  0.88884292  0.20463759  0.05932321  1
  B  B34  1  0.88808167  0.87312701  0.56040451  1
  B  B35  1  0.55615617  0.87279040  0.05870770  1
  N  N36  1  0.22353400  0.20303285  0.36748531  1
  N  N37  1  0.08533771  0.10698102  0.11359809  1
  N  N38  1  0.88800529  0.20430841  0.89133329  1
  N  N39  1  0.79095736  0.06970652  0.61730884  1
  N  N40  1  0.55620018  0.20300518  0.36830719  1
  N  N41  1  0.45688941  0.07001445  0.11265910  1
  N  N42  1  0.22165483  0.20624134  0.87220878  1
  N  N43  1  0.11002675  0.09510013  0.62597048  1
  N  N44  1  0.88938105  0.20567074  0.37516949  1
  N  N45  1  0.79101740  0.10596369  0.11824095  1
  N  N46  1  0.55792917  0.20527912  0.87026891  1
  N  N47  1  0.44470349  0.09311009  0.62613667  1
  N  N48  1  0.22232853  0.53827423  0.37165141  1
  N  N49  1  0.11051481  0.42830009  0.12015895  1
  N  N50  1  0.88782228  0.54088956  0.87036305  1
  N  N51  1  0.77933999  0.42520196  0.62465237  1
  N  N52  1  0.55676867  0.54002002  0.36748325  1
  N  N53  1  0.44378793  0.42788327  0.12034551  1
  N  N54  1  0.22097512  0.54131002  0.86827011  1
  N  N55  1  0.11111606  0.42643319  0.62006817  1
  N  N56  1  0.88697948  0.53967520  0.36845487  1
  N  N57  1  0.79082413  0.40216203  0.11364927  1
  N  N58  1  0.55548761  0.53836674  0.87208438  1
  N  N59  1  0.44503470  0.42684164  0.61882842  1
  N  N60  1  0.22370191  0.87362151  0.36893626  1
  N  N61  1  0.10837334  0.76231278  0.12618474  1
  N  N62  1  0.88949153  0.87213259  0.87557775  1
  N  N63  1  0.78951342  0.77389599  0.61772328  1
  N  N64  1  0.55504419  0.87262770  0.37542510  1
  N  N65  1  0.45630665  0.77398762  0.11312575  1
  N  N66  1  0.22064543  0.87067520  0.87091857  1
  N  N67  1  0.08599729  0.77418444  0.61272189  1
  N  N68  1  0.88678565  0.87342109  0.39052382  1
  N  N69  1  0.75366386  0.77478097  0.11764754  1
  N  N70  1  0.55756827  0.87148247  0.89150140  1
  N  N71  1  0.44563155  0.76206610  0.62516917  1
