# generated using pymatgen
data_Al11BN12
_symmetry_space_group_name_H-M   'P 1'
_cell_length_a   9.23530337
_cell_length_b   9.28968545
_cell_length_c   10.26046222
_cell_angle_alpha   90.32448133
_cell_angle_beta   89.70422460
_cell_angle_gamma   59.83344878
_symmetry_Int_Tables_number   1
_chemical_formula_structural   Al11BN12
_chemical_formula_sum   'Al33 B3 N36'
_cell_volume   761.01430296
_cell_formula_units_Z   3
loop_
 _symmetry_equiv_pos_site_id
 _symmetry_equiv_pos_as_xyz
  1  'x, y, z'
loop_
 _atom_site_type_symbol
 _atom_site_label
 _atom_site_symmetry_multiplicity
 _atom_site_fract_x
 _atom_site_fract_y
 _atom_site_fract_z
 _atom_site_occupancy
  Al  Al0  1  0.11459162  0.09458248  0.39713399  1
  Al  Al1  1  0.21215741  0.20667778  0.13503657  1
  Al  Al2  1  0.78037631  0.08541699  0.82038704  1
  Al  Al3  1  0.88972224  0.20093322  0.60190477  1
  Al  Al4  1  0.45510200  0.08322076  0.31289020  1
  Al  Al5  1  0.56164926  0.20198547  0.06582684  1
  Al  Al6  1  0.09770776  0.10068618  0.88787264  1
  Al  Al7  1  0.21604789  0.20922216  0.64648939  1
  Al  Al8  1  0.78215249  0.09835638  0.31837230  1
  Al  Al9  1  0.45093740  0.09027206  0.82528442  1
  Al  Al10  1  0.55964440  0.19535529  0.56596202  1
  Al  Al11  1  0.12108048  0.42176980  0.38847204  1
  Al  Al12  1  0.21655771  0.54266099  0.14554843  1
  Al  Al13  1  0.77519324  0.43334361  0.81220570  1
  Al  Al14  1  0.88451286  0.54959347  0.56573697  1
  Al  Al15  1  0.45257694  0.42209823  0.32049718  1
  Al  Al16  1  0.56210452  0.52955009  0.07395462  1
  Al  Al17  1  0.11808655  0.42648958  0.89207213  1
  Al  Al18  1  0.21005325  0.54590226  0.63840310  1
  Al  Al19  1  0.78497064  0.42033257  0.32486034  1
  Al  Al20  1  0.87682829  0.53936182  0.06709084  1
  Al  Al21  1  0.45181794  0.42507771  0.81784212  1
  Al  Al22  1  0.55876672  0.53209328  0.56600959  1
  Al  Al23  1  0.09834204  0.76846057  0.38650603  1
  Al  Al24  1  0.22079677  0.87809820  0.14428806  1
  Al  Al25  1  0.78269844  0.76306972  0.82979595  1
  Al  Al26  1  0.43694909  0.76603924  0.39027210  1
  Al  Al27  1  0.11578898  0.75941723  0.89759062  1
  Al  Al28  1  0.21681490  0.87497102  0.64571066  1
  Al  Al29  1  0.77052848  0.76038787  0.30757802  1
  Al  Al30  1  0.88661593  0.87716434  0.09907700  1
  Al  Al31  1  0.43985122  0.76859398  0.89530670  1
  Al  Al32  1  0.56157551  0.87706698  0.57396256  1
  B  B33  1  0.88696081  0.20777194  0.10782240  1
  B  B34  1  0.88779167  0.87084915  0.60954828  1
  B  B35  1  0.55744263  0.87202182  0.06910134  1
  N  N36  1  0.21789928  0.20542186  0.32131176  1
  N  N37  1  0.07802484  0.11031100  0.08110134  1
  N  N38  1  0.88802191  0.20456360  0.81786340  1
  N  N39  1  0.79085227  0.05671631  0.62483301  1
  N  N40  1  0.55608546  0.20141414  0.37929153  1
  N  N41  1  0.46381560  0.06496786  0.12143657  1
  N  N42  1  0.21503232  0.20779621  0.83493193  1
  N  N43  1  0.12344785  0.08915158  0.58119135  1
  N  N44  1  0.88146478  0.20782834  0.39471562  1
  N  N45  1  0.79079180  0.11839947  0.12466878  1
  N  N46  1  0.55546528  0.20732396  0.88170067  1
  N  N47  1  0.45066210  0.09201142  0.63748493  1
  N  N48  1  0.21787426  0.54394243  0.33349361  1
  N  N49  1  0.11516167  0.42797419  0.07960639  1
  N  N50  1  0.88289955  0.54063828  0.88073121  1
  N  N51  1  0.77482168  0.44115546  0.62732773  1
  N  N52  1  0.55918431  0.53407748  0.37710718  1
  N  N53  1  0.45133910  0.42014018  0.13321555  1
  N  N54  1  0.21447590  0.54502902  0.82468040  1
  N  N55  1  0.11913224  0.42169990  0.57557593  1
  N  N56  1  0.88423483  0.54450683  0.37665279  1
  N  N57  1  0.79570539  0.39765457  0.13113257  1
  N  N58  1  0.55717592  0.53492967  0.88618432  1
  N  N59  1  0.45373159  0.41985741  0.62886635  1
  N  N60  1  0.21770935  0.87572045  0.32971503  1
  N  N61  1  0.12670207  0.75495041  0.08118747  1
  N  N62  1  0.88305203  0.87741694  0.89646510  1
  N  N63  1  0.79654259  0.77250649  0.63350477  1
  N  N64  1  0.55979746  0.87512064  0.38755493  1
  N  N65  1  0.45069631  0.77761149  0.08718860  1
  N  N66  1  0.22011404  0.87413882  0.83158700  1
  N  N67  1  0.07880814  0.77779015  0.58159193  1
  N  N68  1  0.89009462  0.87012785  0.31172766  1
  N  N69  1  0.74488459  0.76749207  0.12048723  1
  N  N70  1  0.56085502  0.87652240  0.89102850  1
  N  N71  1  0.43778246  0.76289192  0.58373039  1
