# generated using pymatgen
data_Al11BN12
_symmetry_space_group_name_H-M   'P 1'
_cell_length_a   9.28206033
_cell_length_b   9.27702833
_cell_length_c   10.18216876
_cell_angle_alpha   90.13823921
_cell_angle_beta   89.65403055
_cell_angle_gamma   59.89942196
_symmetry_Int_Tables_number   1
_chemical_formula_structural   Al11BN12
_chemical_formula_sum   'Al33 B3 N36'
_cell_volume   758.51930560
_cell_formula_units_Z   3
loop_
 _symmetry_equiv_pos_site_id
 _symmetry_equiv_pos_as_xyz
  1  'x, y, z'
loop_
 _atom_site_type_symbol
 _atom_site_label
 _atom_site_symmetry_multiplicity
 _atom_site_fract_x
 _atom_site_fract_y
 _atom_site_fract_z
 _atom_site_occupancy
  Al  Al0  1  0.11573509  0.09395585  0.39503637  1
  Al  Al1  1  0.21317935  0.20459711  0.13422634  1
  Al  Al2  1  0.78161081  0.08123121  0.81504595  1
  Al  Al3  1  0.89036805  0.20252775  0.60706868  1
  Al  Al4  1  0.45478018  0.08259693  0.32008299  1
  Al  Al5  1  0.56378862  0.20086655  0.06408115  1
  Al  Al6  1  0.10088921  0.09845164  0.88183592  1
  Al  Al7  1  0.21583428  0.21171686  0.64098303  1
  Al  Al8  1  0.78382656  0.10229690  0.31285531  1
  Al  Al9  1  0.45075090  0.09034624  0.81360206  1
  Al  Al10  1  0.56202661  0.19804485  0.56176824  1
  Al  Al11  1  0.11120496  0.42622308  0.38891575  1
  Al  Al12  1  0.21698790  0.54063736  0.14284013  1
  Al  Al13  1  0.77939553  0.42122207  0.88109872  1
  Al  Al14  1  0.89080773  0.54884529  0.64361388  1
  Al  Al15  1  0.44953760  0.42176784  0.32139685  1
  Al  Al16  1  0.56374639  0.53854433  0.13454794  1
  Al  Al17  1  0.11041585  0.42906750  0.89005221  1
  Al  Al18  1  0.21153417  0.54676545  0.63338759  1
  Al  Al19  1  0.77596671  0.43274012  0.39632331  1
  Al  Al20  1  0.88515620  0.53118789  0.13748217  1
  Al  Al21  1  0.44528940  0.41993661  0.81937875  1
  Al  Al22  1  0.55756105  0.54548788  0.64476125  1
  Al  Al23  1  0.10154778  0.76929486  0.38302649  1
  Al  Al24  1  0.21928106  0.87979212  0.14145895  1
  Al  Al25  1  0.76977182  0.76288912  0.88910206  1
  Al  Al26  1  0.44103672  0.75876777  0.39458219  1
  Al  Al27  1  0.11452916  0.75868017  0.89607905  1
  Al  Al28  1  0.21441458  0.87523930  0.64286579  1
  Al  Al29  1  0.78149847  0.76304879  0.36542081  1
  Al  Al30  1  0.88874524  0.87776861  0.10318471  1
  Al  Al31  1  0.44356099  0.76696303  0.88643734  1
  Al  Al32  1  0.56061150  0.87386353  0.59628323  1
  B  B33  1  0.88589852  0.20835884  0.09510237  1
  B  B34  1  0.88819767  0.87031097  0.59796606  1
  B  B35  1  0.55523119  0.86869073  0.09987970  1
  N  N36  1  0.21981980  0.20651715  0.32178631  1
  N  N37  1  0.07821058  0.11000652  0.07758982  1
  N  N38  1  0.88703990  0.20715288  0.81216859  1
  N  N39  1  0.79145783  0.05719654  0.62255750  1
  N  N40  1  0.56073563  0.20071460  0.37449111  1
  N  N41  1  0.46611431  0.05850627  0.12249160  1
  N  N42  1  0.21669503  0.20766483  0.83311817  1
  N  N43  1  0.12247587  0.09056908  0.58096379  1
  N  N44  1  0.88661788  0.20391604  0.38812804  1
  N  N45  1  0.79084574  0.12010645  0.12043099  1
  N  N46  1  0.55786872  0.20119320  0.87951582  1
  N  N47  1  0.44450245  0.10284337  0.62521075  1
  N  N48  1  0.21671400  0.54298106  0.33366225  1
  N  N49  1  0.10989778  0.42911859  0.07726156  1
  N  N50  1  0.88844844  0.53957679  0.83261277  1
  N  N51  1  0.77461033  0.44400140  0.58341974  1
  N  N52  1  0.56140349  0.54269852  0.32403384  1
  N  N53  1  0.44775770  0.41918223  0.12642402  1
  N  N54  1  0.21244803  0.54421611  0.82407586  1
  N  N55  1  0.10948356  0.42854835  0.57563570  1
  N  N56  1  0.89041649  0.53514186  0.32364093  1
  N  N57  1  0.79286850  0.39785820  0.07512828  1
  N  N58  1  0.55427975  0.54192578  0.83724297  1
  N  N59  1  0.45091056  0.42060036  0.62457223  1
  N  N60  1  0.22200178  0.87441215  0.32757016  1
  N  N61  1  0.12725068  0.75454872  0.08134910  1
  N  N62  1  0.88361084  0.87778154  0.89772962  1
  N  N63  1  0.80214777  0.77259256  0.58548454  1
  N  N64  1  0.55613060  0.87347415  0.38902188  1
  N  N65  1  0.45400282  0.77936604  0.08129221  1
  N  N66  1  0.21903894  0.87277899  0.83088617  1
  N  N67  1  0.08081183  0.77990043  0.57772699  1
  N  N68  1  0.89054230  0.87037205  0.30575770  1
  N  N69  1  0.74295205  0.76668443  0.08998915  1
  N  N70  1  0.55985460  0.86342254  0.82118268  1
  N  N71  1  0.43444856  0.75840016  0.58136033  1
