# generated using pymatgen
data_Al11BN12
_symmetry_space_group_name_H-M   'P 1'
_cell_length_a   9.26996342
_cell_length_b   9.27848959
_cell_length_c   9.93381927
_cell_angle_alpha   90.00204545
_cell_angle_beta   89.89026175
_cell_angle_gamma   59.96216347
_symmetry_Int_Tables_number   1
_chemical_formula_structural   Al11BN12
_chemical_formula_sum   'Al33 B3 N36'
_cell_volume   739.66556445
_cell_formula_units_Z   3
loop_
 _symmetry_equiv_pos_site_id
 _symmetry_equiv_pos_as_xyz
  1  'x, y, z'
loop_
 _atom_site_type_symbol
 _atom_site_label
 _atom_site_symmetry_multiplicity
 _atom_site_fract_x
 _atom_site_fract_y
 _atom_site_fract_z
 _atom_site_occupancy
  Al  Al0  1  0.10693657  0.09669683  0.33907476  1
  Al  Al1  1  0.21696988  0.20265669  0.06390567  1
  Al  Al2  1  0.77849875  0.08702376  0.80508714  1
  Al  Al3  1  0.88792562  0.20291576  0.58856643  1
  Al  Al4  1  0.44784102  0.08803781  0.30717943  1
  Al  Al5  1  0.56362897  0.20235612  0.06368497  1
  Al  Al6  1  0.11048816  0.09413883  0.80979517  1
  Al  Al7  1  0.22794177  0.20577890  0.56459033  1
  Al  Al8  1  0.78211025  0.09330539  0.32665059  1
  Al  Al9  1  0.44570114  0.09197621  0.82191253  1
  Al  Al10  1  0.55905451  0.19797391  0.56123592  1
  Al  Al11  1  0.11228700  0.42826460  0.31158759  1
  Al  Al12  1  0.22135242  0.54044694  0.06119761  1
  Al  Al13  1  0.77600389  0.43060125  0.80785832  1
  Al  Al14  1  0.89006154  0.54659983  0.56026432  1
  Al  Al15  1  0.44392354  0.42760818  0.31259436  1
  Al  Al16  1  0.56204732  0.53442203  0.06390789  1
  Al  Al17  1  0.10993497  0.42774491  0.81368614  1
  Al  Al18  1  0.21819133  0.54237635  0.56389261  1
  Al  Al19  1  0.78046142  0.42321451  0.31983895  1
  Al  Al20  1  0.88557833  0.53666026  0.06395606  1
  Al  Al21  1  0.44697685  0.42647472  0.81280692  1
  Al  Al22  1  0.55460892  0.54279516  0.56021672  1
  Al  Al23  1  0.10859319  0.76110256  0.31971586  1
  Al  Al24  1  0.21556297  0.87893341  0.06461581  1
  Al  Al25  1  0.77811827  0.76409490  0.81644305  1
  Al  Al26  1  0.44705531  0.76459421  0.30754321  1
  Al  Al27  1  0.10487121  0.76462737  0.80948675  1
  Al  Al28  1  0.22195647  0.86879505  0.56493552  1
  Al  Al29  1  0.77318464  0.76555004  0.31382619  1
  Al  Al30  1  0.88590695  0.87855695  0.06525184  1
  Al  Al31  1  0.44546876  0.76184152  0.82193966  1
  Al  Al32  1  0.55947419  0.87325483  0.56582850  1
  B  B33  1  0.89116529  0.20336492  0.10942232  1
  B  B34  1  0.88422125  0.87329696  0.56047356  1
  B  B35  1  0.55604388  0.87254750  0.05921996  1
  N  N36  1  0.22635515  0.20601687  0.37068061  1
  N  N37  1  0.07992663  0.10945823  0.11989623  1
  N  N38  1  0.88467097  0.20534900  0.82251562  1
  N  N39  1  0.78680587  0.06307655  0.61131088  1
  N  N40  1  0.55422962  0.20365507  0.36864647  1
  N  N41  1  0.45659575  0.06981866  0.11364664  1
  N  N42  1  0.22022577  0.20520021  0.87391813  1
  N  N43  1  0.12085042  0.09052385  0.61396066  1
  N  N44  1  0.88512308  0.20806565  0.38904717  1
  N  N45  1  0.79386859  0.10785101  0.12721956  1
  N  N46  1  0.55859997  0.20395482  0.87343528  1
  N  N47  1  0.44672630  0.09282526  0.62949618  1
  N  N48  1  0.22283507  0.53794589  0.37348512  1
  N  N49  1  0.11124095  0.42787055  0.12101564  1
  N  N50  1  0.88680001  0.54015169  0.87343012  1
  N  N51  1  0.77398092  0.44061241  0.61649624  1
  N  N52  1  0.55386642  0.54191686  0.36715766  1
  N  N53  1  0.44400163  0.42745343  0.12161598  1
  N  N54  1  0.22169076  0.54075052  0.86961553  1
  N  N55  1  0.11121886  0.42799609  0.62264798  1
  N  N56  1  0.88884734  0.54105875  0.36754624  1
  N  N57  1  0.79360804  0.39633558  0.12248345  1
  N  N58  1  0.55682167  0.53780850  0.87491455  1
  N  N59  1  0.44729857  0.42601217  0.62022377  1
  N  N60  1  0.22591066  0.86827718  0.37194061  1
  N  N61  1  0.10861239  0.76152466  0.12738341  1
  N  N62  1  0.88808751  0.87316370  0.87804025  1
  N  N63  1  0.78961948  0.77371721  0.61903199  1
  N  N64  1  0.55446414  0.87270636  0.37708112  1
  N  N65  1  0.45601841  0.77390773  0.11392664  1
  N  N66  1  0.21932005  0.87248048  0.87302712  1
  N  N67  1  0.08646500  0.77331753  0.61550680  1
  N  N68  1  0.88788744  0.86995608  0.39060887  1
  N  N69  1  0.75342369  0.77473026  0.11839810  1
  N  N70  1  0.55747989  0.87111244  0.89315913  1
  N  N71  1  0.44582914  0.76194217  0.62849304  1
