# generated using pymatgen
data_Al11BN12
_symmetry_space_group_name_H-M   'P 1'
_cell_length_a   9.27514816
_cell_length_b   9.26141967
_cell_length_c   10.15831005
_cell_angle_alpha   90.19397924
_cell_angle_beta   89.65792431
_cell_angle_gamma   59.90284641
_symmetry_Int_Tables_number   1
_chemical_formula_structural   Al11BN12
_chemical_formula_sum   'Al33 B3 N36'
_cell_volume   754.92701637
_cell_formula_units_Z   3
loop_
 _symmetry_equiv_pos_site_id
 _symmetry_equiv_pos_as_xyz
  1  'x, y, z'
loop_
 _atom_site_type_symbol
 _atom_site_label
 _atom_site_symmetry_multiplicity
 _atom_site_fract_x
 _atom_site_fract_y
 _atom_site_fract_z
 _atom_site_occupancy
  Al  Al0  1  0.11526256  0.09427673  0.39633249  1
  Al  Al1  1  0.21107527  0.20663750  0.13552574  1
  Al  Al2  1  0.78233107  0.08123570  0.81621267  1
  Al  Al3  1  0.89019106  0.20331589  0.60780894  1
  Al  Al4  1  0.45464217  0.08127408  0.32066606  1
  Al  Al5  1  0.56796273  0.19286613  0.06776972  1
  Al  Al6  1  0.10103174  0.09861863  0.88375852  1
  Al  Al7  1  0.21475283  0.21244591  0.64334192  1
  Al  Al8  1  0.78257848  0.10270272  0.31461563  1
  Al  Al9  1  0.45117896  0.09246087  0.81507123  1
  Al  Al10  1  0.56574283  0.18965197  0.56172457  1
  Al  Al11  1  0.11120281  0.42627077  0.39018037  1
  Al  Al12  1  0.22484780  0.53740647  0.14614739  1
  Al  Al13  1  0.78027727  0.42177390  0.88192411  1
  Al  Al14  1  0.89040958  0.54839157  0.64491686  1
  Al  Al15  1  0.44357432  0.43324090  0.38875459  1
  Al  Al16  1  0.56125595  0.53478972  0.13881218  1
  Al  Al17  1  0.11062391  0.43020554  0.89234493  1
  Al  Al18  1  0.21859320  0.54190285  0.63751906  1
  Al  Al19  1  0.77476097  0.43372803  0.39780571  1
  Al  Al20  1  0.88300600  0.53578465  0.14215734  1
  Al  Al21  1  0.44055554  0.43184141  0.89052975  1
  Al  Al22  1  0.55262561  0.54010896  0.64652190  1
  Al  Al23  1  0.10214432  0.76887083  0.38261667  1
  Al  Al24  1  0.21969152  0.87987968  0.14187562  1
  Al  Al25  1  0.76940106  0.76345284  0.89251335  1
  Al  Al26  1  0.44104632  0.75977573  0.39622113  1
  Al  Al27  1  0.11450272  0.75895417  0.89768352  1
  Al  Al28  1  0.21355741  0.87490309  0.64420627  1
  Al  Al29  1  0.78341998  0.76414370  0.38608993  1
  Al  Al30  1  0.88962979  0.87508451  0.10773543  1
  Al  Al31  1  0.44511018  0.76675183  0.88510667  1
  Al  Al32  1  0.55750653  0.87203839  0.60537481  1
  B  B33  1  0.88582838  0.20933428  0.09728737  1
  B  B34  1  0.89097976  0.86912822  0.59856119  1
  B  B35  1  0.55473229  0.86792604  0.10120814  1
  N  N36  1  0.21905105  0.20661806  0.32306016  1
  N  N37  1  0.07769345  0.11063898  0.07919264  1
  N  N38  1  0.88786309  0.20720458  0.81333395  1
  N  N39  1  0.79282799  0.05576214  0.62309481  1
  N  N40  1  0.56028755  0.19894763  0.37164039  1
  N  N41  1  0.46473472  0.05815311  0.12304297  1
  N  N42  1  0.21714495  0.20790498  0.83615464  1
  N  N43  1  0.12236273  0.09055509  0.58263761  1
  N  N44  1  0.88570901  0.20439265  0.39049108  1
  N  N45  1  0.79163437  0.11951481  0.12311514  1
  N  N46  1  0.56173905  0.19726347  0.88044023  1
  N  N47  1  0.44305495  0.10354459  0.62725051  1
  N  N48  1  0.22157294  0.54004912  0.33327765  1
  N  N49  1  0.10892924  0.43200239  0.08055235  1
  N  N50  1  0.88920000  0.54066618  0.83347350  1
  N  N51  1  0.77184309  0.44509891  0.58582381  1
  N  N52  1  0.55721650  0.53990184  0.32527403  1
  N  N53  1  0.44333814  0.42901435  0.08163395  1
  N  N54  1  0.22133560  0.54007738  0.82609598  1
  N  N55  1  0.10969506  0.42934755  0.57821600  1
  N  N56  1  0.88841192  0.53865401  0.32876294  1
  N  N57  1  0.79242924  0.39927263  0.07820189  1
  N  N58  1  0.55394655  0.53950627  0.83525244  1
  N  N59  1  0.44596625  0.42884621  0.57938768  1
  N  N60  1  0.22207843  0.87466931  0.32849724  1
  N  N61  1  0.12676312  0.75418922  0.08414008  1
  N  N62  1  0.88538758  0.87624603  0.89660957  1
  N  N63  1  0.80237200  0.77216139  0.58196491  1
  N  N64  1  0.55552310  0.87305401  0.39094732  1
  N  N65  1  0.45476578  0.77815788  0.08129035  1
  N  N66  1  0.21966013  0.87274678  0.83271320  1
  N  N67  1  0.08192088  0.77767122  0.57959818  1
  N  N68  1  0.88912454  0.86920067  0.30987962  1
  N  N69  1  0.74192591  0.76802729  0.08688560  1
  N  N70  1  0.56206918  0.86201219  0.81623995  1
  N  N71  1  0.43343874  0.75635256  0.58393884  1
