# generated using pymatgen
data_Al11BN12
_symmetry_space_group_name_H-M   'P 1'
_cell_length_a   9.28716003
_cell_length_b   9.28609869
_cell_length_c   10.10457604
_cell_angle_alpha   89.99685437
_cell_angle_beta   89.69893881
_cell_angle_gamma   59.83887169
_symmetry_Int_Tables_number   1
_chemical_formula_structural   Al11BN12
_chemical_formula_sum   'Al33 B3 N36'
_cell_volume   753.44158504
_cell_formula_units_Z   3
loop_
 _symmetry_equiv_pos_site_id
 _symmetry_equiv_pos_as_xyz
  1  'x, y, z'
loop_
 _atom_site_type_symbol
 _atom_site_label
 _atom_site_symmetry_multiplicity
 _atom_site_fract_x
 _atom_site_fract_y
 _atom_site_fract_z
 _atom_site_occupancy
  Al  Al0  1  0.11231455  0.09361491  0.40542565  1
  Al  Al1  1  0.22285097  0.19980228  0.14779295  1
  Al  Al2  1  0.78453501  0.08163978  0.82731042  1
  Al  Al3  1  0.89115178  0.20376114  0.61864096  1
  Al  Al4  1  0.44186837  0.09077743  0.39271780  1
  Al  Al5  1  0.56661205  0.19183908  0.07588026  1
  Al  Al6  1  0.10177718  0.09893253  0.89514688  1
  Al  Al7  1  0.21459063  0.21220836  0.65269193  1
  Al  Al8  1  0.78008124  0.10254452  0.32476928  1
  Al  Al9  1  0.44911920  0.09080381  0.84057464  1
  Al  Al10  1  0.57001668  0.19479005  0.58086607  1
  Al  Al11  1  0.10954440  0.42773970  0.39997548  1
  Al  Al12  1  0.22598885  0.53581685  0.15577435  1
  Al  Al13  1  0.78086382  0.42196601  0.89301995  1
  Al  Al14  1  0.89119413  0.54801737  0.65453666  1
  Al  Al15  1  0.44357515  0.43339444  0.40056186  1
  Al  Al16  1  0.56117429  0.53455693  0.14812315  1
  Al  Al17  1  0.11123038  0.43011143  0.90321751  1
  Al  Al18  1  0.21706552  0.54348911  0.64835542  1
  Al  Al19  1  0.77434971  0.43351073  0.40697012  1
  Al  Al20  1  0.88407747  0.53455192  0.15120493  1
  Al  Al21  1  0.44036228  0.43393714  0.89918226  1
  Al  Al22  1  0.55303538  0.54142705  0.65701653  1
  Al  Al23  1  0.10190475  0.76834979  0.39193178  1
  Al  Al24  1  0.22030192  0.87906988  0.15131108  1
  Al  Al25  1  0.77008771  0.76326444  0.90243985  1
  Al  Al26  1  0.44098977  0.75860156  0.40490441  1
  Al  Al27  1  0.11403672  0.75968784  0.90826897  1
  Al  Al28  1  0.21334748  0.87494081  0.65394201  1
  Al  Al29  1  0.78257487  0.76409061  0.39358154  1
  Al  Al30  1  0.88871890  0.87477164  0.11815828  1
  Al  Al31  1  0.44493769  0.76690654  0.89549437  1
  Al  Al32  1  0.56050597  0.86718681  0.62114103  1
  B  B33  1  0.88667736  0.20873800  0.10822298  1
  B  B34  1  0.89156820  0.86865960  0.60904173  1
  B  B35  1  0.55188772  0.87179047  0.10779053  1
  N  N36  1  0.22047836  0.20527849  0.33757417  1
  N  N37  1  0.07907756  0.11081723  0.09090593  1
  N  N38  1  0.88880520  0.20814442  0.82416635  1
  N  N39  1  0.79545248  0.05476814  0.63508320  1
  N  N40  1  0.56157709  0.20064469  0.38769047  1
  N  N41  1  0.46081731  0.05850734  0.10554987  1
  N  N42  1  0.21741058  0.20856533  0.84296006  1
  N  N43  1  0.12201618  0.09050854  0.59268180  1
  N  N44  1  0.88379812  0.20463819  0.39988128  1
  N  N45  1  0.79112270  0.11932799  0.13200478  1
  N  N46  1  0.56162027  0.20100891  0.88315724  1
  N  N47  1  0.44043205  0.10133142  0.61529172  1
  N  N48  1  0.22185218  0.53947983  0.34411068  1
  N  N49  1  0.11169716  0.42824980  0.09203569  1
  N  N50  1  0.88952530  0.54073535  0.84396081  1
  N  N51  1  0.77210298  0.44523630  0.59591110  1
  N  N52  1  0.55644790  0.53907941  0.33561203  1
  N  N53  1  0.44415555  0.42785032  0.09057426  1
  N  N54  1  0.22010017  0.54156257  0.83711915  1
  N  N55  1  0.11001066  0.42972798  0.58877461  1
  N  N56  1  0.88821828  0.53824515  0.33862729  1
  N  N57  1  0.79297772  0.39848809  0.08906069  1
  N  N58  1  0.55478457  0.54092439  0.84581070  1
  N  N59  1  0.44488880  0.43130508  0.59312652  1
  N  N60  1  0.22118858  0.87436772  0.33887215  1
  N  N61  1  0.12647830  0.75360767  0.09511311  1
  N  N62  1  0.88503441  0.87651209  0.90631350  1
  N  N63  1  0.80267675  0.77237208  0.59204881  1
  N  N64  1  0.55728942  0.86728600  0.39462893  1
  N  N65  1  0.45483283  0.77659388  0.09048390  1
  N  N66  1  0.21937407  0.87361796  0.84326198  1
  N  N67  1  0.08190811  0.77772881  0.58982138  1
  N  N68  1  0.88875159  0.86936115  0.32003140  1
  N  N69  1  0.74172247  0.76739729  0.09576345  1
  N  N70  1  0.56197585  0.86276398  0.82164906  1
  N  N71  1  0.43323049  0.75680581  0.59407077  1
