# generated using pymatgen
data_Al11BN12
_symmetry_space_group_name_H-M   'P 1'
_cell_length_a   9.28793431
_cell_length_b   9.27521911
_cell_length_c   10.01367136
_cell_angle_alpha   90.04930432
_cell_angle_beta   89.75497152
_cell_angle_gamma   59.90644080
_symmetry_Int_Tables_number   1
_chemical_formula_structural   Al11BN12
_chemical_formula_sum   'Al33 B3 N36'
_cell_volume   746.36364753
_cell_formula_units_Z   3
loop_
 _symmetry_equiv_pos_site_id
 _symmetry_equiv_pos_as_xyz
  1  'x, y, z'
loop_
 _atom_site_type_symbol
 _atom_site_label
 _atom_site_symmetry_multiplicity
 _atom_site_fract_x
 _atom_site_fract_y
 _atom_site_fract_z
 _atom_site_occupancy
  Al  Al0  1  0.11364990  0.08894804  0.39557214  1
  Al  Al1  1  0.22228658  0.20485431  0.07414557  1
  Al  Al2  1  0.77693844  0.08676071  0.81101103  1
  Al  Al3  1  0.88901269  0.20241357  0.60118187  1
  Al  Al4  1  0.44800208  0.08914168  0.31608200  1
  Al  Al5  1  0.56329869  0.20277925  0.07166161  1
  Al  Al6  1  0.09536231  0.09660843  0.88623631  1
  Al  Al7  1  0.23076109  0.20811171  0.57315040  1
  Al  Al8  1  0.78264444  0.09406263  0.33449925  1
  Al  Al9  1  0.44489873  0.09160262  0.82972026  1
  Al  Al10  1  0.55927006  0.19909017  0.56893647  1
  Al  Al11  1  0.11262514  0.42799716  0.32043425  1
  Al  Al12  1  0.22099785  0.53945030  0.06936409  1
  Al  Al13  1  0.77589923  0.43093092  0.81361614  1
  Al  Al14  1  0.89027155  0.54643720  0.56819911  1
  Al  Al15  1  0.44416092  0.42837216  0.32132488  1
  Al  Al16  1  0.56230732  0.53390521  0.07168268  1
  Al  Al17  1  0.11014035  0.42435307  0.82132790  1
  Al  Al18  1  0.21773675  0.54470324  0.57215943  1
  Al  Al19  1  0.78227161  0.42169208  0.32769170  1
  Al  Al20  1  0.88578746  0.53643264  0.07214797  1
  Al  Al21  1  0.44639528  0.42624187  0.82078615  1
  Al  Al22  1  0.55440547  0.54411612  0.56819093  1
  Al  Al23  1  0.10625835  0.76029085  0.32855989  1
  Al  Al24  1  0.21457182  0.88187205  0.13291747  1
  Al  Al25  1  0.77721882  0.76348180  0.82395730  1
  Al  Al26  1  0.45433385  0.76239146  0.31593998  1
  Al  Al27  1  0.10005401  0.75871261  0.82152020  1
  Al  Al28  1  0.21830257  0.87719728  0.64442062  1
  Al  Al29  1  0.77459697  0.76566182  0.32246266  1
  Al  Al30  1  0.88395640  0.87848938  0.07270300  1
  Al  Al31  1  0.45078441  0.75928290  0.83453608  1
  Al  Al32  1  0.56045606  0.87371963  0.57407859  1
  B  B33  1  0.88730711  0.20495460  0.11405614  1
  B  B34  1  0.88487393  0.87328103  0.56998610  1
  B  B35  1  0.55823538  0.87059729  0.06796971  1
  N  N36  1  0.22822288  0.20764647  0.37733394  1
  N  N37  1  0.07344385  0.11122003  0.08595293  1
  N  N38  1  0.88694681  0.20360105  0.81944799  1
  N  N39  1  0.78602102  0.06354920  0.61949758  1
  N  N40  1  0.55474454  0.20435616  0.37764531  1
  N  N41  1  0.45800428  0.06940704  0.12350723  1
  N  N42  1  0.22194138  0.20440688  0.88430315  1
  N  N43  1  0.12136398  0.08901036  0.58585450  1
  N  N44  1  0.88383993  0.20853416  0.39303661  1
  N  N45  1  0.79292617  0.10818334  0.13478120  1
  N  N46  1  0.55835747  0.20379390  0.88216301  1
  N  N47  1  0.44726777  0.09363660  0.63870447  1
  N  N48  1  0.22315303  0.53879202  0.38315512  1
  N  N49  1  0.11047318  0.42799120  0.13106540  1
  N  N50  1  0.88690261  0.53890517  0.88214971  1
  N  N51  1  0.77398441  0.44091612  0.62425413  1
  N  N52  1  0.55461636  0.54211278  0.37650520  1
  N  N53  1  0.44331433  0.42830157  0.13088384  1
  N  N54  1  0.22174259  0.53696190  0.87940825  1
  N  N55  1  0.11120848  0.42882523  0.63179888  1
  N  N56  1  0.88907989  0.54125869  0.37645103  1
  N  N57  1  0.79331355  0.39627583  0.13036047  1
  N  N58  1  0.55818788  0.53505744  0.88415375  1
  N  N59  1  0.44659595  0.42769943  0.62937765  1
  N  N60  1  0.22291454  0.87630132  0.32711926  1
  N  N61  1  0.10293009  0.75813640  0.13347596  1
  N  N62  1  0.88457167  0.87455621  0.88691407  1
  N  N63  1  0.78980315  0.77374987  0.62791501  1
  N  N64  1  0.55596338  0.87366950  0.38641847  1
  N  N65  1  0.46249907  0.77094126  0.12020082  1
  N  N66  1  0.21813472  0.87177819  0.84290332  1
  N  N67  1  0.08353968  0.77340906  0.62543203  1
  N  N68  1  0.88794665  0.87062660  0.40003626  1
  N  N69  1  0.75370172  0.77433764  0.12736668  1
  N  N70  1  0.55840015  0.87147390  0.90293653  1
  N  N71  1  0.45304693  0.76039610  0.63875531  1
