# generated using pymatgen
data_Al11BN12
_symmetry_space_group_name_H-M   'P 1'
_cell_length_a   9.26656641
_cell_length_b   9.28307843
_cell_length_c   10.08227577
_cell_angle_alpha   89.91608361
_cell_angle_beta   89.69015783
_cell_angle_gamma   59.85310988
_symmetry_Int_Tables_number   1
_chemical_formula_structural   Al11BN12
_chemical_formula_sum   'Al33 B3 N36'
_cell_volume   749.97801072
_cell_formula_units_Z   3
loop_
 _symmetry_equiv_pos_site_id
 _symmetry_equiv_pos_as_xyz
  1  'x, y, z'
loop_
 _atom_site_type_symbol
 _atom_site_label
 _atom_site_symmetry_multiplicity
 _atom_site_fract_x
 _atom_site_fract_y
 _atom_site_fract_z
 _atom_site_occupancy
  Al  Al0  1  0.11327591  0.09383075  0.40672128  1
  Al  Al1  1  0.21971553  0.20258236  0.14822696  1
  Al  Al2  1  0.78025122  0.08215744  0.82747297  1
  Al  Al3  1  0.89161262  0.20290703  0.61944709  1
  Al  Al4  1  0.44243058  0.08860719  0.39034611  1
  Al  Al5  1  0.56871090  0.19860803  0.08192373  1
  Al  Al6  1  0.10141628  0.09791470  0.89313642  1
  Al  Al7  1  0.22548255  0.20536334  0.65395708  1
  Al  Al8  1  0.78201942  0.10237397  0.32495418  1
  Al  Al9  1  0.44497690  0.08467705  0.89991743  1
  Al  Al10  1  0.56803071  0.19332158  0.57691463  1
  Al  Al11  1  0.11051169  0.42637399  0.40076741  1
  Al  Al12  1  0.22508375  0.53693252  0.15542460  1
  Al  Al13  1  0.78048694  0.42180153  0.89202152  1
  Al  Al14  1  0.89091287  0.54726873  0.65223728  1
  Al  Al15  1  0.44361586  0.43373568  0.39882535  1
  Al  Al16  1  0.56108752  0.53620987  0.14911794  1
  Al  Al17  1  0.11076227  0.43013120  0.90158153  1
  Al  Al18  1  0.21657788  0.54291368  0.64854614  1
  Al  Al19  1  0.77561788  0.43173435  0.40736684  1
  Al  Al20  1  0.88549092  0.53406392  0.15160954  1
  Al  Al21  1  0.44029839  0.43384197  0.89859810  1
  Al  Al22  1  0.55378150  0.54309191  0.65422891  1
  Al  Al23  1  0.10167423  0.76768346  0.39230059  1
  Al  Al24  1  0.22008968  0.87844815  0.15235904  1
  Al  Al25  1  0.77000762  0.76208510  0.90907091  1
  Al  Al26  1  0.44460394  0.76185401  0.39619265  1
  Al  Al27  1  0.11331762  0.76013784  0.90746797  1
  Al  Al28  1  0.21677119  0.87417254  0.65157063  1
  Al  Al29  1  0.77737360  0.76599275  0.38493918  1
  Al  Al30  1  0.88900273  0.87379003  0.11875262  1
  Al  Al31  1  0.44515439  0.76518951  0.90272208  1
  Al  Al32  1  0.55948948  0.87326236  0.64518786  1
  B  B33  1  0.88816111  0.20862858  0.10754917  1
  B  B34  1  0.88765909  0.87028630  0.60623453  1
  B  B35  1  0.55493147  0.86704075  0.14728188  1
  N  N36  1  0.21942140  0.20563058  0.33572210  1
  N  N37  1  0.08002911  0.11034459  0.08971156  1
  N  N38  1  0.88726359  0.20740433  0.82377707  1
  N  N39  1  0.79256748  0.05472664  0.63409177  1
  N  N40  1  0.56152791  0.20196235  0.38159771  1
  N  N41  1  0.45671769  0.06384244  0.09567282  1
  N  N42  1  0.22206644  0.20564912  0.84427436  1
  N  N43  1  0.12292372  0.09073100  0.59459473  1
  N  N44  1  0.88506007  0.20361929  0.40128809  1
  N  N45  1  0.79368612  0.11881858  0.13265561  1
  N  N46  1  0.55947182  0.20172192  0.88665097  1
  N  N47  1  0.44170431  0.09071149  0.58522756  1
  N  N48  1  0.22123164  0.53963665  0.34397143  1
  N  N49  1  0.11164447  0.42891536  0.09076840  1
  N  N50  1  0.88802265  0.54218123  0.84237562  1
  N  N51  1  0.77320504  0.44313958  0.59593562  1
  N  N52  1  0.55784234  0.53879382  0.33669228  1
  N  N53  1  0.44341655  0.43185997  0.09111243  1
  N  N54  1  0.21964607  0.54208675  0.83691975  1
  N  N55  1  0.11216411  0.42664511  0.59027732  1
  N  N56  1  0.88860534  0.53732582  0.33973450  1
  N  N57  1  0.79356154  0.39845633  0.08857525  1
  N  N58  1  0.55382223  0.54256691  0.84389389  1
  N  N59  1  0.44460089  0.43159755  0.59225612  1
  N  N60  1  0.22030162  0.87458683  0.34059500  1
  N  N61  1  0.12568241  0.75441583  0.09479910  1
  N  N62  1  0.88418323  0.87639006  0.90541707  1
  N  N63  1  0.79307285  0.77552366  0.58538821  1
  N  N64  1  0.55414334  0.86998229  0.32412502  1
  N  N65  1  0.45431650  0.77447853  0.09563451  1
  N  N66  1  0.22171978  0.87160724  0.84164513  1
  N  N67  1  0.07970002  0.77743509  0.59007480  1
  N  N68  1  0.88895054  0.87009285  0.32098043  1
  N  N69  1  0.74588729  0.76490457  0.09920799  1
  N  N70  1  0.55765165  0.86932081  0.83173168  1
  N  N71  1  0.44255219  0.76201063  0.58736443  1
