# generated using pymatgen
data_Al11BN12
_symmetry_space_group_name_H-M   'P 1'
_cell_length_a   9.29515613
_cell_length_b   9.29058026
_cell_length_c   9.95382744
_cell_angle_alpha   90.00937155
_cell_angle_beta   89.75897592
_cell_angle_gamma   59.94544971
_symmetry_Int_Tables_number   1
_chemical_formula_structural   Al11BN12
_chemical_formula_sum   'Al33 B3 N36'
_cell_volume   744.00515291
_cell_formula_units_Z   3
loop_
 _symmetry_equiv_pos_site_id
 _symmetry_equiv_pos_as_xyz
  1  'x, y, z'
loop_
 _atom_site_type_symbol
 _atom_site_label
 _atom_site_symmetry_multiplicity
 _atom_site_fract_x
 _atom_site_fract_y
 _atom_site_fract_z
 _atom_site_occupancy
  Al  Al0  1  0.11242939  0.09067619  0.38271962  1
  Al  Al1  1  0.22180416  0.20492659  0.06610882  1
  Al  Al2  1  0.77733937  0.08634528  0.80207382  1
  Al  Al3  1  0.88834144  0.20310434  0.59223844  1
  Al  Al4  1  0.44796150  0.08868138  0.30693933  1
  Al  Al5  1  0.56364585  0.20246349  0.06303929  1
  Al  Al6  1  0.09535990  0.09837830  0.87557162  1
  Al  Al7  1  0.23041496  0.20830780  0.56402241  1
  Al  Al8  1  0.78263379  0.09423931  0.32543871  1
  Al  Al9  1  0.44508372  0.09156564  0.82102363  1
  Al  Al10  1  0.55910231  0.19873379  0.55973464  1
  Al  Al11  1  0.11233921  0.42885150  0.31142191  1
  Al  Al12  1  0.22121011  0.53865217  0.05996223  1
  Al  Al13  1  0.77597036  0.43119946  0.80478031  1
  Al  Al14  1  0.89010190  0.54685644  0.55890522  1
  Al  Al15  1  0.44378637  0.42860922  0.31242838  1
  Al  Al16  1  0.56337987  0.53279422  0.06265922  1
  Al  Al17  1  0.11025782  0.42508217  0.81250347  1
  Al  Al18  1  0.21822437  0.54379548  0.56335029  1
  Al  Al19  1  0.78124913  0.42269891  0.31884536  1
  Al  Al20  1  0.88571778  0.53662156  0.06350147  1
  Al  Al21  1  0.44696238  0.42580305  0.81192035  1
  Al  Al22  1  0.55428464  0.54369010  0.55906375  1
  Al  Al23  1  0.10698323  0.76112020  0.31754767  1
  Al  Al24  1  0.21687090  0.87742890  0.10487474  1
  Al  Al25  1  0.77803719  0.76346472  0.81491486  1
  Al  Al26  1  0.45176540  0.76359572  0.30505578  1
  Al  Al27  1  0.10262805  0.76035893  0.81451818  1
  Al  Al28  1  0.21966009  0.87317283  0.61800532  1
  Al  Al29  1  0.77387105  0.76596632  0.31345533  1
  Al  Al30  1  0.88378489  0.87864662  0.06365104  1
  Al  Al31  1  0.44878413  0.76013436  0.82725093  1
  Al  Al32  1  0.55977695  0.87380790  0.56526217  1
  B  B33  1  0.88806704  0.20512383  0.10569010  1
  B  B34  1  0.88276918  0.87448402  0.55946310  1
  B  B35  1  0.55905447  0.87002377  0.05807163  1
  N  N36  1  0.22784914  0.20826341  0.36743333  1
  N  N37  1  0.07288446  0.11316106  0.07901673  1
  N  N38  1  0.88677689  0.20379687  0.80921562  1
  N  N39  1  0.78587095  0.06325140  0.60970625  1
  N  N40  1  0.55456330  0.20422697  0.36781032  1
  N  N41  1  0.45818910  0.06900641  0.11380112  1
  N  N42  1  0.22202968  0.20511259  0.87476232  1
  N  N43  1  0.12063115  0.08998635  0.57792862  1
  N  N44  1  0.88287505  0.20960382  0.38429773  1
  N  N45  1  0.79334800  0.10811770  0.12551413  1
  N  N46  1  0.55886548  0.20346605  0.87265972  1
  N  N47  1  0.44698939  0.09339273  0.62910412  1
  N  N48  1  0.22264896  0.53951297  0.37361296  1
  N  N49  1  0.11041839  0.42812320  0.12143860  1
  N  N50  1  0.88708141  0.53908975  0.87268929  1
  N  N51  1  0.77345963  0.44194334  0.61463118  1
  N  N52  1  0.55382493  0.54292541  0.36681312  1
  N  N53  1  0.44345596  0.42799172  0.12118583  1
  N  N54  1  0.22227832  0.53698431  0.86926404  1
  N  N55  1  0.11091495  0.42892300  0.62207515  1
  N  N56  1  0.88875588  0.54169096  0.36663409  1
  N  N57  1  0.79321376  0.39647100  0.12115976  1
  N  N58  1  0.55862968  0.53481769  0.87425334  1
  N  N59  1  0.44707369  0.42684146  0.61964438  1
  N  N60  1  0.22291481  0.87542674  0.32163791  1
  N  N61  1  0.10295338  0.75722942  0.12337677  1
  N  N62  1  0.88543298  0.87433166  0.87708980  1
  N  N63  1  0.78961596  0.77399471  0.61815444  1
  N  N64  1  0.55519039  0.87325361  0.37704042  1
  N  N65  1  0.46411493  0.76958788  0.11010712  1
  N  N66  1  0.21997960  0.86917405  0.85599671  1
  N  N67  1  0.08550344  0.77290727  0.61728936  1
  N  N68  1  0.88810511  0.87054331  0.39068145  1
  N  N69  1  0.75375421  0.77462392  0.11783230  1
  N  N70  1  0.55910679  0.87123681  0.89272331  1
  N  N71  1  0.45050007  0.76075850  0.63060098  1
