# generated using pymatgen
data_Al11BN12
_symmetry_space_group_name_H-M   'P 1'
_cell_length_a   9.27515014
_cell_length_b   9.26141651
_cell_length_c   10.15830609
_cell_angle_alpha   90.19400893
_cell_angle_beta   89.65800054
_cell_angle_gamma   59.90284444
_symmetry_Int_Tables_number   1
_chemical_formula_structural   Al11BN12
_chemical_formula_sum   'Al33 B3 N36'
_cell_volume   754.92661806
_cell_formula_units_Z   3
loop_
 _symmetry_equiv_pos_site_id
 _symmetry_equiv_pos_as_xyz
  1  'x, y, z'
loop_
 _atom_site_type_symbol
 _atom_site_label
 _atom_site_symmetry_multiplicity
 _atom_site_fract_x
 _atom_site_fract_y
 _atom_site_fract_z
 _atom_site_occupancy
  Al  Al0  1  0.11526152  0.09427324  0.40112835  1
  Al  Al1  1  0.21107358  0.20663476  0.14031738  1
  Al  Al2  1  0.78232896  0.08123381  0.82100337  1
  Al  Al3  1  0.89018708  0.20331281  0.61259190  1
  Al  Al4  1  0.45463862  0.08127189  0.32546403  1
  Al  Al5  1  0.56795917  0.19286481  0.07256693  1
  Al  Al6  1  0.10102836  0.09861706  0.88854838  1
  Al  Al7  1  0.21474993  0.21244362  0.64813567  1
  Al  Al8  1  0.78257580  0.10270051  0.31940720  1
  Al  Al9  1  0.45117773  0.09245781  0.81986265  1
  Al  Al10  1  0.56574055  0.18964903  0.56652007  1
  Al  Al11  1  0.11119893  0.42626875  0.39497448  1
  Al  Al12  1  0.22484604  0.53740308  0.15094482  1
  Al  Al13  1  0.78027524  0.42177037  0.88671551  1
  Al  Al14  1  0.89040714  0.54838889  0.64971311  1
  Al  Al15  1  0.44357126  0.43323842  0.39355359  1
  Al  Al16  1  0.56125353  0.53478700  0.14361050  1
  Al  Al17  1  0.11062280  0.43020256  0.89713647  1
  Al  Al18  1  0.21858996  0.54190115  0.64231540  1
  Al  Al19  1  0.77475795  0.43372761  0.40260006  1
  Al  Al20  1  0.88300437  0.53578237  0.14694682  1
  Al  Al21  1  0.44055416  0.43183762  0.89532390  1
  Al  Al22  1  0.55262330  0.54010599  0.65132005  1
  Al  Al23  1  0.10214056  0.76886945  0.38740668  1
  Al  Al24  1  0.21968931  0.87987821  0.14666679  1
  Al  Al25  1  0.76939845  0.76345132  0.89730652  1
  Al  Al26  1  0.44104179  0.75977320  0.40101974  1
  Al  Al27  1  0.11450171  0.75895079  0.90247980  1
  Al  Al28  1  0.21355385  0.87489967  0.64900229  1
  Al  Al29  1  0.78341771  0.76414091  0.39088550  1
  Al  Al30  1  0.88962644  0.87508314  0.11252362  1
  Al  Al31  1  0.44510861  0.76674938  0.88990273  1
  Al  Al32  1  0.55750401  0.87203515  0.61016707  1
  B  B33  1  0.88582613  0.20933254  0.10207865  1
  B  B34  1  0.89097796  0.86912489  0.60335377  1
  B  B35  1  0.55473001  0.86792449  0.10600246  1
  N  N36  1  0.21904737  0.20661636  0.32785337  1
  N  N37  1  0.07769082  0.11063731  0.08398378  1
  N  N38  1  0.88786020  0.20720276  0.81812430  1
  N  N39  1  0.79282519  0.05575908  0.62788626  1
  N  N40  1  0.56028512  0.19894566  0.37643569  1
  N  N41  1  0.46473249  0.05815095  0.12783937  1
  N  N42  1  0.21714344  0.20790223  0.84094775  1
  N  N43  1  0.12236110  0.09055135  0.58743286  1
  N  N44  1  0.88570497  0.20438950  0.39528853  1
  N  N45  1  0.79163252  0.11951314  0.12790832  1
  N  N46  1  0.56173741  0.19725991  0.88523515  1
  N  N47  1  0.44305222  0.10354173  0.63204222  1
  N  N48  1  0.22157071  0.54004605  0.33807403  1
  N  N49  1  0.10892841  0.43199967  0.08534433  1
  N  N50  1  0.88919801  0.54066336  0.83826848  1
  N  N51  1  0.77183938  0.44509825  0.59061811  1
  N  N52  1  0.55721261  0.53989917  0.33007168  1
  N  N53  1  0.44333539  0.42901262  0.08642913  1
  N  N54  1  0.22133392  0.54007513  0.83089084  1
  N  N55  1  0.10969220  0.42934542  0.58301033  1
  N  N56  1  0.88840915  0.53865193  0.33355395  1
  N  N57  1  0.79242619  0.39927064  0.08299507  1
  N  N58  1  0.55394422  0.53950371  0.84004854  1
  N  N59  1  0.44596405  0.42884253  0.58418529  1
  N  N60  1  0.22207576  0.87466731  0.33328948  1
  N  N61  1  0.12676103  0.75418569  0.08893576  1
  N  N62  1  0.88538587  0.87624416  0.90140237  1
  N  N63  1  0.80237040  0.77215787  0.58675968  1
  N  N64  1  0.55552033  0.87305121  0.39574460  1
  N  N65  1  0.45476400  0.77815549  0.08608558  1
  N  N66  1  0.21965830  0.87274360  0.83750889  1
  N  N67  1  0.08191860  0.77766843  0.58439076  1
  N  N68  1  0.88912024  0.86919855  0.31467191  1
  N  N69  1  0.74192330  0.76802590  0.09167792  1
  N  N70  1  0.56206671  0.86200951  0.82103276  1
  N  N71  1  0.43343510  0.75634902  0.58873601  1
