# generated using pymatgen
data_Al11BN12
_symmetry_space_group_name_H-M   'P 1'
_cell_length_a   9.24158690
_cell_length_b   9.28457820
_cell_length_c   10.28259072
_cell_angle_alpha   90.37480977
_cell_angle_beta   89.75481928
_cell_angle_gamma   59.84081799
_symmetry_Int_Tables_number   1
_chemical_formula_structural   Al11BN12
_chemical_formula_sum   'Al33 B3 N36'
_cell_volume   762.81133120
_cell_formula_units_Z   3
loop_
 _symmetry_equiv_pos_site_id
 _symmetry_equiv_pos_as_xyz
  1  'x, y, z'
loop_
 _atom_site_type_symbol
 _atom_site_label
 _atom_site_symmetry_multiplicity
 _atom_site_fract_x
 _atom_site_fract_y
 _atom_site_fract_z
 _atom_site_occupancy
  Al  Al0  1  0.11457412  0.09448711  0.39801547  1
  Al  Al1  1  0.21102288  0.20662677  0.13746862  1
  Al  Al2  1  0.78005533  0.08419569  0.82039171  1
  Al  Al3  1  0.88912730  0.20143028  0.60274048  1
  Al  Al4  1  0.45428860  0.08417600  0.32159040  1
  Al  Al5  1  0.56261268  0.20004071  0.06610128  1
  Al  Al6  1  0.09748269  0.10094616  0.88730778  1
  Al  Al7  1  0.21385571  0.21185299  0.64475401  1
  Al  Al8  1  0.78287501  0.09862423  0.31830560  1
  Al  Al9  1  0.45047719  0.09051021  0.81689039  1
  Al  Al10  1  0.56043812  0.19666915  0.56429234  1
  Al  Al11  1  0.12160600  0.42248896  0.38895836  1
  Al  Al12  1  0.21696548  0.54227675  0.14576864  1
  Al  Al13  1  0.77418099  0.43449000  0.81263338  1
  Al  Al14  1  0.88475738  0.54985210  0.56422425  1
  Al  Al15  1  0.45319272  0.42311854  0.32002810  1
  Al  Al16  1  0.56299094  0.52784251  0.07278764  1
  Al  Al17  1  0.11827201  0.42575532  0.89233616  1
  Al  Al18  1  0.21051566  0.54639677  0.63846033  1
  Al  Al19  1  0.78475015  0.42059026  0.32487164  1
  Al  Al20  1  0.87634661  0.53895263  0.06751350  1
  Al  Al21  1  0.45160106  0.42435148  0.81824837  1
  Al  Al22  1  0.55826036  0.53244574  0.56619258  1
  Al  Al23  1  0.10050768  0.76852571  0.38650352  1
  Al  Al24  1  0.21937974  0.87952519  0.14392644  1
  Al  Al25  1  0.78520719  0.76050889  0.82324209  1
  Al  Al26  1  0.43732433  0.76786940  0.39463780  1
  Al  Al27  1  0.11500874  0.75931843  0.89793197  1
  Al  Al28  1  0.21589662  0.87538454  0.64692857  1
  Al  Al29  1  0.77152961  0.76131928  0.31460918  1
  Al  Al30  1  0.88667504  0.87758841  0.10006888  1
  Al  Al31  1  0.44365713  0.77029253  0.88985100  1
  Al  Al32  1  0.55944713  0.87544742  0.59252155  1
  B  B33  1  0.88678176  0.20787315  0.10771954  1
  B  B34  1  0.89011586  0.86993448  0.60703257  1
  B  B35  1  0.55397914  0.86942371  0.10457500  1
  N  N36  1  0.21788743  0.20578506  0.32257615  1
  N  N37  1  0.07770931  0.11076843  0.08134824  1
  N  N38  1  0.88659305  0.20506985  0.81880179  1
  N  N39  1  0.79130215  0.05668334  0.62493749  1
  N  N40  1  0.55763317  0.20285206  0.37829135  1
  N  N41  1  0.46501165  0.06029477  0.12605750  1
  N  N42  1  0.21484294  0.20766464  0.83394450  1
  N  N43  1  0.12223078  0.08976900  0.58165687  1
  N  N44  1  0.88186975  0.20808074  0.39440310  1
  N  N45  1  0.79087816  0.11818530  0.12469608  1
  N  N46  1  0.55445291  0.20513165  0.88241328  1
  N  N47  1  0.44478372  0.10144551  0.62969619  1
  N  N48  1  0.21864629  0.54397103  0.33297745  1
  N  N49  1  0.11543751  0.42735570  0.08023061  1
  N  N50  1  0.88305244  0.54062215  0.88228524  1
  N  N51  1  0.77451498  0.44241720  0.62778531  1
  N  N52  1  0.55951047  0.53506180  0.37682455  1
  N  N53  1  0.45162155  0.41925221  0.13285799  1
  N  N54  1  0.21409491  0.54478758  0.82479809  1
  N  N55  1  0.11812613  0.42383245  0.57498082  1
  N  N56  1  0.88554447  0.54311414  0.37580589  1
  N  N57  1  0.79533584  0.39769965  0.13114085  1
  N  N58  1  0.55604505  0.53500902  0.88767541  1
  N  N59  1  0.45442105  0.42016905  0.62968556  1
  N  N60  1  0.21956615  0.87599256  0.32852564  1
  N  N61  1  0.12704028  0.75471424  0.08136327  1
  N  N62  1  0.88118424  0.87610970  0.89818713  1
  N  N63  1  0.80339715  0.77056949  0.62808691  1
  N  N64  1  0.56117256  0.87505203  0.39331587  1
  N  N65  1  0.45331575  0.78104659  0.08674553  1
  N  N66  1  0.21894767  0.87397108  0.83325059  1
  N  N67  1  0.08116235  0.77835046  0.58060862  1
  N  N68  1  0.89191259  0.86995864  0.31110910  1
  N  N69  1  0.74152982  0.76806179  0.12462535  1
  N  N70  1  0.55867185  0.86648925  0.83329953  1
  N  N71  1  0.43392792  0.76222537  0.58286950  1
