# generated using pymatgen
data_Al11BN12
_symmetry_space_group_name_H-M   'P 1'
_cell_length_a   9.26866102
_cell_length_b   9.28260036
_cell_length_c   10.09968575
_cell_angle_alpha   89.91616273
_cell_angle_beta   89.69886525
_cell_angle_gamma   59.84319240
_symmetry_Int_Tables_number   1
_chemical_formula_structural   Al11BN12
_chemical_formula_sum   'Al33 B3 N36'
_cell_volume   751.32933602
_cell_formula_units_Z   3
loop_
 _symmetry_equiv_pos_site_id
 _symmetry_equiv_pos_as_xyz
  1  'x, y, z'
loop_
 _atom_site_type_symbol
 _atom_site_label
 _atom_site_symmetry_multiplicity
 _atom_site_fract_x
 _atom_site_fract_y
 _atom_site_fract_z
 _atom_site_occupancy
  Al  Al0  1  0.11357352  0.09365059  0.40650397  1
  Al  Al1  1  0.21993111  0.20212046  0.14839029  1
  Al  Al2  1  0.78077895  0.08223982  0.82714626  1
  Al  Al3  1  0.89168923  0.20309774  0.61904162  1
  Al  Al4  1  0.44239896  0.08837207  0.39383986  1
  Al  Al5  1  0.56926718  0.19797120  0.08072615  1
  Al  Al6  1  0.10116261  0.09818234  0.89351398  1
  Al  Al7  1  0.22442681  0.20625681  0.65439153  1
  Al  Al8  1  0.78162538  0.10221362  0.32527313  1
  Al  Al9  1  0.44507269  0.08509380  0.89631201  1
  Al  Al10  1  0.56831697  0.19380258  0.57779225  1
  Al  Al11  1  0.11064562  0.42627674  0.40060482  1
  Al  Al12  1  0.22521585  0.53678085  0.15573827  1
  Al  Al13  1  0.78055281  0.42174905  0.89226479  1
  Al  Al14  1  0.89117352  0.54707599  0.65249232  1
  Al  Al15  1  0.44372869  0.43352375  0.39917043  1
  Al  Al16  1  0.56120525  0.53594906  0.14928584  1
  Al  Al17  1  0.11073387  0.43024944  0.90190513  1
  Al  Al18  1  0.21663340  0.54299526  0.64846119  1
  Al  Al19  1  0.77538478  0.43217014  0.40716730  1
  Al  Al20  1  0.88503233  0.53426491  0.15181943  1
  Al  Al21  1  0.44012205  0.43395779  0.89858072  1
  Al  Al22  1  0.55372698  0.54261500  0.65466749  1
  Al  Al23  1  0.10172132  0.76774119  0.39217611  1
  Al  Al24  1  0.22010072  0.87867579  0.15248923  1
  Al  Al25  1  0.77056818  0.76209237  0.90670005  1
  Al  Al26  1  0.44444482  0.76151696  0.39873856  1
  Al  Al27  1  0.11338794  0.76010526  0.90769149  1
  Al  Al28  1  0.21588214  0.87448288  0.65199440  1
  Al  Al29  1  0.77756691  0.76602052  0.38738846  1
  Al  Al30  1  0.88900816  0.87408386  0.11883962  1
  Al  Al31  1  0.44481083  0.76513928  0.90014929  1
  Al  Al32  1  0.55917342  0.87305499  0.64271212  1
  B  B33  1  0.88801760  0.20867834  0.10780371  1
  B  B34  1  0.88841093  0.86994583  0.60708329  1
  B  B35  1  0.55421811  0.86735639  0.13356204  1
  N  N36  1  0.22027783  0.20527359  0.33561479  1
  N  N37  1  0.07990865  0.11041485  0.08987365  1
  N  N38  1  0.88739901  0.20764844  0.82383746  1
  N  N39  1  0.79318195  0.05482787  0.63441159  1
  N  N40  1  0.56154578  0.20181572  0.38268337  1
  N  N41  1  0.45738377  0.06193425  0.09308867  1
  N  N42  1  0.22125960  0.20614400  0.84438055  1
  N  N43  1  0.12292957  0.09089682  0.59430805  1
  N  N44  1  0.88511325  0.20369831  0.40094812  1
  N  N45  1  0.79350171  0.11882903  0.13278459  1
  N  N46  1  0.55983554  0.20179720  0.88625497  1
  N  N47  1  0.44095538  0.09309057  0.58856670  1
  N  N48  1  0.22141459  0.53953257  0.34394362  1
  N  N49  1  0.11158506  0.42890229  0.09089222  1
  N  N50  1  0.88833231  0.54168837  0.84238893  1
  N  N51  1  0.77299424  0.44349559  0.59571715  1
  N  N52  1  0.55740446  0.53890443  0.33646921  1
  N  N53  1  0.44346281  0.43141884  0.09089486  1
  N  N54  1  0.21953441  0.54213877  0.83687495  1
  N  N55  1  0.11193650  0.42699217  0.59002637  1
  N  N56  1  0.88881944  0.53747952  0.33945873  1
  N  N57  1  0.79341542  0.39854558  0.08864153  1
  N  N58  1  0.55411262  0.54195612  0.84400894  1
  N  N59  1  0.44455529  0.43172595  0.59241733  1
  N  N60  1  0.22062536  0.87427492  0.34027818  1
  N  N61  1  0.12597156  0.75428409  0.09472983  1
  N  N62  1  0.88427592  0.87667943  0.90561798  1
  N  N63  1  0.79473628  0.77504501  0.58750501  1
  N  N64  1  0.55478655  0.86931221  0.33822169  1
  N  N65  1  0.45452016  0.77502945  0.09338307  1
  N  N66  1  0.22086495  0.87215941  0.84178394  1
  N  N67  1  0.08011338  0.77750819  0.58995300  1
  N  N68  1  0.88901421  0.86954963  0.32054891  1
  N  N69  1  0.74449709  0.76550735  0.09725402  1
  N  N70  1  0.55795247  0.86889024  0.83003161  1
  N  N71  1  0.44082342  0.76123651  0.58950169  1
