# generated using pymatgen
data_Al11BN12
_symmetry_space_group_name_H-M   'P 1'
_cell_length_a   9.30263606
_cell_length_b   9.32300360
_cell_length_c   10.18280067
_cell_angle_alpha   90.15030101
_cell_angle_beta   89.69729356
_cell_angle_gamma   59.86063603
_symmetry_Int_Tables_number   1
_chemical_formula_structural   Al11BN12
_chemical_formula_sum   'Al33 B3 N36'
_cell_volume   763.71972713
_cell_formula_units_Z   3
loop_
 _symmetry_equiv_pos_site_id
 _symmetry_equiv_pos_as_xyz
  1  'x, y, z'
loop_
 _atom_site_type_symbol
 _atom_site_label
 _atom_site_symmetry_multiplicity
 _atom_site_fract_x
 _atom_site_fract_y
 _atom_site_fract_z
 _atom_site_occupancy
  Al  Al0  1  0.11747529  0.09278745  0.39552368  1
  Al  Al1  1  0.21345814  0.20417864  0.13544954  1
  Al  Al2  1  0.78131005  0.08354216  0.81877697  1
  Al  Al3  1  0.88961793  0.19945585  0.59757650  1
  Al  Al4  1  0.45337833  0.08423344  0.32349530  1
  Al  Al5  1  0.56441578  0.19995637  0.06557018  1
  Al  Al6  1  0.10176791  0.09776448  0.88715575  1
  Al  Al7  1  0.21538238  0.21078905  0.64210827  1
  Al  Al8  1  0.78341226  0.09927598  0.31517789  1
  Al  Al9  1  0.44907176  0.09106151  0.81545116  1
  Al  Al10  1  0.56038419  0.19853566  0.56313478  1
  Al  Al11  1  0.11269872  0.42727648  0.38837958  1
  Al  Al12  1  0.21680001  0.54145922  0.14252364  1
  Al  Al13  1  0.78056044  0.42376530  0.82475512  1
  Al  Al14  1  0.89716777  0.54305264  0.63590340  1
  Al  Al15  1  0.44877745  0.42241502  0.32036045  1
  Al  Al16  1  0.56273459  0.53839039  0.13023897  1
  Al  Al17  1  0.11125034  0.42849126  0.89098478  1
  Al  Al18  1  0.21083230  0.54694199  0.63570334  1
  Al  Al19  1  0.78153293  0.42333023  0.35431605  1
  Al  Al20  1  0.88835132  0.53011694  0.13287458  1
  Al  Al21  1  0.44487906  0.42015202  0.82238458  1
  Al  Al22  1  0.54928074  0.54742686  0.63955006  1
  Al  Al23  1  0.10128317  0.76870000  0.38526437  1
  Al  Al24  1  0.21883154  0.87989081  0.14260115  1
  Al  Al25  1  0.78002801  0.76889670  0.82807659  1
  Al  Al26  1  0.44132977  0.76034792  0.39529963  1
  Al  Al27  1  0.11496894  0.75911478  0.89714334  1
  Al  Al28  1  0.21339833  0.87672718  0.64552529  1
  Al  Al29  1  0.76866301  0.76789450  0.31901978  1
  Al  Al30  1  0.88648011  0.87819147  0.09973836  1
  Al  Al31  1  0.44559351  0.76637941  0.88928675  1
  Al  Al32  1  0.56005712  0.87492110  0.59511198  1
  B  B33  1  0.88570939  0.20922719  0.10194476  1
  B  B34  1  0.88881761  0.87181328  0.60466379  1
  B  B35  1  0.55499404  0.86961181  0.10326641  1
  N  N36  1  0.21884648  0.20721021  0.32338231  1
  N  N37  1  0.07985795  0.10870281  0.08107052  1
  N  N38  1  0.89119996  0.19981203  0.81900287  1
  N  N39  1  0.79076951  0.05862823  0.62329820  1
  N  N40  1  0.55943209  0.20256939  0.37567527  1
  N  N41  1  0.46460944  0.05955104  0.12490365  1
  N  N42  1  0.21569325  0.20781806  0.83410265  1
  N  N43  1  0.12247054  0.09016483  0.58105144  1
  N  N44  1  0.88517787  0.20322990  0.39349681  1
  N  N45  1  0.79128366  0.11733937  0.12284801  1
  N  N46  1  0.55700787  0.20104774  0.88053401  1
  N  N47  1  0.44384587  0.10286270  0.62607090  1
  N  N48  1  0.21725067  0.54371280  0.33345031  1
  N  N49  1  0.11231091  0.42792856  0.07736056  1
  N  N50  1  0.89398899  0.53847611  0.83032117  1
  N  N51  1  0.77533201  0.43699823  0.61048243  1
  N  N52  1  0.55589394  0.54651691  0.32447884  1
  N  N53  1  0.44735040  0.41897087  0.12540818  1
  N  N54  1  0.21218963  0.54467604  0.82581897  1
  N  N55  1  0.11327828  0.42654013  0.57407780  1
  N  N56  1  0.89429793  0.53653570  0.32520149  1
  N  N57  1  0.79661355  0.39286295  0.11116974  1
  N  N58  1  0.55113965  0.54287305  0.83982474  1
  N  N59  1  0.44832106  0.42001893  0.62579866  1
  N  N60  1  0.22193821  0.87455260  0.32897150  1
  N  N61  1  0.12579029  0.75540311  0.08221987  1
  N  N62  1  0.88195000  0.87681200  0.89859019  1
  N  N63  1  0.80180132  0.77600580  0.62414132  1
  N  N64  1  0.56005236  0.87384173  0.39490416  1
  N  N65  1  0.45444607  0.77989368  0.08270356  1
  N  N66  1  0.22003258  0.87262358  0.83325107  1
  N  N67  1  0.08015218  0.77992846  0.58044313  1
  N  N68  1  0.89175541  0.87115545  0.31223781  1
  N  N69  1  0.73998971  0.77080210  0.12059833  1
  N  N70  1  0.55571162  0.86618749  0.82474522  1
  N  N71  1  0.43265748  0.76032736  0.58131409  1
