# generated using pymatgen
data_Al11BN12
_symmetry_space_group_name_H-M   'P 1'
_cell_length_a   9.29406671
_cell_length_b   9.28557574
_cell_length_c   9.97587677
_cell_angle_alpha   90.02140844
_cell_angle_beta   89.75987215
_cell_angle_gamma   59.92927178
_symmetry_Int_Tables_number   1
_chemical_formula_structural   Al11BN12
_chemical_formula_sum   'Al33 B3 N36'
_cell_volume   745.04203499
_cell_formula_units_Z   3
loop_
 _symmetry_equiv_pos_site_id
 _symmetry_equiv_pos_as_xyz
  1  'x, y, z'
loop_
 _atom_site_type_symbol
 _atom_site_label
 _atom_site_symmetry_multiplicity
 _atom_site_fract_x
 _atom_site_fract_y
 _atom_site_fract_z
 _atom_site_occupancy
  Al  Al0  1  0.11324051  0.08934185  0.38454573  1
  Al  Al1  1  0.22212308  0.20489352  0.06554840  1
  Al  Al2  1  0.77721600  0.08657582  0.80176323  1
  Al  Al3  1  0.88884357  0.20267198  0.59187451  1
  Al  Al4  1  0.44788107  0.08894587  0.30684874  1
  Al  Al5  1  0.56355813  0.20251528  0.06277085  1
  Al  Al6  1  0.09524672  0.09772403  0.87639649  1
  Al  Al7  1  0.23044111  0.20804695  0.56385426  1
  Al  Al8  1  0.78257944  0.09425524  0.32541224  1
  Al  Al9  1  0.44504538  0.09161747  0.82068904  1
  Al  Al10  1  0.55913633  0.19883287  0.55969230  1
  Al  Al11  1  0.11240648  0.42853007  0.31133660  1
  Al  Al12  1  0.22127951  0.53876879  0.05994785  1
  Al  Al13  1  0.77604750  0.43103568  0.80438947  1
  Al  Al14  1  0.89012370  0.54674716  0.55887260  1
  Al  Al15  1  0.44390430  0.42849766  0.31227543  1
  Al  Al16  1  0.56304267  0.53303080  0.06253810  1
  Al  Al17  1  0.11025445  0.42464195  0.81217156  1
  Al  Al18  1  0.21784128  0.54458532  0.56317894  1
  Al  Al19  1  0.78167911  0.42229157  0.31876377  1
  Al  Al20  1  0.88577857  0.53656183  0.06323746  1
  Al  Al21  1  0.44687186  0.42583748  0.81160029  1
  Al  Al22  1  0.55410446  0.54418988  0.55903935  1
  Al  Al23  1  0.10651622  0.76077305  0.31819783  1
  Al  Al24  1  0.21542530  0.88023948  0.11757889  1
  Al  Al25  1  0.77769080  0.76348299  0.81456451  1
  Al  Al26  1  0.45315695  0.76300038  0.30562933  1
  Al  Al27  1  0.10090262  0.75904220  0.81362476  1
  Al  Al28  1  0.21848145  0.87617953  0.63262514  1
  Al  Al29  1  0.77409037  0.76595760  0.31333483  1
  Al  Al30  1  0.88374587  0.87861131  0.06351155  1
  Al  Al31  1  0.45054294  0.75930577  0.82657251  1
  Al  Al32  1  0.55988938  0.87365438  0.56508434  1
  B  B33  1  0.88767293  0.20502869  0.10514744  1
  B  B34  1  0.88417805  0.87372413  0.56006321  1
  B  B35  1  0.55885557  0.87021506  0.05809661  1
  N  N36  1  0.22789330  0.20796596  0.36746520  1
  N  N37  1  0.07321805  0.11206336  0.07727900  1
  N  N38  1  0.88692335  0.20373689  0.80946443  1
  N  N39  1  0.78593102  0.06341236  0.60975292  1
  N  N40  1  0.55459224  0.20429006  0.36793316  1
  N  N41  1  0.45815181  0.06910647  0.11389253  1
  N  N42  1  0.22206822  0.20475387  0.87481683  1
  N  N43  1  0.12128504  0.08882667  0.57676553  1
  N  N44  1  0.88343600  0.20907490  0.38386864  1
  N  N45  1  0.79326796  0.10811936  0.12544043  1
  N  N46  1  0.55876237  0.20353469  0.87269759  1
  N  N47  1  0.44702571  0.09348897  0.62913546  1
  N  N48  1  0.22282076  0.53941115  0.37357331  1
  N  N49  1  0.11045747  0.42801976  0.12152391  1
  N  N50  1  0.88704424  0.53903929  0.87266667  1
  N  N51  1  0.77371474  0.44141338  0.61451657  1
  N  N52  1  0.55398527  0.54273930  0.36681363  1
  N  N53  1  0.44347201  0.42799660  0.12131532  1
  N  N54  1  0.22225561  0.53669862  0.86958777  1
  N  N55  1  0.11106763  0.42880231  0.62207320  1
  N  N56  1  0.88881464  0.54162945  0.36671940  1
  N  N57  1  0.79341956  0.39623684  0.12107786  1
  N  N58  1  0.55861431  0.53464967  0.87452036  1
  N  N59  1  0.44685007  0.42719093  0.61969254  1
  N  N60  1  0.22248914  0.87670313  0.31645714  1
  N  N61  1  0.10298048  0.75750286  0.12297611  1
  N  N62  1  0.88480630  0.87456227  0.87732134  1
  N  N63  1  0.78962733  0.77393118  0.61818654  1
  N  N64  1  0.55539059  0.87349709  0.37694547  1
  N  N65  1  0.46343001  0.77008418  0.10977583  1
  N  N66  1  0.21874557  0.87116113  0.83995069  1
  N  N67  1  0.08424872  0.77322920  0.61672545  1
  N  N68  1  0.88809933  0.87063023  0.39043830  1
  N  N69  1  0.75370202  0.77449916  0.11788493  1
  N  N70  1  0.55897846  0.87140376  0.89307444  1
  N  N71  1  0.45208968  0.76041388  0.63008884  1
