# generated using pymatgen
data_Al11BN12
_symmetry_space_group_name_H-M   'P 1'
_cell_length_a   9.27543248
_cell_length_b   9.29542239
_cell_length_c   10.02743624
_cell_angle_alpha   89.93377411
_cell_angle_beta   89.66416856
_cell_angle_gamma   59.88226248
_symmetry_Int_Tables_number   1
_chemical_formula_structural   Al11BN12
_chemical_formula_sum   'Al33 B3 N36'
_cell_volume   747.82328233
_cell_formula_units_Z   3
loop_
 _symmetry_equiv_pos_site_id
 _symmetry_equiv_pos_as_xyz
  1  'x, y, z'
loop_
 _atom_site_type_symbol
 _atom_site_label
 _atom_site_symmetry_multiplicity
 _atom_site_fract_x
 _atom_site_fract_y
 _atom_site_fract_z
 _atom_site_occupancy
  Al  Al0  1  0.11295007  0.09402221  0.40779024  1
  Al  Al1  1  0.21742437  0.20401769  0.14828412  1
  Al  Al2  1  0.77927469  0.08209718  0.82946761  1
  Al  Al3  1  0.89161579  0.20221139  0.62037070  1
  Al  Al4  1  0.44195063  0.08939696  0.38538059  1
  Al  Al5  1  0.56619740  0.20082249  0.09035636  1
  Al  Al6  1  0.10224281  0.09731882  0.89236055  1
  Al  Al7  1  0.22759565  0.20382098  0.65365175  1
  Al  Al8  1  0.78360684  0.10195767  0.32550696  1
  Al  Al9  1  0.44559438  0.08488393  0.90491363  1
  Al  Al10  1  0.56724020  0.19282386  0.57656305  1
  Al  Al11  1  0.11003894  0.42661501  0.40138756  1
  Al  Al12  1  0.22368947  0.53833342  0.15554068  1
  Al  Al13  1  0.78066364  0.42144943  0.89150226  1
  Al  Al14  1  0.89086501  0.54748539  0.65233344  1
  Al  Al15  1  0.44348459  0.43387876  0.39709066  1
  Al  Al16  1  0.56140437  0.53674875  0.14921729  1
  Al  Al17  1  0.11125873  0.42976901  0.90097816  1
  Al  Al18  1  0.21718301  0.54229178  0.64847050  1
  Al  Al19  1  0.77574233  0.43148596  0.40833408  1
  Al  Al20  1  0.88575033  0.53376629  0.15155592  1
  Al  Al21  1  0.44135993  0.43252211  0.89994629  1
  Al  Al22  1  0.55382575  0.54321704  0.65407910  1
  Al  Al23  1  0.10153560  0.76778859  0.39304734  1
  Al  Al24  1  0.21954694  0.87894749  0.15250477  1
  Al  Al25  1  0.76959628  0.76192333  0.91125875  1
  Al  Al26  1  0.44461233  0.76201510  0.39476361  1
  Al  Al27  1  0.11371273  0.75969987  0.90696272  1
  Al  Al28  1  0.21822579  0.87325329  0.65148045  1
  Al  Al29  1  0.77750484  0.76577771  0.38329374  1
  Al  Al30  1  0.88900970  0.87435958  0.11828683  1
  Al  Al31  1  0.44563934  0.76514807  0.90507385  1
  Al  Al32  1  0.55989496  0.87363701  0.64655111  1
  B  B33  1  0.88816189  0.20873096  0.10716714  1
  B  B34  1  0.88684212  0.87026380  0.60599285  1
  B  B35  1  0.55552999  0.86638263  0.15497178  1
  N  N36  1  0.21740741  0.20650165  0.33626182  1
  N  N37  1  0.07985988  0.11055650  0.08976575  1
  N  N38  1  0.88732682  0.20641115  0.82442968  1
  N  N39  1  0.79145071  0.05449326  0.63365816  1
  N  N40  1  0.56020309  0.20303521  0.37505969  1
  N  N41  1  0.45527737  0.06619148  0.10054611  1
  N  N42  1  0.22380720  0.20464174  0.84516120  1
  N  N43  1  0.12325646  0.09017994  0.59623478  1
  N  N44  1  0.88489890  0.20366602  0.40323854  1
  N  N45  1  0.79430757  0.11897219  0.13262146  1
  N  N46  1  0.55919519  0.20157032  0.88867677  1
  N  N47  1  0.44256998  0.08875447  0.58115157  1
  N  N48  1  0.22033169  0.54025901  0.34483159  1
  N  N49  1  0.11131421  0.42953461  0.09099654  1
  N  N50  1  0.88790752  0.54248907  0.84328367  1
  N  N51  1  0.77365125  0.44256904  0.59753018  1
  N  N52  1  0.55853833  0.53886849  0.33742387  1
  N  N53  1  0.44254629  0.43339369  0.09324621  1
  N  N54  1  0.22087440  0.54135656  0.83750480  1
  N  N55  1  0.11269648  0.42580630  0.59148143  1
  N  N56  1  0.88837198  0.53710299  0.34057274  1
  N  N57  1  0.79374695  0.39839112  0.08888085  1
  N  N58  1  0.55360697  0.54280977  0.84492493  1
  N  N59  1  0.44541656  0.43048895  0.59137473  1
  N  N60  1  0.21982383  0.87508044  0.34163674  1
  N  N61  1  0.12521403  0.75516101  0.09526365  1
  N  N62  1  0.88457083  0.87529323  0.90561658  1
  N  N63  1  0.79236599  0.77538320  0.58449272  1
  N  N64  1  0.55410412  0.86980585  0.31956430  1
  N  N65  1  0.45414374  0.77449069  0.09835560  1
  N  N66  1  0.22300811  0.87071985  0.84234032  1
  N  N67  1  0.07935766  0.77720771  0.59112845  1
  N  N68  1  0.88898498  0.87070672  0.32189755  1
  N  N69  1  0.74653075  0.76488873  0.10192799  1
  N  N70  1  0.55718336  0.87041662  0.83420915  1
  N  N71  1  0.44411331  0.76204545  0.58663773  1
