# generated using pymatgen
data_Al11BN12
_symmetry_space_group_name_H-M   'P 1'
_cell_length_a   9.28101027
_cell_length_b   9.27990342
_cell_length_c   10.18472133
_cell_angle_alpha   90.12487800
_cell_angle_beta   89.65786509
_cell_angle_gamma   59.91011501
_symmetry_Int_Tables_number   1
_chemical_formula_structural   Al11BN12
_chemical_formula_sum   'Al33 B3 N36'
_cell_volume   758.94257088
_cell_formula_units_Z   3
loop_
 _symmetry_equiv_pos_site_id
 _symmetry_equiv_pos_as_xyz
  1  'x, y, z'
loop_
 _atom_site_type_symbol
 _atom_site_label
 _atom_site_symmetry_multiplicity
 _atom_site_fract_x
 _atom_site_fract_y
 _atom_site_fract_z
 _atom_site_occupancy
  Al  Al0  1  0.11567994  0.09390951  0.39511897  1
  Al  Al1  1  0.21342601  0.20430998  0.13434032  1
  Al  Al2  1  0.78139706  0.08162450  0.81505439  1
  Al  Al3  1  0.89037532  0.20240485  0.60706849  1
  Al  Al4  1  0.45435513  0.08322994  0.32047941  1
  Al  Al5  1  0.56360984  0.20098788  0.06411639  1
  Al  Al6  1  0.10099749  0.09842405  0.88181251  1
  Al  Al7  1  0.21601429  0.21153470  0.64087060  1
  Al  Al8  1  0.78375590  0.10256978  0.31292450  1
  Al  Al9  1  0.45061162  0.09044481  0.81365655  1
  Al  Al10  1  0.56226078  0.19804841  0.56200822  1
  Al  Al11  1  0.11112481  0.42643586  0.38901711  1
  Al  Al12  1  0.21702140  0.54067025  0.14291116  1
  Al  Al13  1  0.77921519  0.42103039  0.88115707  1
  Al  Al14  1  0.89102432  0.54852495  0.64357150  1
  Al  Al15  1  0.44945697  0.42191657  0.32151361  1
  Al  Al16  1  0.56370918  0.53854872  0.13467888  1
  Al  Al17  1  0.11073026  0.42875326  0.89004004  1
  Al  Al18  1  0.21128967  0.54699120  0.63340309  1
  Al  Al19  1  0.77599734  0.43269707  0.39647424  1
  Al  Al20  1  0.88604603  0.52943027  0.13643721  1
  Al  Al21  1  0.44517068  0.42005361  0.81930488  1
  Al  Al22  1  0.55756929  0.54561779  0.64477972  1
  Al  Al23  1  0.10120935  0.76928240  0.38373183  1
  Al  Al24  1  0.21927618  0.87969257  0.14169057  1
  Al  Al25  1  0.77065417  0.76303422  0.88508616  1
  Al  Al26  1  0.44093665  0.75876120  0.39478093  1
  Al  Al27  1  0.11463570  0.75863982  0.89610254  1
  Al  Al28  1  0.21456911  0.87516213  0.64287903  1
  Al  Al29  1  0.77876256  0.76342019  0.35252317  1
  Al  Al30  1  0.88895626  0.87820388  0.10259875  1
  Al  Al31  1  0.44331179  0.76687936  0.88701528  1
  Al  Al32  1  0.56197906  0.87363440  0.59502005  1
  B  B33  1  0.88587128  0.20819432  0.09504606  1
  B  B34  1  0.88771115  0.86995863  0.59925974  1
  B  B35  1  0.55508771  0.86876788  0.10000222  1
  N  N36  1  0.21969794  0.20662692  0.32193830  1
  N  N37  1  0.07824720  0.10993587  0.07765030  1
  N  N38  1  0.88711447  0.20716357  0.81235330  1
  N  N39  1  0.79143418  0.05771324  0.62282073  1
  N  N40  1  0.56069639  0.20090643  0.37463040  1
  N  N41  1  0.46598213  0.05855005  0.12281774  1
  N  N42  1  0.21665219  0.20771987  0.83293671  1
  N  N43  1  0.12251457  0.09050200  0.58097074  1
  N  N44  1  0.88664818  0.20404128  0.38799066  1
  N  N45  1  0.79069187  0.12020259  0.12038523  1
  N  N46  1  0.55765052  0.20144118  0.87960621  1
  N  N47  1  0.44479896  0.10245752  0.62517650  1
  N  N48  1  0.21657066  0.54314635  0.33364448  1
  N  N49  1  0.11049168  0.42863078  0.07713731  1
  N  N50  1  0.88869310  0.53879222  0.83306878  1
  N  N51  1  0.77468479  0.44379020  0.58342822  1
  N  N52  1  0.56143765  0.54286756  0.32413021  1
  N  N53  1  0.44779056  0.41918409  0.12659779  1
  N  N54  1  0.21225246  0.54433787  0.82410615  1
  N  N55  1  0.10963589  0.42836494  0.57553864  1
  N  N56  1  0.89090877  0.53406536  0.32278350  1
  N  N57  1  0.79270508  0.39757850  0.07498392  1
  N  N58  1  0.55415080  0.54205555  0.83727049  1
  N  N59  1  0.45079057  0.42073941  0.62462837  1
  N  N60  1  0.22196296  0.87437540  0.32776095  1
  N  N61  1  0.12740417  0.75444620  0.08127773  1
  N  N62  1  0.88335270  0.87819340  0.89850468  1
  N  N63  1  0.80193732  0.77311563  0.59242167  1
  N  N64  1  0.55670452  0.87347899  0.38927063  1
  N  N65  1  0.45404124  0.77917271  0.08166263  1
  N  N66  1  0.21894688  0.87280028  0.83094046  1
  N  N67  1  0.08096868  0.77982459  0.57786335  1
  N  N68  1  0.89104766  0.87094973  0.30548595  1
  N  N69  1  0.74316343  0.76677347  0.09411936  1
  N  N70  1  0.55869219  0.86433124  0.82349790  1
  N  N71  1  0.43487112  0.75863069  0.58141135  1
