# generated using pymatgen
data_Al11BN12
_symmetry_space_group_name_H-M   'P 1'
_cell_length_a   9.28145768
_cell_length_b   9.29676047
_cell_length_c   10.07607679
_cell_angle_alpha   90.08220574
_cell_angle_beta   89.54709657
_cell_angle_gamma   59.90272170
_symmetry_Int_Tables_number   1
_chemical_formula_structural   Al11BN12
_chemical_formula_sum   'Al33 B3 N36'
_cell_volume   752.17926757
_cell_formula_units_Z   3
loop_
 _symmetry_equiv_pos_site_id
 _symmetry_equiv_pos_as_xyz
  1  'x, y, z'
loop_
 _atom_site_type_symbol
 _atom_site_label
 _atom_site_symmetry_multiplicity
 _atom_site_fract_x
 _atom_site_fract_y
 _atom_site_fract_z
 _atom_site_occupancy
  Al  Al0  1  0.11452914  0.09199087  0.39490660  1
  Al  Al1  1  0.22247686  0.20454350  0.08601415  1
  Al  Al2  1  0.78031342  0.08658992  0.82132089  1
  Al  Al3  1  0.88903516  0.20196356  0.60197606  1
  Al  Al4  1  0.45066037  0.08719103  0.31451489  1
  Al  Al5  1  0.56544384  0.20302033  0.06909589  1
  Al  Al6  1  0.09603565  0.10004947  0.88967678  1
  Al  Al7  1  0.22894696  0.20285322  0.59907917  1
  Al  Al8  1  0.78038761  0.09930789  0.32188745  1
  Al  Al9  1  0.44752880  0.09062743  0.83599508  1
  Al  Al10  1  0.56155090  0.19475316  0.56977730  1
  Al  Al11  1  0.11083296  0.43059075  0.31863477  1
  Al  Al12  1  0.22947483  0.53143947  0.07173440  1
  Al  Al13  1  0.77508957  0.43228761  0.81362376  1
  Al  Al14  1  0.89119307  0.54594677  0.56987606  1
  Al  Al15  1  0.44390455  0.42742273  0.32281866  1
  Al  Al16  1  0.56032442  0.53711139  0.07342536  1
  Al  Al17  1  0.11018060  0.42849078  0.82674470  1
  Al  Al18  1  0.22082227  0.53587256  0.57424710  1
  Al  Al19  1  0.78322863  0.42081718  0.32892976  1
  Al  Al20  1  0.88429756  0.53558845  0.06969435  1
  Al  Al21  1  0.44747029  0.42650344  0.82014265  1
  Al  Al22  1  0.55460247  0.54289692  0.56742553  1
  Al  Al23  1  0.09801471  0.77084339  0.38384245  1
  Al  Al24  1  0.21227604  0.88323698  0.14158569  1
  Al  Al25  1  0.77858330  0.76445356  0.83542657  1
  Al  Al26  1  0.45187731  0.76222163  0.31863487  1
  Al  Al27  1  0.10949874  0.76645806  0.89837059  1
  Al  Al28  1  0.21059374  0.87459523  0.64641895  1
  Al  Al29  1  0.77031439  0.76100115  0.31133374  1
  Al  Al30  1  0.88499126  0.87684454  0.10387519  1
  Al  Al31  1  0.44883896  0.76002897  0.83119037  1
  Al  Al32  1  0.56038343  0.87220708  0.57530823  1
  B  B33  1  0.88533463  0.20996372  0.11107710  1
  B  B34  1  0.88625586  0.87045328  0.61221641  1
  B  B35  1  0.55859150  0.86596656  0.06737740  1
  N  N36  1  0.22518652  0.20514620  0.35515495  1
  N  N37  1  0.07394870  0.11257170  0.08653462  1
  N  N38  1  0.88891480  0.20492876  0.81819454  1
  N  N39  1  0.79004478  0.05720025  0.62536888  1
  N  N40  1  0.55620351  0.20270379  0.38015206  1
  N  N41  1  0.46447782  0.06735964  0.12187681  1
  N  N42  1  0.22238187  0.20642101  0.88487946  1
  N  N43  1  0.12190572  0.08636366  0.58437679  1
  N  N44  1  0.88200841  0.20703729  0.39600419  1
  N  N45  1  0.78996650  0.11960348  0.12675119  1
  N  N46  1  0.55850198  0.20598983  0.88169108  1
  N  N47  1  0.45073748  0.08995788  0.64322969  1
  N  N48  1  0.22319965  0.53687631  0.38479388  1
  N  N49  1  0.10719269  0.43412185  0.12978579  1
  N  N50  1  0.88659577  0.53819867  0.88188656  1
  N  N51  1  0.77347179  0.44140151  0.62511582  1
  N  N52  1  0.55444630  0.54139317  0.37746292  1
  N  N53  1  0.44722763  0.42515400  0.13385716  1
  N  N54  1  0.22627329  0.53399502  0.87918815  1
  N  N55  1  0.11046950  0.42766252  0.63643981  1
  N  N56  1  0.88812537  0.54242433  0.37988251  1
  N  N57  1  0.79324600  0.39965873  0.13168007  1
  N  N58  1  0.55662860  0.53731013  0.88535006  1
  N  N59  1  0.44893101  0.42451149  0.62960973  1
  N  N60  1  0.21810235  0.87409054  0.33107267  1
  N  N61  1  0.12023646  0.75971877  0.08715809  1
  N  N62  1  0.87968764  0.87850795  0.89713003  1
  N  N63  1  0.79331167  0.77369036  0.63515774  1
  N  N64  1  0.55647495  0.87242215  0.38836325  1
  N  N65  1  0.45756214  0.77418639  0.12354999  1
  N  N66  1  0.21412970  0.87701972  0.83545604  1
  N  N67  1  0.07558164  0.77907884  0.58607388  1
  N  N68  1  0.88803427  0.87073629  0.31535193  1
  N  N69  1  0.74724076  0.76537688  0.12096192  1
  N  N70  1  0.55523253  0.87021955  0.90267934  1
  N  N71  1  0.44956938  0.75952383  0.63686602  1
