# generated using pymatgen
data_Al11BN12
_symmetry_space_group_name_H-M   'P 1'
_cell_length_a   9.27431741
_cell_length_b   9.27379684
_cell_length_c   9.96378301
_cell_angle_alpha   90.01223075
_cell_angle_beta   89.82674901
_cell_angle_gamma   59.91885877
_symmetry_Int_Tables_number   1
_chemical_formula_structural   Al11BN12
_chemical_formula_sum   'Al33 B3 N36'
_cell_volume   741.54224709
_cell_formula_units_Z   3
loop_
 _symmetry_equiv_pos_site_id
 _symmetry_equiv_pos_as_xyz
  1  'x, y, z'
loop_
 _atom_site_type_symbol
 _atom_site_label
 _atom_site_symmetry_multiplicity
 _atom_site_fract_x
 _atom_site_fract_y
 _atom_site_fract_z
 _atom_site_occupancy
  Al  Al0  1  0.11051566  0.09730765  0.39522547  1
  Al  Al1  1  0.21978173  0.20343435  0.14865294  1
  Al  Al2  1  0.77854958  0.09570107  0.89859841  1
  Al  Al3  1  0.88987602  0.19704373  0.64732244  1
  Al  Al4  1  0.44616324  0.09238806  0.39194158  1
  Al  Al5  1  0.55400038  0.20569403  0.14439281  1
  Al  Al6  1  0.10506493  0.09635279  0.90305017  1
  Al  Al7  1  0.22261705  0.20394096  0.64992424  1
  Al  Al8  1  0.78414792  0.09355915  0.33851633  1
  Al  Al9  1  0.44652307  0.08794516  0.90277059  1
  Al  Al10  1  0.56157221  0.19552494  0.64783179  1
  Al  Al11  1  0.11151854  0.42755757  0.40046647  1
  Al  Al12  1  0.22448003  0.53820757  0.15306916  1
  Al  Al13  1  0.78015523  0.42253305  0.90245526  1
  Al  Al14  1  0.88904362  0.54412859  0.64819329  1
  Al  Al15  1  0.44658499  0.42695740  0.40097381  1
  Al  Al16  1  0.56052003  0.53685003  0.14863535  1
  Al  Al17  1  0.10953594  0.42955893  0.89917376  1
  Al  Al18  1  0.21498739  0.54368665  0.64778444  1
  Al  Al19  1  0.77853168  0.42726985  0.39613421  1
  Al  Al20  1  0.88470675  0.53627996  0.15223785  1
  Al  Al21  1  0.44255497  0.42853398  0.89748216  1
  Al  Al22  1  0.55637073  0.53933438  0.65068412  1
  Al  Al23  1  0.10587783  0.76456988  0.39281158  1
  Al  Al24  1  0.22192220  0.87832724  0.15240993  1
  Al  Al25  1  0.76888335  0.76075374  0.90811762  1
  Al  Al26  1  0.44595981  0.76194928  0.39388942  1
  Al  Al27  1  0.11413781  0.75928711  0.90417241  1
  Al  Al28  1  0.21574574  0.87535527  0.64750925  1
  Al  Al29  1  0.77745850  0.76668659  0.38499228  1
  Al  Al30  1  0.88935786  0.87144899  0.11819071  1
  Al  Al31  1  0.44530913  0.76473832  0.90280618  1
  Al  Al32  1  0.56039923  0.87417643  0.64623120  1
  B  B33  1  0.89033005  0.21129463  0.15051460  1
  B  B34  1  0.88556072  0.87669156  0.60225936  1
  B  B35  1  0.55678550  0.86668355  0.15341251  1
  N  N36  1  0.22291103  0.20692948  0.33795124  1
  N  N37  1  0.08605054  0.10794900  0.09587029  1
  N  N38  1  0.88783052  0.20492256  0.83617134  1
  N  N39  1  0.79389419  0.06157476  0.60399712  1
  N  N40  1  0.55400402  0.20735674  0.33621597  1
  N  N41  1  0.45609494  0.06963528  0.09583630  1
  N  N42  1  0.22219726  0.20364094  0.84303960  1
  N  N43  1  0.10974158  0.09600209  0.58583835  1
  N  N44  1  0.89467570  0.21163020  0.31821221  1
  N  N45  1  0.78737946  0.11478411  0.10871110  1
  N  N46  1  0.55430568  0.20369752  0.84203391  1
  N  N47  1  0.44388267  0.09339700  0.58395265  1
  N  N48  1  0.22379810  0.53839560  0.34401600  1
  N  N49  1  0.11016321  0.43024669  0.09043381  1
  N  N50  1  0.88556606  0.54014786  0.84054281  1
  N  N51  1  0.77903953  0.42519265  0.58773977  1
  N  N52  1  0.55618160  0.53811273  0.33845399  1
  N  N53  1  0.44409625  0.42835597  0.08785353  1
  N  N54  1  0.22057241  0.54038914  0.83707250  1
  N  N55  1  0.11102454  0.42645676  0.59078424  1
  N  N56  1  0.88932552  0.53952720  0.34202787  1
  N  N57  1  0.79154110  0.40308279  0.09572047  1
  N  N58  1  0.55592115  0.54024446  0.84342213  1
  N  N59  1  0.44544586  0.42632344  0.59215659  1
  N  N60  1  0.22171626  0.87362662  0.34224472  1
  N  N61  1  0.12624346  0.75542598  0.09388951  1
  N  N62  1  0.88626706  0.86984908  0.89970393  1
  N  N63  1  0.79130827  0.77664907  0.58483380  1
  N  N64  1  0.55436512  0.87248432  0.32005078  1
  N  N65  1  0.45505078  0.77428657  0.09763459  1
  N  N66  1  0.22186411  0.87292111  0.83994491  1
  N  N67  1  0.08029504  0.77669763  0.58984742  1
  N  N68  1  0.89296672  0.86734546  0.32018584  1
  N  N69  1  0.74625908  0.76607896  0.10074280  1
  N  N70  1  0.55575370  0.87118128  0.83395578  1
  N  N71  1  0.44547395  0.76180872  0.58658257  1
