# generated using pymatgen
data_Al11BN12
_symmetry_space_group_name_H-M   'P 1'
_cell_length_a   9.28294636
_cell_length_b   9.27125186
_cell_length_c   10.18475256
_cell_angle_alpha   90.15818991
_cell_angle_beta   89.64079852
_cell_angle_gamma   59.88152817
_symmetry_Int_Tables_number   1
_chemical_formula_structural   Al11BN12
_chemical_formula_sum   'Al33 B3 N36'
_cell_volume   758.17065825
_cell_formula_units_Z   3
loop_
 _symmetry_equiv_pos_site_id
 _symmetry_equiv_pos_as_xyz
  1  'x, y, z'
loop_
 _atom_site_type_symbol
 _atom_site_label
 _atom_site_symmetry_multiplicity
 _atom_site_fract_x
 _atom_site_fract_y
 _atom_site_fract_z
 _atom_site_occupancy
  Al  Al0  1  0.11588394  0.09397952  0.39494320  1
  Al  Al1  1  0.21273508  0.20514307  0.13414349  1
  Al  Al2  1  0.78192571  0.08076461  0.81490628  1
  Al  Al3  1  0.89028818  0.20275406  0.60689883  1
  Al  Al4  1  0.45551835  0.08145612  0.31964649  1
  Al  Al5  1  0.56415950  0.20061934  0.06397559  1
  Al  Al6  1  0.10068848  0.09853393  0.88189967  1
  Al  Al7  1  0.21550512  0.21205576  0.64123349  1
  Al  Al8  1  0.78405531  0.10168754  0.31300036  1
  Al  Al9  1  0.45087105  0.09033447  0.81345327  1
  Al  Al10  1  0.56168239  0.19801693  0.56132594  1
  Al  Al11  1  0.11138947  0.42596521  0.38882413  1
  Al  Al12  1  0.21689023  0.54060085  0.14276410  1
  Al  Al13  1  0.77966465  0.42149003  0.88113296  1
  Al  Al14  1  0.89071819  0.54896897  0.64354838  1
  Al  Al15  1  0.44981820  0.42136032  0.32081592  1
  Al  Al16  1  0.56377882  0.53860851  0.13424731  1
  Al  Al17  1  0.10992202  0.42956775  0.89021493  1
  Al  Al18  1  0.21189051  0.54651594  0.63340552  1
  Al  Al19  1  0.77594781  0.43287082  0.39613891  1
  Al  Al20  1  0.88392314  0.53350509  0.13940469  1
  Al  Al21  1  0.44551646  0.41964363  0.81933916  1
  Al  Al22  1  0.55755104  0.54524477  0.64476881  1
  Al  Al23  1  0.10203971  0.76919463  0.38194724  1
  Al  Al24  1  0.21922751  0.88002003  0.14107492  1
  Al  Al25  1  0.76918466  0.76281530  0.89124846  1
  Al  Al26  1  0.44132077  0.75867963  0.39437224  1
  Al  Al27  1  0.11441907  0.75871356  0.89616675  1
  Al  Al28  1  0.21405333  0.87537301  0.64282199  1
  Al  Al29  1  0.78384527  0.76292122  0.37830604  1
  Al  Al30  1  0.88832609  0.87711056  0.10421084  1
  Al  Al31  1  0.44389930  0.76702878  0.88550909  1
  Al  Al32  1  0.55873157  0.87409987  0.59814893  1
  B  B33  1  0.88594623  0.20859407  0.09526256  1
  B  B34  1  0.88901605  0.87079356  0.59658087  1
  B  B35  1  0.55512342  0.86878936  0.09971555  1
  N  N36  1  0.22009985  0.20627166  0.32151802  1
  N  N37  1  0.07813745  0.11017782  0.07747234  1
  N  N38  1  0.88695534  0.20718094  0.81192084  1
  N  N39  1  0.79145015  0.05678292  0.62215444  1
  N  N40  1  0.56077555  0.20039732  0.37426112  1
  N  N41  1  0.46617048  0.05855411  0.12201258  1
  N  N42  1  0.21672584  0.20763311  0.83344145  1
  N  N43  1  0.12242597  0.09072774  0.58092367  1
  N  N44  1  0.88660485  0.20369752  0.38842333  1
  N  N45  1  0.79112141  0.11988013  0.12067729  1
  N  N46  1  0.55824735  0.20073920  0.87944615  1
  N  N47  1  0.44400832  0.10346516  0.62534697  1
  N  N48  1  0.21711209  0.54259527  0.33354136  1
  N  N49  1  0.10877275  0.43004055  0.07751921  1
  N  N50  1  0.88829344  0.54025524  0.83187738  1
  N  N51  1  0.77441860  0.44436849  0.58332003  1
  N  N52  1  0.56146792  0.54242018  0.32367906  1
  N  N53  1  0.44771718  0.41916325  0.12607147  1
  N  N54  1  0.21269650  0.54404360  0.82406759  1
  N  N55  1  0.10939641  0.42879744  0.57570463  1
  N  N56  1  0.88984597  0.53668275  0.32533082  1
  N  N57  1  0.79310326  0.39834242  0.07539657  1
  N  N58  1  0.55452849  0.54167090  0.83717546  1
  N  N59  1  0.45114589  0.42026494  0.62470554  1
  N  N60  1  0.22223020  0.87441815  0.32713793  1
  N  N61  1  0.12683628  0.75478866  0.08150529  1
  N  N62  1  0.88387891  0.87722532  0.89681402  1
  N  N63  1  0.80261804  0.77223410  0.57992804  1
  N  N64  1  0.55600472  0.87315707  0.38928833  1
  N  N65  1  0.45387142  0.77970742  0.08049794  1
  N  N66  1  0.21912071  0.87275288  0.83077866  1
  N  N67  1  0.08079417  0.77995702  0.57738963  1
  N  N68  1  0.88980229  0.86946564  0.30673148  1
  N  N69  1  0.74239797  0.76681763  0.08676394  1
  N  N70  1  0.56118931  0.86221619  0.81782251  1
  N  N71  1  0.43371129  0.75798145  0.58124446  1
