# generated using pymatgen
data_Al11BN12
_symmetry_space_group_name_H-M   'P 1'
_cell_length_a   9.25203482
_cell_length_b   9.29678086
_cell_length_c   10.16990252
_cell_angle_alpha   90.09871012
_cell_angle_beta   89.57859344
_cell_angle_gamma   59.82032972
_symmetry_Int_Tables_number   1
_chemical_formula_structural   Al11BN12
_chemical_formula_sum   'Al33 B3 N36'
_cell_volume   756.14983137
_cell_formula_units_Z   3
loop_
 _symmetry_equiv_pos_site_id
 _symmetry_equiv_pos_as_xyz
  1  'x, y, z'
loop_
 _atom_site_type_symbol
 _atom_site_label
 _atom_site_symmetry_multiplicity
 _atom_site_fract_x
 _atom_site_fract_y
 _atom_site_fract_z
 _atom_site_occupancy
  Al  Al0  1  0.11774862  0.09157917  0.39663913  1
  Al  Al1  1  0.21321512  0.20688090  0.13430081  1
  Al  Al2  1  0.78036134  0.08593283  0.82015003  1
  Al  Al3  1  0.88997568  0.20102122  0.60010460  1
  Al  Al4  1  0.45578248  0.08387384  0.31280935  1
  Al  Al5  1  0.56164432  0.20405709  0.06698630  1
  Al  Al6  1  0.09602607  0.10206940  0.88895194  1
  Al  Al7  1  0.21815377  0.20722804  0.64743691  1
  Al  Al8  1  0.78297558  0.09809040  0.31947585  1
  Al  Al9  1  0.45060714  0.08936225  0.83053469  1
  Al  Al10  1  0.55996030  0.19462882  0.56801409  1
  Al  Al11  1  0.12111717  0.42086844  0.38896060  1
  Al  Al12  1  0.21655912  0.54245892  0.14607175  1
  Al  Al13  1  0.77559443  0.43253865  0.81137926  1
  Al  Al14  1  0.88448897  0.54973873  0.56756811  1
  Al  Al15  1  0.45245728  0.42245714  0.32293165  1
  Al  Al16  1  0.55959930  0.53411733  0.07307394  1
  Al  Al17  1  0.11726484  0.42724340  0.89155314  1
  Al  Al18  1  0.21067309  0.54519635  0.63735961  1
  Al  Al19  1  0.78601897  0.41969847  0.32638222  1
  Al  Al20  1  0.87706763  0.53944405  0.06835259  1
  Al  Al21  1  0.45171537  0.42508133  0.81739913  1
  Al  Al22  1  0.55476268  0.54177190  0.56639729  1
  Al  Al23  1  0.09974476  0.76808957  0.38705548  1
  Al  Al24  1  0.21323045  0.88176250  0.13944259  1
  Al  Al25  1  0.77990846  0.76416679  0.83233342  1
  Al  Al26  1  0.45081117  0.76126818  0.32200380  1
  Al  Al27  1  0.11344761  0.75935910  0.89766662  1
  Al  Al28  1  0.21426158  0.87574685  0.64673916  1
  Al  Al29  1  0.77270063  0.76030200  0.30854816  1
  Al  Al30  1  0.88486877  0.87782178  0.09930064  1
  Al  Al31  1  0.44609261  0.76237122  0.84533179  1
  Al  Al32  1  0.55733760  0.87402224  0.57343382  1
  B  B33  1  0.88555064  0.20961389  0.10816202  1
  B  B34  1  0.88663146  0.87095523  0.61026153  1
  B  B35  1  0.55758194  0.87011553  0.06647354  1
  N  N36  1  0.21931946  0.20470122  0.32204734  1
  N  N37  1  0.07648723  0.11266615  0.08191569  1
  N  N38  1  0.88716081  0.20523298  0.81856319  1
  N  N39  1  0.79139816  0.05663897  0.62467062  1
  N  N40  1  0.55705982  0.20064218  0.37995649  1
  N  N41  1  0.46381594  0.06697728  0.12063605  1
  N  N42  1  0.21525339  0.20745703  0.83730566  1
  N  N43  1  0.12500182  0.08797312  0.58165619  1
  N  N44  1  0.88346952  0.20656647  0.39472792  1
  N  N45  1  0.79064169  0.11911576  0.12477323  1
  N  N46  1  0.55579911  0.20733922  0.88144977  1
  N  N47  1  0.45271437  0.08899933  0.63993457  1
  N  N48  1  0.21832219  0.54326856  0.33547410  1
  N  N49  1  0.11460300  0.42871251  0.08034402  1
  N  N50  1  0.88225766  0.54063999  0.87997171  1
  N  N51  1  0.77467245  0.43992940  0.62502995  1
  N  N52  1  0.55695715  0.53957041  0.37735894  1
  N  N53  1  0.45096808  0.42203807  0.13370101  1
  N  N54  1  0.21503295  0.54498096  0.82509221  1
  N  N55  1  0.11899203  0.42077908  0.57745077  1
  N  N56  1  0.88505279  0.54416700  0.37658751  1
  N  N57  1  0.79446691  0.39864724  0.13129039  1
  N  N58  1  0.55658869  0.53616196  0.88657539  1
  N  N59  1  0.45368992  0.42130150  0.62660519  1
  N  N60  1  0.21676691  0.87497153  0.32857112  1
  N  N61  1  0.12351072  0.75487988  0.08176129  1
  N  N62  1  0.88062916  0.87805902  0.89639047  1
  N  N63  1  0.79461958  0.77352014  0.63441020  1
  N  N64  1  0.55718826  0.87204062  0.38668757  1
  N  N65  1  0.45669537  0.77370758  0.11811339  1
  N  N66  1  0.21288318  0.87777056  0.83585157  1
  N  N67  1  0.07854481  0.77755596  0.58259736  1
  N  N68  1  0.89011380  0.87052192  0.31394296  1
  N  N69  1  0.74702937  0.76759379  0.12032843  1
  N  N70  1  0.55591296  0.87384729  0.90310928  1
  N  N71  1  0.44957676  0.75878684  0.63281937  1
