# generated using pymatgen
data_Al11BN12
_symmetry_space_group_name_H-M   'P 1'
_cell_length_a   9.27566598
_cell_length_b   9.26211654
_cell_length_c   10.15668672
_cell_angle_alpha   90.18369661
_cell_angle_beta   89.66063863
_cell_angle_gamma   59.89908001
_symmetry_Int_Tables_number   1
_chemical_formula_structural   Al11BN12
_chemical_formula_sum   'Al33 B3 N36'
_cell_volume   754.87804646
_cell_formula_units_Z   3
loop_
 _symmetry_equiv_pos_site_id
 _symmetry_equiv_pos_as_xyz
  1  'x, y, z'
loop_
 _atom_site_type_symbol
 _atom_site_label
 _atom_site_symmetry_multiplicity
 _atom_site_fract_x
 _atom_site_fract_y
 _atom_site_fract_z
 _atom_site_occupancy
  Al  Al0  1  0.11516264  0.09426585  0.40596085  1
  Al  Al1  1  0.21118395  0.20654244  0.14523996  1
  Al  Al2  1  0.78237414  0.08125435  0.82591132  1
  Al  Al3  1  0.89017657  0.20334607  0.61749484  1
  Al  Al4  1  0.45457662  0.08131863  0.33062486  1
  Al  Al5  1  0.56792366  0.19282604  0.07737520  1
  Al  Al6  1  0.10107082  0.09863760  0.89341077  1
  Al  Al7  1  0.21473393  0.21244166  0.65290455  1
  Al  Al8  1  0.78250889  0.10270408  0.32425708  1
  Al  Al9  1  0.45118669  0.09245533  0.82462378  1
  Al  Al10  1  0.56579023  0.18968827  0.57151768  1
  Al  Al11  1  0.11116513  0.42628500  0.39983131  1
  Al  Al12  1  0.22489230  0.53733827  0.15578257  1
  Al  Al13  1  0.78030080  0.42178941  0.89160349  1
  Al  Al14  1  0.89041498  0.54840148  0.65456065  1
  Al  Al15  1  0.44355988  0.43323069  0.39847357  1
  Al  Al16  1  0.56124892  0.53475716  0.14843475  1
  Al  Al17  1  0.11067587  0.43016723  0.90198744  1
  Al  Al18  1  0.21856108  0.54193996  0.64718025  1
  Al  Al19  1  0.77472564  0.43373244  0.40742014  1
  Al  Al20  1  0.88303568  0.53574501  0.15176439  1
  Al  Al21  1  0.44056677  0.43186130  0.90012871  1
  Al  Al22  1  0.55263671  0.54013627  0.65619342  1
  Al  Al23  1  0.10211955  0.76884849  0.39222805  1
  Al  Al24  1  0.21969072  0.87985372  0.15150157  1
  Al  Al25  1  0.76940229  0.76345854  0.90213837  1
  Al  Al26  1  0.44100124  0.75974336  0.40585466  1
  Al  Al27  1  0.11450220  0.75896357  0.90734625  1
  Al  Al28  1  0.21352974  0.87490854  0.65384834  1
  Al  Al29  1  0.78342044  0.76410654  0.39570210  1
  Al  Al30  1  0.88961694  0.87507201  0.11736965  1
  Al  Al31  1  0.44511685  0.76678409  0.89474659  1
  Al  Al32  1  0.55752554  0.87198143  0.61500490  1
  B  B33  1  0.88583727  0.20931203  0.10695059  1
  B  B34  1  0.89099297  0.86912913  0.60822148  1
  B  B35  1  0.55470736  0.86795267  0.11090068  1
  N  N36  1  0.21902063  0.20660347  0.33282034  1
  N  N37  1  0.07771453  0.11063232  0.08886965  1
  N  N38  1  0.88786777  0.20724204  0.82301480  1
  N  N39  1  0.79287870  0.05574752  0.63280287  1
  N  N40  1  0.56028898  0.19895412  0.38141267  1
  N  N41  1  0.46471686  0.05815980  0.13274820  1
  N  N42  1  0.21717660  0.20790151  0.84574149  1
  N  N43  1  0.12231170  0.09056816  0.59228469  1
  N  N44  1  0.88562589  0.20441488  0.40009795  1
  N  N45  1  0.79161893  0.11950139  0.13271489  1
  N  N46  1  0.56171650  0.19728550  0.88998363  1
  N  N47  1  0.44302673  0.10351113  0.63674399  1
  N  N48  1  0.22157111  0.54002059  0.34294537  1
  N  N49  1  0.10899310  0.43191382  0.09022249  1
  N  N50  1  0.88922034  0.54066852  0.84314603  1
  N  N51  1  0.77184018  0.44512428  0.59546548  1
  N  N52  1  0.55715540  0.53989161  0.33492511  1
  N  N53  1  0.44336219  0.42896339  0.09125162  1
  N  N54  1  0.22131056  0.54011943  0.83576561  1
  N  N55  1  0.10967982  0.42938826  0.58787620  1
  N  N56  1  0.88839397  0.53864084  0.33839070  1
  N  N57  1  0.79244068  0.39925151  0.08788290  1
  N  N58  1  0.55396749  0.53954360  0.84493823  1
  N  N59  1  0.44596847  0.42886145  0.58914620  1
  N  N60  1  0.22202314  0.87467250  0.33814504  1
  N  N61  1  0.12676934  0.75415581  0.09382037  1
  N  N62  1  0.88538852  0.87623478  0.90627244  1
  N  N63  1  0.80238960  0.77217796  0.59160952  1
  N  N64  1  0.55554625  0.87292731  0.40059115  1
  N  N65  1  0.45475574  0.77817633  0.09094302  1
  N  N66  1  0.21964663  0.87277162  0.84238377  1
  N  N67  1  0.08191538  0.77768168  0.58923740  1
  N  N68  1  0.88907900  0.86920505  0.31951047  1
  N  N69  1  0.74189965  0.76803057  0.09651953  1
  N  N70  1  0.56208004  0.86200962  0.82580608  1
  N  N71  1  0.43339386  0.75636125  0.59359694  1
