# generated using pymatgen
data_Al11BN12
_symmetry_space_group_name_H-M   'P 1'
_cell_length_a   9.28540173
_cell_length_b   9.32917545
_cell_length_c   10.17893838
_cell_angle_alpha   90.20047903
_cell_angle_beta   89.72273929
_cell_angle_gamma   59.88100781
_symmetry_Int_Tables_number   1
_chemical_formula_structural   Al11BN12
_chemical_formula_sum   'Al33 B3 N36'
_cell_volume   762.67551848
_cell_formula_units_Z   3
loop_
 _symmetry_equiv_pos_site_id
 _symmetry_equiv_pos_as_xyz
  1  'x, y, z'
loop_
 _atom_site_type_symbol
 _atom_site_label
 _atom_site_symmetry_multiplicity
 _atom_site_fract_x
 _atom_site_fract_y
 _atom_site_fract_z
 _atom_site_occupancy
  Al  Al0  1  0.11601534  0.09424140  0.39611691  1
  Al  Al1  1  0.21347079  0.20462145  0.13572561  1
  Al  Al2  1  0.78128415  0.08388913  0.81955592  1
  Al  Al3  1  0.88923084  0.20017629  0.59809271  1
  Al  Al4  1  0.45290115  0.08603663  0.32410979  1
  Al  Al5  1  0.56385950  0.19885788  0.06596530  1
  Al  Al6  1  0.10038378  0.09890595  0.88715254  1
  Al  Al7  1  0.21497812  0.21096499  0.64247234  1
  Al  Al8  1  0.78321405  0.09899870  0.31717842  1
  Al  Al9  1  0.44898053  0.09187518  0.81570403  1
  Al  Al10  1  0.56107384  0.19739859  0.56399702  1
  Al  Al11  1  0.11133519  0.42815491  0.38853749  1
  Al  Al12  1  0.21693985  0.54152237  0.14345899  1
  Al  Al13  1  0.77265688  0.42810411  0.81759387  1
  Al  Al14  1  0.89657926  0.54321244  0.63737656  1
  Al  Al15  1  0.45066996  0.42353227  0.31851526  1
  Al  Al16  1  0.56344036  0.52982003  0.07883092  1
  Al  Al17  1  0.11159289  0.42851399  0.89066579  1
  Al  Al18  1  0.21153831  0.54692599  0.63705999  1
  Al  Al19  1  0.78235099  0.41771420  0.32804355  1
  Al  Al20  1  0.88847049  0.53327589  0.13186647  1
  Al  Al21  1  0.44957566  0.42394133  0.82219660  1
  Al  Al22  1  0.55522101  0.53552587  0.57327129  1
  Al  Al23  1  0.10157695  0.76814364  0.38549854  1
  Al  Al24  1  0.21943262  0.87974493  0.14295972  1
  Al  Al25  1  0.78033766  0.76853993  0.82907353  1
  Al  Al26  1  0.43834499  0.76728367  0.39273820  1
  Al  Al27  1  0.11529798  0.75873187  0.89725235  1
  Al  Al28  1  0.21444018  0.87593713  0.64586994  1
  Al  Al29  1  0.76873086  0.76779506  0.31956123  1
  Al  Al30  1  0.88674067  0.87808757  0.09999012  1
  Al  Al31  1  0.44438821  0.76900682  0.88902045  1
  Al  Al32  1  0.55963836  0.87457752  0.59727769  1
  B  B33  1  0.88719886  0.20649983  0.10398497  1
  B  B34  1  0.88939815  0.87116963  0.60501611  1
  B  B35  1  0.55412295  0.87077656  0.10497740  1
  N  N36  1  0.21801787  0.20786334  0.32366684  1
  N  N37  1  0.07931133  0.10925894  0.08170328  1
  N  N38  1  0.88888521  0.20195320  0.82226618  1
  N  N39  1  0.79154445  0.05800385  0.62363452  1
  N  N40  1  0.55875746  0.20362908  0.37653861  1
  N  N41  1  0.46450848  0.06102302  0.12537594  1
  N  N42  1  0.21554990  0.20772073  0.83450937  1
  N  N43  1  0.12205381  0.09014272  0.58169193  1
  N  N44  1  0.88359710  0.20614644  0.39415106  1
  N  N45  1  0.79160398  0.11684848  0.12330623  1
  N  N46  1  0.55626323  0.20238710  0.88065849  1
  N  N47  1  0.44356022  0.10324516  0.62633504  1
  N  N48  1  0.21741101  0.54350590  0.33365234  1
  N  N49  1  0.11275126  0.42784188  0.07715778  1
  N  N50  1  0.89287865  0.53873728  0.83248120  1
  N  N51  1  0.77258048  0.43679605  0.62409022  1
  N  N52  1  0.55673416  0.53924049  0.36439679  1
  N  N53  1  0.44921139  0.41837862  0.12894006  1
  N  N54  1  0.21435948  0.54414741  0.82615897  1
  N  N55  1  0.11309367  0.42681201  0.57474354  1
  N  N56  1  0.89324077  0.53743315  0.32443132  1
  N  N57  1  0.79566983  0.39242199  0.12511605  1
  N  N58  1  0.55568575  0.53513764  0.88852572  1
  N  N59  1  0.45230930  0.42048838  0.62961487  1
  N  N60  1  0.21988448  0.87628531  0.32877919  1
  N  N61  1  0.12667259  0.75486915  0.08237081  1
  N  N62  1  0.88209244  0.87701521  0.89885366  1
  N  N63  1  0.80200853  0.77568997  0.62432752  1
  N  N64  1  0.55984800  0.87588381  0.39452615  1
  N  N65  1  0.45324227  0.78320523  0.08612666  1
  N  N66  1  0.21985288  0.87284272  0.83358532  1
  N  N67  1  0.08099032  0.77924240  0.58080395  1
  N  N68  1  0.89171997  0.87139403  0.31250473  1
  N  N69  1  0.73995611  0.77213585  0.11999529  1
  N  N70  1  0.55552525  0.86619783  0.82307104  1
  N  N71  1  0.43234996  0.76226697  0.58248824  1
