# generated using pymatgen
data_Al11BN12
_symmetry_space_group_name_H-M   'P 1'
_cell_length_a   9.28943673
_cell_length_b   9.27437634
_cell_length_c   10.12324883
_cell_angle_alpha   90.14670527
_cell_angle_beta   89.65937357
_cell_angle_gamma   59.89176477
_symmetry_Int_Tables_number   1
_chemical_formula_structural   Al11BN12
_chemical_formula_sum   'Al33 B3 N36'
_cell_volume   754.45502080
_cell_formula_units_Z   3
loop_
 _symmetry_equiv_pos_site_id
 _symmetry_equiv_pos_as_xyz
  1  'x, y, z'
loop_
 _atom_site_type_symbol
 _atom_site_label
 _atom_site_symmetry_multiplicity
 _atom_site_fract_x
 _atom_site_fract_y
 _atom_site_fract_z
 _atom_site_occupancy
  Al  Al0  1  0.11550562  0.09424705  0.39406833  1
  Al  Al1  1  0.21147022  0.20650945  0.13297149  1
  Al  Al2  1  0.78280658  0.08047353  0.81390280  1
  Al  Al3  1  0.89012339  0.20333436  0.60559175  1
  Al  Al4  1  0.45511545  0.08080077  0.31854083  1
  Al  Al5  1  0.56721227  0.19492545  0.06541552  1
  Al  Al6  1  0.10087484  0.09843055  0.88163763  1
  Al  Al7  1  0.21492831  0.21236958  0.64096413  1
  Al  Al8  1  0.78339932  0.10207429  0.31257494  1
  Al  Al9  1  0.45100243  0.09133972  0.81312095  1
  Al  Al10  1  0.56452098  0.19169101  0.56042949  1
  Al  Al11  1  0.11120500  0.42594914  0.38788033  1
  Al  Al12  1  0.22367354  0.53783716  0.14299069  1
  Al  Al13  1  0.78060152  0.42133146  0.87999629  1
  Al  Al14  1  0.89065500  0.54858469  0.64273922  1
  Al  Al15  1  0.44489701  0.43135428  0.37931484  1
  Al  Al16  1  0.56127046  0.53520852  0.13508901  1
  Al  Al17  1  0.11003210  0.43001098  0.89010888  1
  Al  Al18  1  0.21773036  0.54269643  0.63368359  1
  Al  Al19  1  0.77550794  0.43352197  0.39536893  1
  Al  Al20  1  0.88266618  0.53578703  0.13990556  1
  Al  Al21  1  0.44113120  0.42962763  0.87922804  1
  Al  Al22  1  0.55362284  0.54099296  0.64340496  1
  Al  Al23  1  0.10211142  0.76917586  0.38044582  1
  Al  Al24  1  0.21947578  0.87998522  0.13961199  1
  Al  Al25  1  0.76921723  0.76309989  0.89039462  1
  Al  Al26  1  0.44130836  0.75977253  0.39383530  1
  Al  Al27  1  0.11419400  0.75893085  0.89550408  1
  Al  Al28  1  0.21364852  0.87500355  0.64193191  1
  Al  Al29  1  0.78385114  0.76390942  0.38371859  1
  Al  Al30  1  0.88900781  0.87560715  0.10517282  1
  Al  Al31  1  0.44477627  0.76688479  0.88319418  1
  Al  Al32  1  0.55773077  0.87249738  0.60242926  1
  B  B33  1  0.88593163  0.20920144  0.09529335  1
  B  B34  1  0.89058544  0.86976394  0.59628979  1
  B  B35  1  0.55453266  0.86839417  0.09904225  1
  N  N36  1  0.21977058  0.20628651  0.32119081  1
  N  N37  1  0.07767205  0.11072252  0.07746598  1
  N  N38  1  0.88759274  0.20689809  0.81147069  1
  N  N39  1  0.79247775  0.05607044  0.62054074  1
  N  N40  1  0.56113736  0.19805881  0.36946498  1
  N  N41  1  0.46495605  0.05841324  0.12037182  1
  N  N42  1  0.21721684  0.20757214  0.83451663  1
  N  N43  1  0.12214529  0.09078992  0.58093005  1
  N  N44  1  0.88609360  0.20436670  0.38802821  1
  N  N45  1  0.79171368  0.11954157  0.12037695  1
  N  N46  1  0.56184121  0.19651063  0.87717405  1
  N  N47  1  0.44286364  0.10355042  0.62463445  1
  N  N48  1  0.22053912  0.54056363  0.33132055  1
  N  N49  1  0.10816607  0.43207504  0.07849381  1
  N  N50  1  0.88887767  0.54045963  0.83164960  1
  N  N51  1  0.77271992  0.44509882  0.58361142  1
  N  N52  1  0.55837246  0.54047072  0.32261859  1
  N  N53  1  0.44336841  0.42808173  0.08269653  1
  N  N54  1  0.21909138  0.54089080  0.82317284  1
  N  N55  1  0.10952895  0.42923916  0.57609178  1
  N  N56  1  0.88877357  0.53859878  0.32679167  1
  N  N57  1  0.79275261  0.39901666  0.07617314  1
  N  N58  1  0.55456901  0.53993424  0.83324710  1
  N  N59  1  0.44675855  0.42816459  0.58084636  1
  N  N60  1  0.22224899  0.87462149  0.32667472  1
  N  N61  1  0.12614361  0.75477756  0.08221593  1
  N  N62  1  0.88514328  0.87574412  0.89447663  1
  N  N63  1  0.80265969  0.77234749  0.58007769  1
  N  N64  1  0.55616031  0.87258252  0.38871787  1
  N  N65  1  0.45437658  0.77888897  0.07928345  1
  N  N66  1  0.21948930  0.87259641  0.83091322  1
  N  N67  1  0.08144792  0.77852231  0.57737552  1
  N  N68  1  0.88923774  0.86921471  0.30776177  1
  N  N69  1  0.74148534  0.76800594  0.08510095  1
  N  N70  1  0.56203062  0.86157085  0.81417673  1
  N  N71  1  0.43338750  0.75712367  0.58184117  1
