# generated using pymatgen
data_Al11BN12
_symmetry_space_group_name_H-M   'P 1'
_cell_length_a   9.28793619
_cell_length_b   9.27521720
_cell_length_c   10.01367407
_cell_angle_alpha   90.04929154
_cell_angle_beta   89.75491449
_cell_angle_gamma   59.90646441
_symmetry_Int_Tables_number   1
_chemical_formula_structural   Al11BN12
_chemical_formula_sum   'Al33 B3 N36'
_cell_volume   746.36402087
_cell_formula_units_Z   3
loop_
 _symmetry_equiv_pos_site_id
 _symmetry_equiv_pos_as_xyz
  1  'x, y, z'
loop_
 _atom_site_type_symbol
 _atom_site_label
 _atom_site_symmetry_multiplicity
 _atom_site_fract_x
 _atom_site_fract_y
 _atom_site_fract_z
 _atom_site_occupancy
  Al  Al0  1  0.11365218  0.08894945  0.39266669  1
  Al  Al1  1  0.22228801  0.20485582  0.07124387  1
  Al  Al2  1  0.77694194  0.08676319  0.80811285  1
  Al  Al3  1  0.88901341  0.20241350  0.59826969  1
  Al  Al4  1  0.44800549  0.08914326  0.31317974  1
  Al  Al5  1  0.56329977  0.20278061  0.06875437  1
  Al  Al6  1  0.09536439  0.09661021  0.88333228  1
  Al  Al7  1  0.23076256  0.20811359  0.57024211  1
  Al  Al8  1  0.78264330  0.09406430  0.33159574  1
  Al  Al9  1  0.44489869  0.09160434  0.82681485  1
  Al  Al10  1  0.55927145  0.19909254  0.56604034  1
  Al  Al11  1  0.11262414  0.42799967  0.31753019  1
  Al  Al12  1  0.22099762  0.53945367  0.06646673  1
  Al  Al13  1  0.77590133  0.43093123  0.81070819  1
  Al  Al14  1  0.89027329  0.54643976  0.56530170  1
  Al  Al15  1  0.44416461  0.42837246  0.31842020  1
  Al  Al16  1  0.56231028  0.53390574  0.06877618  1
  Al  Al17  1  0.11014353  0.42435443  0.81842251  1
  Al  Al18  1  0.21773897  0.54470408  0.56925223  1
  Al  Al19  1  0.78227172  0.42169574  0.32479521  1
  Al  Al20  1  0.88578843  0.53643315  0.06923952  1
  Al  Al21  1  0.44639363  0.42624555  0.81788483  1
  Al  Al22  1  0.55440455  0.54411897  0.56529458  1
  Al  Al23  1  0.10625881  0.76029309  0.32566436  1
  Al  Al24  1  0.21457157  0.88187445  0.13002216  1
  Al  Al25  1  0.77721927  0.76348512  0.82105346  1
  Al  Al26  1  0.45433797  0.76239048  0.31303743  1
  Al  Al27  1  0.10005608  0.75871361  0.81861719  1
  Al  Al28  1  0.21830426  0.87719941  0.64151629  1
  Al  Al29  1  0.77459903  0.76566208  0.31955875  1
  Al  Al30  1  0.88395873  0.87849042  0.06980055  1
  Al  Al31  1  0.45078387  0.75928662  0.83163742  1
  Al  Al32  1  0.56045750  0.87372106  0.57117681  1
  B  B33  1  0.88730805  0.20495738  0.11115461  1
  B  B34  1  0.88487377  0.87328356  0.56708526  1
  B  B35  1  0.55823691  0.87059978  0.06506808  1
  N  N36  1  0.22822419  0.20764796  0.37442792  1
  N  N37  1  0.07344538  0.11122125  0.08305306  1
  N  N38  1  0.88694824  0.20360373  0.81654916  1
  N  N39  1  0.78602277  0.06355081  0.61659907  1
  N  N40  1  0.55474542  0.20435866  0.37474766  1
  N  N41  1  0.45800683  0.06940867  0.12060538  1
  N  N42  1  0.22194273  0.20440914  0.88140110  1
  N  N43  1  0.12136495  0.08901270  0.58294961  1
  N  N44  1  0.88384182  0.20853372  0.39013270  1
  N  N45  1  0.79292611  0.10818570  0.13187834  1
  N  N46  1  0.55835772  0.20379582  0.87925768  1
  N  N47  1  0.44726729  0.09363847  0.63580078  1
  N  N48  1  0.22315578  0.53879145  0.38024995  1
  N  N49  1  0.11047221  0.42799363  0.12816250  1
  N  N50  1  0.88690379  0.53890690  0.87924201  1
  N  N51  1  0.77398655  0.44091521  0.62134871  1
  N  N52  1  0.55461674  0.54211416  0.37360755  1
  N  N53  1  0.44331702  0.42830239  0.12797980  1
  N  N54  1  0.22174241  0.53696478  0.87650998  1
  N  N55  1  0.11121194  0.42882601  0.62889455  1
  N  N56  1  0.88908153  0.54126094  0.37355318  1
  N  N57  1  0.79331444  0.39627872  0.12746036  1
  N  N58  1  0.55819008  0.53505897  0.88124854  1
  N  N59  1  0.44659479  0.42770245  0.62647807  1
  N  N60  1  0.22291864  0.87629997  0.32422239  1
  N  N61  1  0.10292977  0.75813939  0.13057988  1
  N  N62  1  0.88457399  0.87455705  0.88401238  1
  N  N63  1  0.78980371  0.77375274  0.62501440  1
  N  N64  1  0.55596552  0.87367054  0.38351660  1
  N  N65  1  0.46249955  0.77094262  0.11729881  1
  N  N66  1  0.21813482  0.87178078  0.83999924  1
  N  N67  1  0.08354178  0.77340945  0.62252883  1
  N  N68  1  0.88794597  0.87062924  0.39713640  1
  N  N69  1  0.75370345  0.77433799  0.12446356  1
  N  N70  1  0.55840121  0.87147677  0.90003534  1
  N  N71  1  0.45304877  0.76039885  0.63585585  1
