# generated using pymatgen
data_Al11BN12
_symmetry_space_group_name_H-M   'P 1'
_cell_length_a   9.30086914
_cell_length_b   9.32019446
_cell_length_c   10.18248179
_cell_angle_alpha   90.13829823
_cell_angle_beta   89.69441729
_cell_angle_gamma   59.86612056
_symmetry_Int_Tables_number   1
_chemical_formula_structural   Al11BN12
_chemical_formula_sum   'Al33 B3 N36'
_cell_volume   763.36388387
_cell_formula_units_Z   3
loop_
 _symmetry_equiv_pos_site_id
 _symmetry_equiv_pos_as_xyz
  1  'x, y, z'
loop_
 _atom_site_type_symbol
 _atom_site_label
 _atom_site_symmetry_multiplicity
 _atom_site_fract_x
 _atom_site_fract_y
 _atom_site_fract_z
 _atom_site_occupancy
  Al  Al0  1  0.11737352  0.09280216  0.39537514  1
  Al  Al1  1  0.21338939  0.20414407  0.13538095  1
  Al  Al2  1  0.78117008  0.08352076  0.81854172  1
  Al  Al3  1  0.89010083  0.19883308  0.59841579  1
  Al  Al4  1  0.45348932  0.08411163  0.32332513  1
  Al  Al5  1  0.56437793  0.20018793  0.06565616  1
  Al  Al6  1  0.10180604  0.09776949  0.88695835  1
  Al  Al7  1  0.21551439  0.21076300  0.64205478  1
  Al  Al8  1  0.78350357  0.09960929  0.31481495  1
  Al  Al9  1  0.44909792  0.09106828  0.81552679  1
  Al  Al10  1  0.56041723  0.19848203  0.56297476  1
  Al  Al11  1  0.11281282  0.42713931  0.38825251  1
  Al  Al12  1  0.21680900  0.54147663  0.14254292  1
  Al  Al13  1  0.78055961  0.42362143  0.83041766  1
  Al  Al14  1  0.89709367  0.54285886  0.63582415  1
  Al  Al15  1  0.44883843  0.42234067  0.32051329  1
  Al  Al16  1  0.56395761  0.53779232  0.13160282  1
  Al  Al17  1  0.11117486  0.42852100  0.89105339  1
  Al  Al18  1  0.21081680  0.54697930  0.63548809  1
  Al  Al19  1  0.77996959  0.42620502  0.36695569  1
  Al  Al20  1  0.88791746  0.52906482  0.13375023  1
  Al  Al21  1  0.44477725  0.42007370  0.82190402  1
  Al  Al22  1  0.54965252  0.54743055  0.63989859  1
  Al  Al23  1  0.10115593  0.76881082  0.38520186  1
  Al  Al24  1  0.21885854  0.87982656  0.14247648  1
  Al  Al25  1  0.78001081  0.76893426  0.82778620  1
  Al  Al26  1  0.44110562  0.76044651  0.39533893  1
  Al  Al27  1  0.11492654  0.75910910  0.89717654  1
  Al  Al28  1  0.21352109  0.87664306  0.64546494  1
  Al  Al29  1  0.76873787  0.76778205  0.31882427  1
  Al  Al30  1  0.88640955  0.87814886  0.09983622  1
  Al  Al31  1  0.44558522  0.76635380  0.88933569  1
  Al  Al32  1  0.56004105  0.87496095  0.59488925  1
  B  B33  1  0.88518973  0.20994955  0.10131485  1
  B  B34  1  0.88876586  0.87177975  0.60459977  1
  B  B35  1  0.55515897  0.86934293  0.10319190  1
  N  N36  1  0.21902265  0.20708166  0.32329835  1
  N  N37  1  0.07976447  0.10871909  0.08073506  1
  N  N38  1  0.89130825  0.20014509  0.81691207  1
  N  N39  1  0.79065192  0.05850907  0.62332057  1
  N  N40  1  0.55951346  0.20243142  0.37561430  1
  N  N41  1  0.46465961  0.05940365  0.12479077  1
  N  N42  1  0.21567895  0.20789838  0.83406744  1
  N  N43  1  0.12275555  0.09005152  0.58100357  1
  N  N44  1  0.88558345  0.20265225  0.39316861  1
  N  N45  1  0.79117125  0.11749655  0.12264089  1
  N  N46  1  0.55703702  0.20124514  0.88054085  1
  N  N47  1  0.44395482  0.10281173  0.62617677  1
  N  N48  1  0.21721488  0.54376488  0.33347810  1
  N  N49  1  0.11201215  0.42809861  0.07744406  1
  N  N50  1  0.89390294  0.53811833  0.82927315  1
  N  N51  1  0.77495443  0.43788442  0.60375751  1
  N  N52  1  0.55672359  0.54599416  0.32496695  1
  N  N53  1  0.44742860  0.41923036  0.12563216  1
  N  N54  1  0.21212483  0.54470352  0.82572637  1
  N  N55  1  0.11330668  0.42650595  0.57401212  1
  N  N56  1  0.89394281  0.53599000  0.32546496  1
  N  N57  1  0.79610086  0.39338845  0.10500631  1
  N  N58  1  0.55130085  0.54305997  0.83798183  1
  N  N59  1  0.44836120  0.42004542  0.62555825  1
  N  N60  1  0.22201175  0.87445356  0.32885469  1
  N  N61  1  0.12568730  0.75543092  0.08215525  1
  N  N62  1  0.88192618  0.87683222  0.89848012  1
  N  N63  1  0.80177060  0.77592469  0.62413745  1
  N  N64  1  0.56014092  0.87369963  0.39489000  1
  N  N65  1  0.45466407  0.77940412  0.08267646  1
  N  N66  1  0.22002144  0.87259546  0.83322270  1
  N  N67  1  0.08010221  0.77998529  0.58039894  1
  N  N68  1  0.89168649  0.87122634  0.31214004  1
  N  N69  1  0.74013432  0.77047254  0.12069355  1
  N  N70  1  0.55575132  0.86620991  0.82505490  1
  N  N71  1  0.43267460  0.76034723  0.58134666  1
