# generated using pymatgen
data_Al11BN12
_symmetry_space_group_name_H-M   'P 1'
_cell_length_a   9.26817557
_cell_length_b   9.32425291
_cell_length_c   10.21207458
_cell_angle_alpha   90.29014494
_cell_angle_beta   89.68351066
_cell_angle_gamma   59.85005608
_symmetry_Int_Tables_number   1
_chemical_formula_structural   Al11BN12
_chemical_formula_sum   'Al33 B3 N36'
_cell_volume   763.08033465
_cell_formula_units_Z   3
loop_
 _symmetry_equiv_pos_site_id
 _symmetry_equiv_pos_as_xyz
  1  'x, y, z'
loop_
 _atom_site_type_symbol
 _atom_site_label
 _atom_site_symmetry_multiplicity
 _atom_site_fract_x
 _atom_site_fract_y
 _atom_site_fract_z
 _atom_site_occupancy
  Al  Al0  1  0.11578587  0.09393210  0.39668647  1
  Al  Al1  1  0.21318879  0.20463287  0.13668631  1
  Al  Al2  1  0.78008564  0.08456482  0.81999465  1
  Al  Al3  1  0.88914312  0.20020894  0.59969706  1
  Al  Al4  1  0.45325949  0.08498397  0.32424535  1
  Al  Al5  1  0.56280009  0.20022842  0.06683060  1
  Al  Al6  1  0.09812045  0.10073405  0.88740770  1
  Al  Al7  1  0.21425016  0.21119954  0.64270488  1
  Al  Al8  1  0.78356623  0.09821534  0.31769051  1
  Al  Al9  1  0.44790413  0.09357095  0.81613712  1
  Al  Al10  1  0.56136380  0.19606133  0.56367494  1
  Al  Al11  1  0.11121046  0.42788183  0.38750350  1
  Al  Al12  1  0.21845020  0.54172459  0.14491548  1
  Al  Al13  1  0.77132583  0.43000621  0.81505951  1
  Al  Al14  1  0.89592030  0.54381533  0.63450808  1
  Al  Al15  1  0.45220316  0.42319183  0.32058852  1
  Al  Al16  1  0.56404263  0.52823352  0.07144074  1
  Al  Al17  1  0.11228319  0.42878417  0.89128501  1
  Al  Al18  1  0.21226981  0.54645058  0.63576321  1
  Al  Al19  1  0.78228103  0.41748149  0.32613271  1
  Al  Al20  1  0.88789750  0.53375797  0.12735457  1
  Al  Al21  1  0.44995741  0.42421394  0.81800845  1
  Al  Al22  1  0.55750635  0.53256413  0.56595393  1
  Al  Al23  1  0.10191719  0.76800416  0.38591222  1
  Al  Al24  1  0.22033200  0.87914412  0.14268026  1
  Al  Al25  1  0.78068967  0.76816988  0.83012461  1
  Al  Al26  1  0.43823733  0.76821239  0.39532342  1
  Al  Al27  1  0.11534539  0.75860208  0.89706517  1
  Al  Al28  1  0.21496726  0.87545500  0.64641554  1
  Al  Al29  1  0.76920098  0.76706837  0.31788085  1
  Al  Al30  1  0.88699321  0.87825138  0.09973554  1
  Al  Al31  1  0.44312824  0.77068844  0.88728058  1
  Al  Al32  1  0.55921657  0.87390229  0.60078518  1
  B  B33  1  0.88615617  0.20660432  0.10513240  1
  B  B34  1  0.88999665  0.87069204  0.60595110  1
  B  B35  1  0.55408730  0.87076835  0.10448265  1
  N  N36  1  0.21802815  0.20707403  0.32388110  1
  N  N37  1  0.07825857  0.11001354  0.08196628  1
  N  N38  1  0.88684087  0.20360316  0.82156765  1
  N  N39  1  0.79160361  0.05749821  0.62433399  1
  N  N40  1  0.55888123  0.20255830  0.37688198  1
  N  N41  1  0.46394059  0.06116219  0.12555147  1
  N  N42  1  0.21408599  0.20856463  0.83410465  1
  N  N43  1  0.12212864  0.08953019  0.58170383  1
  N  N44  1  0.88327838  0.20639461  0.39411936  1
  N  N45  1  0.79102447  0.11673348  0.12403267  1
  N  N46  1  0.55454847  0.20470780  0.88168182  1
  N  N47  1  0.44330283  0.10329344  0.62732473  1
  N  N48  1  0.21829125  0.54316153  0.33427648  1
  N  N49  1  0.11531060  0.42713156  0.07758615  1
  N  N50  1  0.89093415  0.53938231  0.83865338  1
  N  N51  1  0.77274101  0.43740860  0.62480261  1
  N  N52  1  0.55866463  0.53575546  0.37588599  1
  N  N53  1  0.45175209  0.41980368  0.13183256  1
  N  N54  1  0.21418969  0.54443764  0.82435434  1
  N  N55  1  0.11321518  0.42653283  0.57369614  1
  N  N56  1  0.89324256  0.53706060  0.32264883  1
  N  N57  1  0.79335718  0.39345043  0.12595065  1
  N  N58  1  0.55404358  0.53625710  0.88587510  1
  N  N59  1  0.45377252  0.41952386  0.62790225  1
  N  N60  1  0.22100522  0.87546892  0.32837931  1
  N  N61  1  0.12744508  0.75424113  0.08177011  1
  N  N62  1  0.88162604  0.87796512  0.89930087  1
  N  N63  1  0.80251547  0.77521857  0.62631096  1
  N  N64  1  0.56090947  0.87517597  0.39493866  1
  N  N65  1  0.45425109  0.78212290  0.08465070  1
  N  N66  1  0.21819351  0.87442997  0.83362595  1
  N  N67  1  0.08148554  0.77888582  0.58052460  1
  N  N68  1  0.89261509  0.87062044  0.31208800  1
  N  N69  1  0.74015815  0.77292852  0.11942406  1
  N  N70  1  0.55510918  0.86753243  0.82251909  1
  N  N71  1  0.43329927  0.76106531  0.58410138  1
