# generated using pymatgen
data_Al11BN12
_symmetry_space_group_name_H-M   'P 1'
_cell_length_a   9.29048167
_cell_length_b   9.31616292
_cell_length_c   10.07874300
_cell_angle_alpha   90.00747273
_cell_angle_beta   89.46133197
_cell_angle_gamma   59.88779506
_symmetry_Int_Tables_number   1
_chemical_formula_structural   Al11BN12
_chemical_formula_sum   'Al33 B3 N36'
_cell_volume   754.56064350
_cell_formula_units_Z   3
loop_
 _symmetry_equiv_pos_site_id
 _symmetry_equiv_pos_as_xyz
  1  'x, y, z'
loop_
 _atom_site_type_symbol
 _atom_site_label
 _atom_site_symmetry_multiplicity
 _atom_site_fract_x
 _atom_site_fract_y
 _atom_site_fract_z
 _atom_site_occupancy
  Al  Al0  1  0.11765508  0.09140438  0.39637581  1
  Al  Al1  1  0.21809465  0.20112591  0.12950082  1
  Al  Al2  1  0.78053775  0.08678641  0.82146857  1
  Al  Al3  1  0.88968025  0.20190527  0.60105264  1
  Al  Al4  1  0.45562539  0.08370920  0.31516497  1
  Al  Al5  1  0.56373907  0.20401856  0.06869677  1
  Al  Al6  1  0.09655825  0.10192082  0.89015435  1
  Al  Al7  1  0.22422246  0.19689304  0.64704249  1
  Al  Al8  1  0.78326764  0.09753426  0.32090559  1
  Al  Al9  1  0.45092092  0.08945824  0.83637479  1
  Al  Al10  1  0.56210329  0.19284985  0.56915009  1
  Al  Al11  1  0.10798600  0.43072103  0.32540163  1
  Al  Al12  1  0.22496134  0.54009329  0.11354313  1
  Al  Al13  1  0.77461569  0.43227445  0.81300004  1
  Al  Al14  1  0.89048304  0.54576699  0.56829312  1
  Al  Al15  1  0.44854479  0.42477488  0.32759971  1
  Al  Al16  1  0.56062345  0.53744336  0.07254598  1
  Al  Al17  1  0.10464460  0.43523758  0.82319433  1
  Al  Al18  1  0.21904357  0.54043528  0.60193175  1
  Al  Al19  1  0.78337794  0.41999592  0.32788780  1
  Al  Al20  1  0.88372647  0.53627176  0.06838070  1
  Al  Al21  1  0.44893546  0.42671479  0.81798369  1
  Al  Al22  1  0.55605252  0.54265142  0.56703198  1
  Al  Al23  1  0.09894059  0.76952261  0.38671735  1
  Al  Al24  1  0.21265932  0.88351867  0.14017435  1
  Al  Al25  1  0.77808839  0.76554786  0.83467840  1
  Al  Al26  1  0.45155648  0.76177811  0.31805707  1
  Al  Al27  1  0.11180389  0.76237045  0.89623922  1
  Al  Al28  1  0.21031343  0.87565861  0.64704141  1
  Al  Al29  1  0.77091995  0.76081152  0.31004838  1
  Al  Al30  1  0.88343005  0.87807967  0.10103057  1
  Al  Al31  1  0.44773555  0.76074649  0.83139771  1
  Al  Al32  1  0.56022962  0.87221801  0.57503447  1
  B  B33  1  0.88464115  0.21087807  0.10900415  1
  B  B34  1  0.88594460  0.87103523  0.61179464  1
  B  B35  1  0.55851845  0.86653418  0.06640826  1
  N  N36  1  0.22284111  0.19913542  0.32462844  1
  N  N37  1  0.07515162  0.11353792  0.08366513  1
  N  N38  1  0.88817934  0.20535959  0.81925988  1
  N  N39  1  0.79126443  0.05683740  0.62534909  1
  N  N40  1  0.55852728  0.19979856  0.37961842  1
  N  N41  1  0.46559539  0.06656541  0.12004325  1
  N  N42  1  0.21827746  0.20485166  0.84596041  1
  N  N43  1  0.12416677  0.08659430  0.58234142  1
  N  N44  1  0.88376313  0.20630797  0.39510726  1
  N  N45  1  0.79044107  0.11993321  0.12550925  1
  N  N46  1  0.55748026  0.20761806  0.88207884  1
  N  N47  1  0.45484398  0.08713433  0.64171212  1
  N  N48  1  0.22305822  0.53845893  0.37142409  1
  N  N49  1  0.10430593  0.43550786  0.12836836  1
  N  N50  1  0.88429377  0.53978235  0.88133876  1
  N  N51  1  0.77401929  0.44096146  0.62492379  1
  N  N52  1  0.55594669  0.54156615  0.37743792  1
  N  N53  1  0.45086918  0.42422180  0.13578534  1
  N  N54  1  0.22100379  0.54459555  0.84218195  1
  N  N55  1  0.10759270  0.42544865  0.62765765  1
  N  N56  1  0.88544747  0.54296893  0.37894559  1
  N  N57  1  0.79363132  0.39955768  0.13056674  1
  N  N58  1  0.55620624  0.53786093  0.88518238  1
  N  N59  1  0.45555975  0.42042765  0.62583071  1
  N  N60  1  0.21754028  0.87398624  0.32997808  1
  N  N61  1  0.12050908  0.76018952  0.08413764  1
  N  N62  1  0.87971690  0.87869910  0.89746703  1
  N  N63  1  0.79426791  0.77333807  0.63450018  1
  N  N64  1  0.55704734  0.87087953  0.38788002  1
  N  N65  1  0.45744797  0.77420466  0.12303701  1
  N  N66  1  0.21312347  0.87871413  0.83644359  1
  N  N67  1  0.07574913  0.78035498  0.58464633  1
  N  N68  1  0.88968767  0.86947021  0.31411727  1
  N  N69  1  0.74708194  0.76561333  0.12016751  1
  N  N70  1  0.55484165  0.87044861  0.90273830  1
  N  N71  1  0.44947234  0.75907877  0.63695006  1
