# generated using pymatgen
data_Al11BN12
_symmetry_space_group_name_H-M   'P 1'
_cell_length_a   9.27758079
_cell_length_b   9.28834648
_cell_length_c   10.00523302
_cell_angle_alpha   89.94958713
_cell_angle_beta   89.65738224
_cell_angle_gamma   59.89192491
_symmetry_Int_Tables_number   1
_chemical_formula_structural   Al11BN12
_chemical_formula_sum   'Al33 B3 N36'
_cell_volume   745.84387830
_cell_formula_units_Z   3
loop_
 _symmetry_equiv_pos_site_id
 _symmetry_equiv_pos_as_xyz
  1  'x, y, z'
loop_
 _atom_site_type_symbol
 _atom_site_label
 _atom_site_symmetry_multiplicity
 _atom_site_fract_x
 _atom_site_fract_y
 _atom_site_fract_z
 _atom_site_occupancy
  Al  Al0  1  0.11356672  0.09393109  0.40714825  1
  Al  Al1  1  0.21698286  0.20403350  0.14758266  1
  Al  Al2  1  0.78396634  0.08073477  0.83165324  1
  Al  Al3  1  0.89172750  0.20190728  0.61899530  1
  Al  Al4  1  0.44404926  0.09145120  0.38714663  1
  Al  Al5  1  0.55712001  0.20501199  0.13850503  1
  Al  Al6  1  0.10333788  0.09739888  0.89238796  1
  Al  Al7  1  0.22694770  0.20398039  0.65341791  1
  Al  Al8  1  0.78656471  0.09959159  0.32822732  1
  Al  Al9  1  0.44834081  0.08767845  0.90405413  1
  Al  Al10  1  0.55771628  0.19786433  0.63069898  1
  Al  Al11  1  0.11026933  0.42642911  0.40067398  1
  Al  Al12  1  0.22367192  0.53828847  0.15471638  1
  Al  Al13  1  0.78057179  0.42173701  0.89131575  1
  Al  Al14  1  0.89084548  0.54757443  0.65207309  1
  Al  Al15  1  0.44614032  0.42822241  0.39723022  1
  Al  Al16  1  0.56138049  0.53618319  0.14787483  1
  Al  Al17  1  0.11141167  0.42981631  0.90047956  1
  Al  Al18  1  0.21642528  0.54308706  0.64785789  1
  Al  Al19  1  0.77516592  0.43196726  0.40774408  1
  Al  Al20  1  0.88552527  0.53378939  0.15119428  1
  Al  Al21  1  0.44396999  0.42766505  0.89892195  1
  Al  Al22  1  0.55394223  0.54339423  0.65365079  1
  Al  Al23  1  0.10269834  0.76660611  0.39259645  1
  Al  Al24  1  0.21944415  0.87918729  0.15214764  1
  Al  Al25  1  0.76904418  0.76205697  0.91070396  1
  Al  Al26  1  0.44452149  0.76173961  0.39384237  1
  Al  Al27  1  0.11456977  0.75897017  0.90666488  1
  Al  Al28  1  0.21808344  0.87316970  0.65117575  1
  Al  Al29  1  0.77739655  0.76572100  0.38329616  1
  Al  Al30  1  0.88848451  0.87531510  0.11700447  1
  Al  Al31  1  0.44559301  0.76547759  0.90437104  1
  Al  Al32  1  0.56022163  0.87321309  0.64566506  1
  B  B33  1  0.88755355  0.20829897  0.10634227  1
  B  B34  1  0.88707970  0.87066336  0.60490500  1
  B  B35  1  0.55634330  0.86569820  0.15445020  1
  N  N36  1  0.21843967  0.20579268  0.33621539  1
  N  N37  1  0.08002539  0.11048969  0.08961703  1
  N  N38  1  0.88862388  0.20657775  0.82436723  1
  N  N39  1  0.79414475  0.05345120  0.63145737  1
  N  N40  1  0.55378426  0.20622635  0.33878569  1
  N  N41  1  0.45589162  0.06842688  0.09733832  1
  N  N42  1  0.22439919  0.20449890  0.84515943  1
  N  N43  1  0.12379235  0.08997554  0.59581295  1
  N  N44  1  0.88508597  0.20399808  0.40372540  1
  N  N45  1  0.79450592  0.11859260  0.13026155  1
  N  N46  1  0.55293948  0.20480866  0.84630359  1
  N  N47  1  0.44437842  0.09092224  0.57965750  1
  N  N48  1  0.22153077  0.53935343  0.34452170  1
  N  N49  1  0.11092706  0.42979100  0.09086559  1
  N  N50  1  0.88797143  0.54257922  0.84316310  1
  N  N51  1  0.77350706  0.44273833  0.59730897  1
  N  N52  1  0.55794498  0.53803584  0.33683264  1
  N  N53  1  0.44376711  0.42952578  0.08943639  1
  N  N54  1  0.22144071  0.54119536  0.83717979  1
  N  N55  1  0.11269029  0.42578204  0.59120198  1
  N  N56  1  0.88835922  0.53704986  0.34041994  1
  N  N57  1  0.79362336  0.39853133  0.08867060  1
  N  N58  1  0.55340676  0.54250791  0.84484126  1
  N  N59  1  0.44639586  0.42860661  0.58902779  1
  N  N60  1  0.21977809  0.87502166  0.34134086  1
  N  N61  1  0.12555639  0.75499865  0.09516064  1
  N  N62  1  0.88492947  0.87460936  0.90623474  1
  N  N63  1  0.79252900  0.77519046  0.58430363  1
  N  N64  1  0.55373225  0.87071294  0.31961503  1
  N  N65  1  0.45409428  0.77473814  0.09806565  1
  N  N66  1  0.22292652  0.87079235  0.84210521  1
  N  N67  1  0.08018158  0.77657434  0.59059439  1
  N  N68  1  0.88973987  0.86982382  0.32197682  1
  N  N69  1  0.74622612  0.76499071  0.10171308  1
  N  N70  1  0.55683373  0.87110339  0.83371120  1
  N  N71  1  0.44396647  0.76223998  0.58618185  1
