# generated using pymatgen
data_Al11BN12
_symmetry_space_group_name_H-M   'P 1'
_cell_length_a   9.28900455
_cell_length_b   9.28064685
_cell_length_c   10.08073333
_cell_angle_alpha   90.01332344
_cell_angle_beta   89.75991946
_cell_angle_gamma   59.81865830
_symmetry_Int_Tables_number   1
_chemical_formula_structural   Al11BN12
_chemical_formula_sum   'Al33 B3 N36'
_cell_volume   751.22196895
_cell_formula_units_Z   3
loop_
 _symmetry_equiv_pos_site_id
 _symmetry_equiv_pos_as_xyz
  1  'x, y, z'
loop_
 _atom_site_type_symbol
 _atom_site_label
 _atom_site_symmetry_multiplicity
 _atom_site_fract_x
 _atom_site_fract_y
 _atom_site_fract_z
 _atom_site_occupancy
  Al  Al0  1  0.11222690  0.08793353  0.39657212  1
  Al  Al1  1  0.22354719  0.20594329  0.07561553  1
  Al  Al2  1  0.77734218  0.08847118  0.82226674  1
  Al  Al3  1  0.88950601  0.20130689  0.60349231  1
  Al  Al4  1  0.44876753  0.08886825  0.31794368  1
  Al  Al5  1  0.56260794  0.20360285  0.07171748  1
  Al  Al6  1  0.09583308  0.09884271  0.88912853  1
  Al  Al7  1  0.23066348  0.20739151  0.57284500  1
  Al  Al8  1  0.78103606  0.09671053  0.32605509  1
  Al  Al9  1  0.44478435  0.09156896  0.83012841  1
  Al  Al10  1  0.56071458  0.19682290  0.57015100  1
  Al  Al11  1  0.11145917  0.42957568  0.32256088  1
  Al  Al12  1  0.22538265  0.53540472  0.06873665  1
  Al  Al13  1  0.77586102  0.43140055  0.81420180  1
  Al  Al14  1  0.89051148  0.54672850  0.56990801  1
  Al  Al15  1  0.44339774  0.42893910  0.32349632  1
  Al  Al16  1  0.56240401  0.53397727  0.07330361  1
  Al  Al17  1  0.11116640  0.42371502  0.82122394  1
  Al  Al18  1  0.21523495  0.54649688  0.57372934  1
  Al  Al19  1  0.78210095  0.42155662  0.32988431  1
  Al  Al20  1  0.88664980  0.53389630  0.07229504  1
  Al  Al21  1  0.44705031  0.42594941  0.82050458  1
  Al  Al22  1  0.55380775  0.54438092  0.56857122  1
  Al  Al23  1  0.10731612  0.75938409  0.31586389  1
  Al  Al24  1  0.21749601  0.88382776  0.13061016  1
  Al  Al25  1  0.77714569  0.76273940  0.83598256  1
  Al  Al26  1  0.45304624  0.76305722  0.31650052  1
  Al  Al27  1  0.10187609  0.75926010  0.83813317  1
  Al  Al28  1  0.21570389  0.87853276  0.65059494  1
  Al  Al29  1  0.77158224  0.76377888  0.31478408  1
  Al  Al30  1  0.88455544  0.87766827  0.08820944  1
  Al  Al31  1  0.45149260  0.75847582  0.83546666  1
  Al  Al32  1  0.56043610  0.87353323  0.57575109  1
  B  B33  1  0.88600446  0.20847083  0.11200533  1
  B  B34  1  0.88611822  0.87025571  0.61846304  1
  B  B35  1  0.55935327  0.86649356  0.06812822  1
  N  N36  1  0.22740549  0.20786680  0.37898089  1
  N  N37  1  0.07361640  0.11411329  0.08539880  1
  N  N38  1  0.88839129  0.20382515  0.81969266  1
  N  N39  1  0.78833239  0.05843527  0.62802193  1
  N  N40  1  0.55504955  0.20480614  0.38036738  1
  N  N41  1  0.45925784  0.06937938  0.12568067  1
  N  N42  1  0.22295378  0.20518455  0.88604416  1
  N  N43  1  0.12155144  0.08742926  0.58614156  1
  N  N44  1  0.88098852  0.20807560  0.39647520  1
  N  N45  1  0.79091924  0.11601018  0.12805311  1
  N  N46  1  0.55651851  0.20479453  0.88331550  1
  N  N47  1  0.44723569  0.09321766  0.63982124  1
  N  N48  1  0.22095479  0.54268922  0.38512925  1
  N  N49  1  0.11084523  0.42928352  0.13352526  1
  N  N50  1  0.88896645  0.53589287  0.88354457  1
  N  N51  1  0.77345574  0.44151363  0.62604261  1
  N  N52  1  0.55374116  0.54287720  0.37815091  1
  N  N53  1  0.44498927  0.42704491  0.13359272  1
  N  N54  1  0.22414773  0.53344604  0.88025153  1
  N  N55  1  0.11143646  0.42817505  0.63265800  1
  N  N56  1  0.88764122  0.54206306  0.37963162  1
  N  N57  1  0.79346177  0.39846473  0.13276752  1
  N  N58  1  0.55849961  0.53438162  0.88591291  1
  N  N59  1  0.44640274  0.42757270  0.63011317  1
  N  N60  1  0.22168313  0.87767624  0.32424455  1
  N  N61  1  0.11501704  0.75511845  0.12153313  1
  N  N62  1  0.88324108  0.87559808  0.89687173  1
  N  N63  1  0.79117079  0.77403868  0.63798972  1
  N  N64  1  0.55621606  0.87237351  0.38871288  1
  N  N65  1  0.46237795  0.77102098  0.12075235  1
  N  N66  1  0.21869913  0.87369751  0.84532189  1
  N  N67  1  0.07751086  0.77465120  0.63746117  1
  N  N68  1  0.88479505  0.87237060  0.34351451  1
  N  N69  1  0.75001578  0.76809734  0.12221571  1
  N  N70  1  0.55585402  0.87224322  0.90387177  1
  N  N71  1  0.45160785  0.76030567  0.64065924  1
