# generated using pymatgen
data_Al11BN12
_symmetry_space_group_name_H-M   'P 1'
_cell_length_a   9.25293924
_cell_length_b   9.30027020
_cell_length_c   10.17226582
_cell_angle_alpha   90.11419588
_cell_angle_beta   89.60200535
_cell_angle_gamma   59.82232541
_symmetry_Int_Tables_number   1
_chemical_formula_structural   Al11BN12
_chemical_formula_sum   'Al33 B3 N36'
_cell_volume   756.70055885
_cell_formula_units_Z   3
loop_
 _symmetry_equiv_pos_site_id
 _symmetry_equiv_pos_as_xyz
  1  'x, y, z'
loop_
 _atom_site_type_symbol
 _atom_site_label
 _atom_site_symmetry_multiplicity
 _atom_site_fract_x
 _atom_site_fract_y
 _atom_site_fract_z
 _atom_site_occupancy
  Al  Al0  1  0.11747183  0.09200239  0.39695913  1
  Al  Al1  1  0.21306554  0.20696185  0.13420346  1
  Al  Al2  1  0.78031421  0.08599767  0.82008924  1
  Al  Al3  1  0.89003421  0.20086446  0.60033613  1
  Al  Al4  1  0.45578057  0.08400805  0.31241637  1
  Al  Al5  1  0.56163396  0.20393870  0.06673830  1
  Al  Al6  1  0.09584728  0.10231316  0.88881332  1
  Al  Al7  1  0.21799164  0.20727449  0.64730834  1
  Al  Al8  1  0.78296703  0.09803166  0.31940909  1
  Al  Al9  1  0.45060768  0.08980830  0.82981975  1
  Al  Al10  1  0.55994155  0.19448767  0.56791544  1
  Al  Al11  1  0.12111233  0.42092973  0.38897634  1
  Al  Al12  1  0.21644950  0.54258068  0.14599233  1
  Al  Al13  1  0.77538839  0.43283318  0.81112365  1
  Al  Al14  1  0.88433386  0.54977151  0.56748362  1
  Al  Al15  1  0.45243142  0.42192545  0.32266092  1
  Al  Al16  1  0.56053791  0.53251523  0.07383368  1
  Al  Al17  1  0.11727260  0.42727323  0.89148622  1
  Al  Al18  1  0.21064015  0.54533918  0.63727713  1
  Al  Al19  1  0.78650451  0.41932312  0.32613685  1
  Al  Al20  1  0.87703724  0.53952309  0.06814383  1
  Al  Al21  1  0.45169058  0.42516568  0.81714305  1
  Al  Al22  1  0.55499914  0.54084606  0.56620792  1
  Al  Al23  1  0.09945865  0.76808136  0.38731598  1
  Al  Al24  1  0.21393031  0.88148656  0.13977145  1
  Al  Al25  1  0.78026911  0.76408703  0.83171131  1
  Al  Al26  1  0.44910953  0.76144332  0.33012583  1
  Al  Al27  1  0.11334402  0.75940244  0.89751894  1
  Al  Al28  1  0.21628839  0.87494209  0.64658882  1
  Al  Al29  1  0.77274767  0.76022461  0.30811391  1
  Al  Al30  1  0.88509081  0.87783020  0.09924556  1
  Al  Al31  1  0.44367581  0.76392932  0.86040970  1
  Al  Al32  1  0.55720400  0.87408316  0.57323643  1
  B  B33  1  0.88580014  0.20934569  0.10808207  1
  B  B34  1  0.88673457  0.87091994  0.61023614  1
  B  B35  1  0.55803029  0.87107985  0.06597296  1
  N  N36  1  0.21927287  0.20473761  0.32196500  1
  N  N37  1  0.07661211  0.11246393  0.08188254  1
  N  N38  1  0.88702947  0.20537016  0.81858805  1
  N  N39  1  0.79131848  0.05661452  0.62466464  1
  N  N40  1  0.55709876  0.20049110  0.37985276  1
  N  N41  1  0.46377358  0.06710731  0.12051108  1
  N  N42  1  0.21527249  0.20749801  0.83727661  1
  N  N43  1  0.12467630  0.08811928  0.58191769  1
  N  N44  1  0.88350803  0.20644392  0.39461416  1
  N  N45  1  0.79063262  0.11913006  0.12468471  1
  N  N46  1  0.55577057  0.20752642  0.88132042  1
  N  N47  1  0.45255076  0.08911419  0.63969461  1
  N  N48  1  0.21831480  0.54336090  0.33540859  1
  N  N49  1  0.11453338  0.42877735  0.08029307  1
  N  N50  1  0.88218278  0.54076832  0.87987522  1
  N  N51  1  0.77478006  0.43974582  0.62498460  1
  N  N52  1  0.55788441  0.53781070  0.37659721  1
  N  N53  1  0.45081213  0.42168379  0.13364921  1
  N  N54  1  0.21500215  0.54505883  0.82506383  1
  N  N55  1  0.11892411  0.42086212  0.57739114  1
  N  N56  1  0.88499030  0.54422316  0.37646200  1
  N  N57  1  0.79487650  0.39838093  0.13122828  1
  N  N58  1  0.55705743  0.53526188  0.88686327  1
  N  N59  1  0.45369978  0.42086715  0.62661133  1
  N  N60  1  0.21642582  0.87531504  0.32846726  1
  N  N61  1  0.12380348  0.75491991  0.08168744  1
  N  N62  1  0.88081236  0.87808533  0.89627968  1
  N  N63  1  0.79464094  0.77350899  0.63427363  1
  N  N64  1  0.55786421  0.87265972  0.38596509  1
  N  N65  1  0.45527500  0.77431186  0.11165764  1
  N  N66  1  0.21354800  0.87759766  0.83583431  1
  N  N67  1  0.07842653  0.77768811  0.58266503  1
  N  N68  1  0.89021586  0.87046908  0.31362842  1
  N  N69  1  0.74687755  0.76761869  0.12015999  1
  N  N70  1  0.55725397  0.87522151  0.90271587  1
  N  N71  1  0.44767896  0.75931159  0.62374894  1
