# generated using pymatgen
data_Al11BN12
_symmetry_space_group_name_H-M   'P 1'
_cell_length_a   9.28794796
_cell_length_b   9.31417762
_cell_length_c   10.07927684
_cell_angle_alpha   90.00998357
_cell_angle_beta   89.46516370
_cell_angle_gamma   59.89588839
_symmetry_Int_Tables_number   1
_chemical_formula_structural   Al11BN12
_chemical_formula_sum   'Al33 B3 N36'
_cell_volume   754.29626340
_cell_formula_units_Z   3
loop_
 _symmetry_equiv_pos_site_id
 _symmetry_equiv_pos_as_xyz
  1  'x, y, z'
loop_
 _atom_site_type_symbol
 _atom_site_label
 _atom_site_symmetry_multiplicity
 _atom_site_fract_x
 _atom_site_fract_y
 _atom_site_fract_z
 _atom_site_occupancy
  Al  Al0  1  0.11770358  0.09159366  0.39643653  1
  Al  Al1  1  0.21803709  0.20119242  0.12971169  1
  Al  Al2  1  0.78040938  0.08691144  0.82144158  1
  Al  Al3  1  0.88974318  0.20182199  0.60107847  1
  Al  Al4  1  0.45561292  0.08377261  0.31523002  1
  Al  Al5  1  0.56386576  0.20392053  0.06878321  1
  Al  Al6  1  0.09659685  0.10201320  0.89019172  1
  Al  Al7  1  0.22417202  0.19705062  0.64733416  1
  Al  Al8  1  0.78312311  0.09768758  0.32099261  1
  Al  Al9  1  0.45093611  0.08946544  0.83643495  1
  Al  Al10  1  0.56207730  0.19292764  0.56928570  1
  Al  Al11  1  0.10855383  0.43156606  0.32463711  1
  Al  Al12  1  0.22623813  0.53770092  0.09927505  1
  Al  Al13  1  0.77465049  0.43225175  0.81309361  1
  Al  Al14  1  0.89054704  0.54581578  0.56850718  1
  Al  Al15  1  0.44731898  0.42544119  0.32704469  1
  Al  Al16  1  0.56058232  0.53746335  0.07266089  1
  Al  Al17  1  0.10500530  0.43554518  0.82311367  1
  Al  Al18  1  0.21996567  0.53841319  0.59071929  1
  Al  Al19  1  0.78343464  0.41999134  0.32799491  1
  Al  Al20  1  0.88376303  0.53628242  0.06847359  1
  Al  Al21  1  0.44834897  0.42687732  0.81811368  1
  Al  Al22  1  0.55590884  0.54267665  0.56715656  1
  Al  Al23  1  0.09876834  0.76995556  0.38629038  1
  Al  Al24  1  0.21263950  0.88343465  0.14033638  1
  Al  Al25  1  0.77804175  0.76548834  0.83466370  1
  Al  Al26  1  0.45163396  0.76172154  0.31808841  1
  Al  Al27  1  0.11106007  0.76373679  0.89637301  1
  Al  Al28  1  0.21029746  0.87551048  0.64696975  1
  Al  Al29  1  0.77091998  0.76073261  0.31012002  1
  Al  Al30  1  0.88351345  0.87802301  0.10129450  1
  Al  Al31  1  0.44783895  0.76066009  0.83138074  1
  Al  Al32  1  0.56022436  0.87225231  0.57505203  1
  B  B33  1  0.88466251  0.21088057  0.10905445  1
  B  B34  1  0.88608196  0.87095766  0.61197590  1
  B  B35  1  0.55850769  0.86651670  0.06644092  1
  N  N36  1  0.22280013  0.19949484  0.32471754  1
  N  N37  1  0.07516102  0.11361578  0.08371163  1
  N  N38  1  0.88823778  0.20532629  0.81928211  1
  N  N39  1  0.79117469  0.05695023  0.62536922  1
  N  N40  1  0.55831600  0.20017293  0.37966281  1
  N  N41  1  0.46558873  0.06657655  0.12009433  1
  N  N42  1  0.21827639  0.20485893  0.84597024  1
  N  N43  1  0.12422010  0.08669707  0.58238849  1
  N  N44  1  0.88381958  0.20628212  0.39514432  1
  N  N45  1  0.79035964  0.12000837  0.12560772  1
  N  N46  1  0.55759718  0.20755227  0.88213272  1
  N  N47  1  0.45479718  0.08720159  0.64171264  1
  N  N48  1  0.22358194  0.53739867  0.37916270  1
  N  N49  1  0.10447998  0.43595245  0.12915656  1
  N  N50  1  0.88443957  0.53970920  0.88139844  1
  N  N51  1  0.77402257  0.44089851  0.62493278  1
  N  N52  1  0.55578027  0.54144532  0.37743942  1
  N  N53  1  0.44980253  0.42466385  0.13604402  1
  N  N54  1  0.22233170  0.54207139  0.85336948  1
  N  N55  1  0.10790878  0.42630004  0.62893693  1
  N  N56  1  0.88584361  0.54283856  0.37905046  1
  N  N57  1  0.79359300  0.39958423  0.13063566  1
  N  N58  1  0.55622906  0.53779193  0.88521394  1
  N  N59  1  0.45434193  0.42113351  0.62663838  1
  N  N60  1  0.21764588  0.87402010  0.33012416  1
  N  N61  1  0.11999269  0.76087985  0.08489805  1
  N  N62  1  0.87947528  0.87884231  0.89739389  1
  N  N63  1  0.79413199  0.77338988  0.63454430  1
  N  N64  1  0.55704958  0.87089741  0.38790379  1
  N  N65  1  0.45745548  0.77419780  0.12309256  1
  N  N66  1  0.21321816  0.87870386  0.83631075  1
  N  N67  1  0.07571342  0.78031031  0.58530204  1
  N  N68  1  0.88956108  0.86952265  0.31423532  1
  N  N69  1  0.74707067  0.76562385  0.12022853  1
  N  N70  1  0.55482846  0.87043714  0.90278023  1
  N  N71  1  0.44950239  0.75909267  0.63694932  1
