# generated using pymatgen
data_Al11BN12
_symmetry_space_group_name_H-M   'P 1'
_cell_length_a   9.25611416
_cell_length_b   9.25963475
_cell_length_c   9.94251606
_cell_angle_alpha   89.98699543
_cell_angle_beta   89.95800905
_cell_angle_gamma   59.97916117
_symmetry_Int_Tables_number   1
_chemical_formula_structural   Al11BN12
_chemical_formula_sum   'Al33 B3 N36'
_cell_volume   737.83310112
_cell_formula_units_Z   3
loop_
 _symmetry_equiv_pos_site_id
 _symmetry_equiv_pos_as_xyz
  1  'x, y, z'
loop_
 _atom_site_type_symbol
 _atom_site_label
 _atom_site_symmetry_multiplicity
 _atom_site_fract_x
 _atom_site_fract_y
 _atom_site_fract_z
 _atom_site_occupancy
  Al  Al0  1  0.10708102  0.09638594  0.31846390  1
  Al  Al1  1  0.21816570  0.20289333  0.06345478  1
  Al  Al2  1  0.78055306  0.08950875  0.80832470  1
  Al  Al3  1  0.89041140  0.20114290  0.57468110  1
  Al  Al4  1  0.44778531  0.08820389  0.30773544  1
  Al  Al5  1  0.56336876  0.20224602  0.06315051  1
  Al  Al6  1  0.10874406  0.09519159  0.81199410  1
  Al  Al7  1  0.22548612  0.20409803  0.56255891  1
  Al  Al8  1  0.78177585  0.09317554  0.32447283  1
  Al  Al9  1  0.44525885  0.09215170  0.82132496  1
  Al  Al10  1  0.55886438  0.19844501  0.56261434  1
  Al  Al11  1  0.11204470  0.42799493  0.31209510  1
  Al  Al12  1  0.22099662  0.54068886  0.06118710  1
  Al  Al13  1  0.77802267  0.42656439  0.81138681  1
  Al  Al14  1  0.88980027  0.54537215  0.56168468  1
  Al  Al15  1  0.44398402  0.42758328  0.31292720  1
  Al  Al16  1  0.56176288  0.53498767  0.06339798  1
  Al  Al17  1  0.11005524  0.42723255  0.81329541  1
  Al  Al18  1  0.21775592  0.54234825  0.56397609  1
  Al  Al19  1  0.78035362  0.42345960  0.31774006  1
  Al  Al20  1  0.88528463  0.53714114  0.06333531  1
  Al  Al21  1  0.44630165  0.42692024  0.81300502  1
  Al  Al22  1  0.55495383  0.54179988  0.56169726  1
  Al  Al23  1  0.10865692  0.76147504  0.31985964  1
  Al  Al24  1  0.21678746  0.87780833  0.06388400  1
  Al  Al25  1  0.77780291  0.76458624  0.81662277  1
  Al  Al26  1  0.44720639  0.76434568  0.30813601  1
  Al  Al27  1  0.10487630  0.76524980  0.80926691  1
  Al  Al28  1  0.21996656  0.87244003  0.56281106  1
  Al  Al29  1  0.77353150  0.76538675  0.31440899  1
  Al  Al30  1  0.88567857  0.87855912  0.06480003  1
  Al  Al31  1  0.44515627  0.76227511  0.82142563  1
  Al  Al32  1  0.55948177  0.87343100  0.56566657  1
  B  B33  1  0.88877788  0.20456430  0.09858972  1
  B  B34  1  0.88624698  0.87307450  0.56140209  1
  B  B35  1  0.55610310  0.87259947  0.05960775  1
  N  N36  1  0.22496416  0.20418480  0.36897007  1
  N  N37  1  0.08149944  0.10877391  0.12258249  1
  N  N38  1  0.88642573  0.20470739  0.85272391  1
  N  N39  1  0.78876942  0.06631026  0.61350102  1
  N  N40  1  0.55465025  0.20361852  0.36992332  1
  N  N41  1  0.45683446  0.06985258  0.11419264  1
  N  N42  1  0.22059797  0.20512590  0.87467688  1
  N  N43  1  0.11675173  0.09227620  0.62063791  1
  N  N44  1  0.88905095  0.20594079  0.38331804  1
  N  N45  1  0.79300314  0.10748998  0.12657391  1
  N  N46  1  0.55834116  0.20409408  0.87298147  1
  N  N47  1  0.44525228  0.09313691  0.62878735  1
  N  N48  1  0.22279949  0.53796354  0.37380260  1
  N  N49  1  0.11088587  0.42806751  0.12149477  1
  N  N50  1  0.88685164  0.54038414  0.87295183  1
  N  N51  1  0.77652129  0.43371352  0.61924431  1
  N  N52  1  0.55459909  0.54130143  0.36860209  1
  N  N53  1  0.44394360  0.42757402  0.12195723  1
  N  N54  1  0.22116855  0.54109204  0.86959822  1
  N  N55  1  0.11149060  0.42670023  0.62217911  1
  N  N56  1  0.88847202  0.54075118  0.36901969  1
  N  N57  1  0.79275116  0.39788031  0.12199964  1
  N  N58  1  0.55656714  0.53815945  0.87452737  1
  N  N59  1  0.44626484  0.42649627  0.62087860  1
  N  N60  1  0.22470950  0.87122356  0.37027025  1
  N  N61  1  0.10852138  0.76183626  0.12759735  1
  N  N62  1  0.88823342  0.87318866  0.87780928  1
  N  N63  1  0.78955475  0.77398757  0.61958179  1
  N  N64  1  0.55489469  0.87250381  0.37729592  1
  N  N65  1  0.45622249  0.77381334  0.11446410  1
  N  N66  1  0.21969943  0.87242258  0.87358076  1
  N  N67  1  0.08623040  0.77420209  0.61490858  1
  N  N68  1  0.88781927  0.87064783  0.39155842  1
  N  N69  1  0.75364484  0.77464167  0.11881003  1
  N  N70  1  0.55729316  0.87133585  0.89343160  1
  N  N71  1  0.44509022  0.76244341  0.62777813  1
