# generated using pymatgen
data_Al11BN12
_symmetry_space_group_name_H-M   'P 1'
_cell_length_a   9.25294080
_cell_length_b   9.25391453
_cell_length_c   9.91912131
_cell_angle_alpha   89.97817181
_cell_angle_beta   89.96813864
_cell_angle_gamma   59.99289529
_symmetry_Int_Tables_number   1
_chemical_formula_structural   Al11BN12
_chemical_formula_sum   'Al33 B3 N36'
_cell_volume   735.49196782
_cell_formula_units_Z   3
loop_
 _symmetry_equiv_pos_site_id
 _symmetry_equiv_pos_as_xyz
  1  'x, y, z'
loop_
 _atom_site_type_symbol
 _atom_site_label
 _atom_site_symmetry_multiplicity
 _atom_site_fract_x
 _atom_site_fract_y
 _atom_site_fract_z
 _atom_site_occupancy
  Al  Al0  1  0.10638707  0.09666166  0.31243971  1
  Al  Al1  1  0.21896866  0.20251118  0.06344165  1
  Al  Al2  1  0.78147636  0.09054345  0.81303444  1
  Al  Al3  1  0.89051989  0.20053466  0.56714220  1
  Al  Al4  1  0.44757825  0.08843662  0.30816391  1
  Al  Al5  1  0.56316479  0.20181375  0.06326987  1
  Al  Al6  1  0.10799681  0.09563888  0.81718049  1
  Al  Al7  1  0.22417812  0.20378098  0.56323850  1
  Al  Al8  1  0.78174212  0.09374372  0.31907919  1
  Al  Al9  1  0.44552644  0.09211539  0.82100620  1
  Al  Al10  1  0.55950011  0.19855843  0.56328846  1
  Al  Al11  1  0.11159454  0.42779603  0.31254413  1
  Al  Al12  1  0.22084308  0.54081555  0.06189291  1
  Al  Al13  1  0.77888622  0.42502360  0.81668792  1
  Al  Al14  1  0.88944327  0.54403969  0.56287227  1
  Al  Al15  1  0.44424779  0.42750531  0.31322223  1
  Al  Al16  1  0.56150742  0.53583609  0.06347587  1
  Al  Al17  1  0.11036707  0.42755817  0.81324641  1
  Al  Al18  1  0.21752757  0.54228011  0.56368448  1
  Al  Al19  1  0.78064104  0.42276476  0.31251264  1
  Al  Al20  1  0.88468021  0.53795993  0.06335963  1
  Al  Al21  1  0.44535923  0.42748854  0.81299838  1
  Al  Al22  1  0.55598542  0.54045349  0.56264378  1
  Al  Al23  1  0.10845901  0.76208830  0.32014550  1
  Al  Al24  1  0.21766954  0.87748224  0.06381841  1
  Al  Al25  1  0.77771526  0.76487104  0.81649349  1
  Al  Al26  1  0.44724451  0.76420507  0.30867637  1
  Al  Al27  1  0.10515244  0.76464760  0.80920981  1
  Al  Al28  1  0.21905993  0.87367827  0.56351389  1
  Al  Al29  1  0.77376017  0.76528984  0.31504335  1
  Al  Al30  1  0.88512777  0.87847507  0.06490766  1
  Al  Al31  1  0.44544834  0.76224727  0.82114416  1
  Al  Al32  1  0.55963749  0.87352877  0.56540096  1
  B  B33  1  0.88861813  0.20461758  0.07102914  1
  B  B34  1  0.88768062  0.87287664  0.56192805  1
  B  B35  1  0.55610469  0.87266017  0.06012386  1
  N  N36  1  0.22418690  0.20346032  0.36925671  1
  N  N37  1  0.08384708  0.10763126  0.11842056  1
  N  N38  1  0.88745537  0.20446153  0.88469800  1
  N  N39  1  0.79032107  0.06903874  0.61723038  1
  N  N40  1  0.55554856  0.20324464  0.37025209  1
  N  N41  1  0.45682635  0.06993306  0.11427556  1
  N  N42  1  0.22111690  0.20572233  0.87419149  1
  N  N43  1  0.11198867  0.09441125  0.62528169  1
  N  N44  1  0.88935352  0.20574585  0.37936635  1
  N  N45  1  0.79171526  0.10645233  0.12289026  1
  N  N46  1  0.55812153  0.20473505  0.87238206  1
  N  N47  1  0.44492731  0.09312613  0.62835372  1
  N  N48  1  0.22260445  0.53810448  0.37363739  1
  N  N49  1  0.11068547  0.42814171  0.12164836  1
  N  N50  1  0.88736135  0.54059199  0.87237510  1
  N  N51  1  0.77862771  0.42790554  0.62384501  1
  N  N52  1  0.55587181  0.54057345  0.36919777  1
  N  N53  1  0.44388880  0.42769460  0.12197931  1
  N  N54  1  0.22101226  0.54121271  0.86978943  1
  N  N55  1  0.11135178  0.42659121  0.62206533  1
  N  N56  1  0.88768276  0.54014418  0.36989064  1
  N  N57  1  0.79148923  0.40056793  0.11836732  1
  N  N58  1  0.55603720  0.53817882  0.87402763  1
  N  N59  1  0.44553033  0.42681028  0.62087728  1
  N  N60  1  0.22413832  0.87261298  0.37062362  1
  N  N61  1  0.10843557  0.76204817  0.12771236  1
  N  N62  1  0.88887014  0.87267935  0.87746785  1
  N  N63  1  0.78951296  0.77410479  0.61964463  1
  N  N64  1  0.55501449  0.87252362  0.37721415  1
  N  N65  1  0.45623165  0.77384175  0.11461757  1
  N  N66  1  0.22013268  0.87147747  0.87297152  1
  N  N67  1  0.08604087  0.77427262  0.61474164  1
  N  N68  1  0.88725031  0.87224335  0.39225105  1
  N  N69  1  0.75370335  0.77462327  0.11906579  1
  N  N70  1  0.55738441  0.87139609  0.89337219  1
  N  N71  1  0.44538690  0.76234190  0.62735364  1
