# generated using pymatgen
data_Al11BN12
_symmetry_space_group_name_H-M   'P 1'
_cell_length_a   9.24610017
_cell_length_b   9.28417652
_cell_length_c   10.27519396
_cell_angle_alpha   90.32503716
_cell_angle_beta   89.74184157
_cell_angle_gamma   59.84161023
_symmetry_Int_Tables_number   1
_chemical_formula_structural   Al11BN12
_chemical_formula_sum   'Al33 B3 N36'
_cell_volume   762.61364482
_cell_formula_units_Z   3
loop_
 _symmetry_equiv_pos_site_id
 _symmetry_equiv_pos_as_xyz
  1  'x, y, z'
loop_
 _atom_site_type_symbol
 _atom_site_label
 _atom_site_symmetry_multiplicity
 _atom_site_fract_x
 _atom_site_fract_y
 _atom_site_fract_z
 _atom_site_occupancy
  Al  Al0  1  0.11476682  0.09453143  0.39794919  1
  Al  Al1  1  0.21137490  0.20667314  0.13806510  1
  Al  Al2  1  0.78002449  0.08377666  0.82036857  1
  Al  Al3  1  0.88866510  0.20170291  0.60220664  1
  Al  Al4  1  0.45444918  0.08384897  0.32389303  1
  Al  Al5  1  0.56280136  0.19996997  0.06669487  1
  Al  Al6  1  0.09703890  0.10103395  0.88756610  1
  Al  Al7  1  0.21309497  0.21241646  0.64432124  1
  Al  Al8  1  0.78314695  0.09877986  0.31837346  1
  Al  Al9  1  0.44987566  0.09115383  0.81569631  1
  Al  Al10  1  0.56071472  0.19602991  0.56385247  1
  Al  Al11  1  0.12186119  0.42276516  0.38886386  1
  Al  Al12  1  0.21732188  0.54236972  0.14571690  1
  Al  Al13  1  0.77412997  0.43424242  0.81262620  1
  Al  Al14  1  0.88468045  0.54999622  0.56352150  1
  Al  Al15  1  0.45359232  0.42355750  0.31993245  1
  Al  Al16  1  0.56319956  0.52809266  0.07207427  1
  Al  Al17  1  0.11806794  0.42559233  0.89261262  1
  Al  Al18  1  0.21066694  0.54629122  0.63820304  1
  Al  Al19  1  0.78455780  0.42104839  0.32486590  1
  Al  Al20  1  0.87640779  0.53926821  0.06832986  1
  Al  Al21  1  0.45145747  0.42374743  0.81816933  1
  Al  Al22  1  0.55785709  0.53207895  0.56631956  1
  Al  Al23  1  0.10143912  0.76861720  0.38607790  1
  Al  Al24  1  0.21994220  0.87980085  0.14340927  1
  Al  Al25  1  0.78666857  0.75924784  0.82183099  1
  Al  Al26  1  0.43784812  0.76880591  0.39636127  1
  Al  Al27  1  0.11451976  0.75925290  0.89811157  1
  Al  Al28  1  0.21447172  0.87563414  0.64691026  1
  Al  Al29  1  0.77109505  0.76218198  0.31629674  1
  Al  Al30  1  0.88688136  0.87761582  0.10115593  1
  Al  Al31  1  0.44387388  0.77010497  0.88749275  1
  Al  Al32  1  0.55815651  0.87363012  0.60298481  1
  B  B33  1  0.88677955  0.20816750  0.10774889  1
  B  B34  1  0.89075144  0.86948765  0.60647848  1
  B  B35  1  0.55399026  0.86979765  0.10721064  1
  N  N36  1  0.21820517  0.20594084  0.32309737  1
  N  N37  1  0.07770513  0.11123819  0.08162193  1
  N  N38  1  0.88613279  0.20499898  0.81927914  1
  N  N39  1  0.79145645  0.05639204  0.62492040  1
  N  N40  1  0.55812305  0.20314562  0.37794691  1
  N  N41  1  0.46508530  0.06032438  0.12661501  1
  N  N42  1  0.21476856  0.20733266  0.83419402  1
  N  N43  1  0.12162698  0.09005595  0.58178380  1
  N  N44  1  0.88203686  0.20829187  0.39433944  1
  N  N45  1  0.79104794  0.11834819  0.12466928  1
  N  N46  1  0.55439824  0.20407885  0.88271973  1
  N  N47  1  0.44324782  0.10309624  0.62863440  1
  N  N48  1  0.21918985  0.54401299  0.33292647  1
  N  N49  1  0.11554109  0.42752534  0.08055421  1
  N  N50  1  0.88262346  0.54058013  0.88284314  1
  N  N51  1  0.77428134  0.44281829  0.62771476  1
  N  N52  1  0.55958716  0.53563182  0.37690494  1
  N  N53  1  0.45182767  0.41965089  0.13251037  1
  N  N54  1  0.21389020  0.54466011  0.82486158  1
  N  N55  1  0.11770384  0.42432599  0.57490270  1
  N  N56  1  0.88607152  0.54292897  0.37523071  1
  N  N57  1  0.79514173  0.39801695  0.13106456  1
  N  N58  1  0.55579631  0.53483717  0.88703068  1
  N  N59  1  0.45458909  0.41937471  0.62972599  1
  N  N60  1  0.22063130  0.87608061  0.32814764  1
  N  N61  1  0.12714376  0.75505206  0.08149496  1
  N  N62  1  0.88035617  0.87566499  0.89861832  1
  N  N63  1  0.80542807  0.76958759  0.62767779  1
  N  N64  1  0.56165186  0.87492558  0.39508553  1
  N  N65  1  0.45391342  0.78218760  0.08441303  1
  N  N66  1  0.21816899  0.87420295  0.83341318  1
  N  N67  1  0.08149361  0.77840086  0.58010306  1
  N  N68  1  0.89248415  0.86999301  0.31103466  1
  N  N69  1  0.74132092  0.76852269  0.12521155  1
  N  N70  1  0.55810498  0.86375338  0.82006134  1
  N  N71  1  0.43218721  0.76140471  0.58364190  1
