# generated using pymatgen
data_Al11BN12
_symmetry_space_group_name_H-M   'P 1'
_cell_length_a   9.29807106
_cell_length_b   9.27893522
_cell_length_c   10.12433197
_cell_angle_alpha   90.13434428
_cell_angle_beta   89.65582570
_cell_angle_gamma   59.87420684
_symmetry_Int_Tables_number   1
_chemical_formula_structural   Al11BN12
_chemical_formula_sum   'Al33 B3 N36'
_cell_volume   755.47472666
_cell_formula_units_Z   3
loop_
 _symmetry_equiv_pos_site_id
 _symmetry_equiv_pos_as_xyz
  1  'x, y, z'
loop_
 _atom_site_type_symbol
 _atom_site_label
 _atom_site_symmetry_multiplicity
 _atom_site_fract_x
 _atom_site_fract_y
 _atom_site_fract_z
 _atom_site_occupancy
  Al  Al0  1  0.11558235  0.09427436  0.39415014  1
  Al  Al1  1  0.21178541  0.20635033  0.13304516  1
  Al  Al2  1  0.78317260  0.08009178  0.81401544  1
  Al  Al3  1  0.89001443  0.20318790  0.60573081  1
  Al  Al4  1  0.45524468  0.08044760  0.31875169  1
  Al  Al5  1  0.56548291  0.19868490  0.06520811  1
  Al  Al6  1  0.10078057  0.09847021  0.88171529  1
  Al  Al7  1  0.21520469  0.21214420  0.64099866  1
  Al  Al8  1  0.78414259  0.10146413  0.31281396  1
  Al  Al9  1  0.45087573  0.09065635  0.81334883  1
  Al  Al10  1  0.56252892  0.19522403  0.56111353  1
  Al  Al11  1  0.11086822  0.42590031  0.38844753  1
  Al  Al12  1  0.22040837  0.53919710  0.14248802  1
  Al  Al13  1  0.78088925  0.42125377  0.88076287  1
  Al  Al14  1  0.89087386  0.54858970  0.64304398  1
  Al  Al15  1  0.44748450  0.42579020  0.34433098  1
  Al  Al16  1  0.56245623  0.53659031  0.13421028  1
  Al  Al17  1  0.10960015  0.42999012  0.89058520  1
  Al  Al18  1  0.21530899  0.54408645  0.63297605  1
  Al  Al19  1  0.77594837  0.43347242  0.39582971  1
  Al  Al20  1  0.88256374  0.53573186  0.14019498  1
  Al  Al21  1  0.44430241  0.42345722  0.84186879  1
  Al  Al22  1  0.55567684  0.54278048  0.64323898  1
  Al  Al23  1  0.10184294  0.76966163  0.38107965  1
  Al  Al24  1  0.21940440  0.88008560  0.13983762  1
  Al  Al25  1  0.76929191  0.76291028  0.89054334  1
  Al  Al26  1  0.44121508  0.75983788  0.39436827  1
  Al  Al27  1  0.11420880  0.75904920  0.89606573  1
  Al  Al28  1  0.21359238  0.87511520  0.64214052  1
  Al  Al29  1  0.78394106  0.76374873  0.38378833  1
  Al  Al30  1  0.88844155  0.87621538  0.10501796  1
  Al  Al31  1  0.44448042  0.76721971  0.88394606  1
  Al  Al32  1  0.55785665  0.87296747  0.60209492  1
  B  B33  1  0.88598907  0.20897092  0.09547598  1
  B  B34  1  0.89013882  0.87025248  0.59643332  1
  B  B35  1  0.55450017  0.86880267  0.09918822  1
  N  N36  1  0.22001263  0.20633210  0.32134059  1
  N  N37  1  0.07778662  0.11070160  0.07755512  1
  N  N38  1  0.88731479  0.20699834  0.81164829  1
  N  N39  1  0.79207670  0.05626088  0.62075181  1
  N  N40  1  0.56139092  0.19809967  0.37171493  1
  N  N41  1  0.46525229  0.05855694  0.12052575  1
  N  N42  1  0.21722593  0.20756376  0.83465212  1
  N  N43  1  0.12205474  0.09087069  0.58104237  1
  N  N44  1  0.88621898  0.20429520  0.38809255  1
  N  N45  1  0.79192331  0.11931936  0.12033020  1
  N  N46  1  0.56093395  0.19757725  0.87828614  1
  N  N47  1  0.44304956  0.10337652  0.62472959  1
  N  N48  1  0.21750047  0.54226736  0.33316258  1
  N  N49  1  0.10752019  0.43193117  0.07856162  1
  N  N50  1  0.88875193  0.54034319  0.83180937  1
  N  N51  1  0.77366310  0.44491406  0.58364521  1
  N  N52  1  0.56039177  0.54226646  0.32375857  1
  N  N53  1  0.44600195  0.42289721  0.10942555  1
  N  N54  1  0.21496744  0.54290475  0.82419663  1
  N  N55  1  0.10932606  0.42895457  0.57620850  1
  N  N56  1  0.88893592  0.53848578  0.32694253  1
  N  N57  1  0.79317485  0.39880170  0.07627983  1
  N  N58  1  0.55562390  0.54125046  0.83552468  1
  N  N59  1  0.44929359  0.42311370  0.60723865  1
  N  N60  1  0.22230295  0.87455254  0.32686590  1
  N  N61  1  0.12591072  0.75522102  0.08233200  1
  N  N62  1  0.88484902  0.87591685  0.89481786  1
  N  N63  1  0.80283460  0.77227586  0.58019743  1
  N  N64  1  0.55627038  0.87262193  0.38902698  1
  N  N65  1  0.45413259  0.77944048  0.07956443  1
  N  N66  1  0.21945881  0.87257631  0.83105282  1
  N  N67  1  0.08109968  0.77913397  0.57754456  1
  N  N68  1  0.88911107  0.86925228  0.30791815  1
  N  N69  1  0.74140319  0.76786092  0.08524096  1
  N  N70  1  0.56208773  0.86145788  0.81451340  1
  N  N71  1  0.43318161  0.75762943  0.58193990  1
