# generated using pymatgen
data_Al11BN12
_symmetry_space_group_name_H-M   'P 1'
_cell_length_a   9.27607634
_cell_length_b   9.27462146
_cell_length_c   9.97478417
_cell_angle_alpha   90.01332069
_cell_angle_beta   89.78796277
_cell_angle_gamma   59.91743527
_symmetry_Int_Tables_number   1
_chemical_formula_structural   Al11BN12
_chemical_formula_sum   'Al33 B3 N36'
_cell_volume   742.55475528
_cell_formula_units_Z   3
loop_
 _symmetry_equiv_pos_site_id
 _symmetry_equiv_pos_as_xyz
  1  'x, y, z'
loop_
 _atom_site_type_symbol
 _atom_site_label
 _atom_site_symmetry_multiplicity
 _atom_site_fract_x
 _atom_site_fract_y
 _atom_site_fract_z
 _atom_site_occupancy
  Al  Al0  1  0.11088769  0.09727240  0.39556357  1
  Al  Al1  1  0.21968485  0.20352158  0.14893826  1
  Al  Al2  1  0.77929374  0.09165855  0.88269340  1
  Al  Al3  1  0.89048252  0.19800601  0.64699484  1
  Al  Al4  1  0.44640699  0.09244291  0.39166539  1
  Al  Al5  1  0.55362531  0.20600212  0.14336282  1
  Al  Al6  1  0.10493073  0.09631114  0.90350185  1
  Al  Al7  1  0.22260123  0.20394359  0.65008623  1
  Al  Al8  1  0.78454263  0.09456903  0.32720493  1
  Al  Al9  1  0.44597235  0.08789648  0.90305293  1
  Al  Al10  1  0.55963834  0.19654957  0.64713835  1
  Al  Al11  1  0.11147545  0.42765925  0.40055906  1
  Al  Al12  1  0.22430244  0.53831367  0.15342508  1
  Al  Al13  1  0.77996423  0.42228683  0.90295736  1
  Al  Al14  1  0.88902278  0.54431558  0.64851149  1
  Al  Al15  1  0.44669394  0.42686936  0.40076537  1
  Al  Al16  1  0.56059353  0.53678899  0.14886800  1
  Al  Al17  1  0.10950924  0.42943205  0.89939343  1
  Al  Al18  1  0.21484588  0.54382646  0.64788568  1
  Al  Al19  1  0.77850022  0.42769359  0.39649608  1
  Al  Al20  1  0.88470405  0.53635404  0.15263046  1
  Al  Al21  1  0.44250791  0.42861953  0.89777754  1
  Al  Al22  1  0.55617895  0.53957784  0.65081870  1
  Al  Al23  1  0.10546046  0.76491902  0.39321723  1
  Al  Al24  1  0.22188921  0.87832470  0.15273643  1
  Al  Al25  1  0.76861659  0.76002018  0.90867650  1
  Al  Al26  1  0.44593921  0.76201180  0.39397602  1
  Al  Al27  1  0.11509315  0.75855806  0.90468229  1
  Al  Al28  1  0.21573610  0.87528693  0.64772590  1
  Al  Al29  1  0.77754381  0.76715401  0.38531230  1
  Al  Al30  1  0.88918628  0.87216221  0.11658220  1
  Al  Al31  1  0.44527417  0.76470880  0.90300865  1
  Al  Al32  1  0.56039310  0.87417775  0.64632473  1
  B  B33  1  0.89074315  0.21146074  0.15040560  1
  B  B34  1  0.88558136  0.87632179  0.60425544  1
  B  B35  1  0.55688127  0.86656491  0.15358018  1
  N  N36  1  0.22311739  0.20697626  0.33797055  1
  N  N37  1  0.08608702  0.10796193  0.09596817  1
  N  N38  1  0.88846858  0.20551412  0.83590339  1
  N  N39  1  0.79423367  0.06009298  0.61517758  1
  N  N40  1  0.55409549  0.20737627  0.33637734  1
  N  N41  1  0.45597940  0.06971173  0.09576459  1
  N  N42  1  0.22200777  0.20352477  0.84310572  1
  N  N43  1  0.11012009  0.09578748  0.58590276  1
  N  N44  1  0.89569157  0.21256827  0.31963053  1
  N  N45  1  0.78786874  0.11452601  0.11428312  1
  N  N46  1  0.55209153  0.20454481  0.84136669  1
  N  N47  1  0.44364405  0.09320082  0.58360322  1
  N  N48  1  0.22375531  0.53856085  0.34413104  1
  N  N49  1  0.11015084  0.43027124  0.09050400  1
  N  N50  1  0.88555512  0.53986007  0.84077774  1
  N  N51  1  0.77880246  0.42577405  0.58791313  1
  N  N52  1  0.55627131  0.53817465  0.33848116  1
  N  N53  1  0.44394341  0.42862101  0.08777871  1
  N  N54  1  0.22068782  0.54015591  0.83711120  1
  N  N55  1  0.11102186  0.42643983  0.59090908  1
  N  N56  1  0.88927741  0.53991526  0.34218180  1
  N  N57  1  0.79161183  0.40304130  0.09583373  1
  N  N58  1  0.55589419  0.54015475  0.84346237  1
  N  N59  1  0.44519942  0.42677555  0.59191078  1
  N  N60  1  0.22176392  0.87361035  0.34237606  1
  N  N61  1  0.12638829  0.75538791  0.09399742  1
  N  N62  1  0.88697911  0.86845529  0.90127825  1
  N  N63  1  0.79127664  0.77654201  0.58524495  1
  N  N64  1  0.55441562  0.87243434  0.32003088  1
  N  N65  1  0.45506630  0.77425223  0.09767258  1
  N  N66  1  0.22177918  0.87291146  0.84009455  1
  N  N67  1  0.08030464  0.77669312  0.59025129  1
  N  N68  1  0.89302446  0.86748501  0.32113951  1
  N  N69  1  0.74620495  0.76613504  0.10086176  1
  N  N70  1  0.55584577  0.87118067  0.83405356  1
  N  N71  1  0.44540793  0.76190342  0.58668068  1
