# generated using pymatgen
data_Al11BN12
_symmetry_space_group_name_H-M   'P 1'
_cell_length_a   9.27223732
_cell_length_b   9.27071733
_cell_length_c   10.00792838
_cell_angle_alpha   89.97688472
_cell_angle_beta   89.68304321
_cell_angle_gamma   59.92681508
_symmetry_Int_Tables_number   1
_chemical_formula_structural   Al11BN12
_chemical_formula_sum   'Al33 B3 N36'
_cell_volume   744.46396194
_cell_formula_units_Z   3
loop_
 _symmetry_equiv_pos_site_id
 _symmetry_equiv_pos_as_xyz
  1  'x, y, z'
loop_
 _atom_site_type_symbol
 _atom_site_label
 _atom_site_symmetry_multiplicity
 _atom_site_fract_x
 _atom_site_fract_y
 _atom_site_fract_z
 _atom_site_occupancy
  Al  Al0  1  0.11181168  0.09689925  0.39790675  1
  Al  Al1  1  0.21893432  0.20347888  0.14927929  1
  Al  Al2  1  0.78293643  0.08146205  0.84564402  1
  Al  Al3  1  0.89244269  0.20159053  0.64436023  1
  Al  Al4  1  0.44636811  0.09249578  0.39092032  1
  Al  Al5  1  0.55518139  0.20544568  0.14324693  1
  Al  Al6  1  0.10397760  0.09636556  0.90260669  1
  Al  Al7  1  0.22333120  0.20406024  0.65118290  1
  Al  Al8  1  0.78574566  0.09642841  0.32239552  1
  Al  Al9  1  0.44635764  0.08806634  0.90362338  1
  Al  Al10  1  0.55438818  0.19991286  0.64561536  1
  Al  Al11  1  0.11121983  0.42745972  0.40061452  1
  Al  Al12  1  0.22405114  0.53806467  0.15393993  1
  Al  Al13  1  0.77969272  0.42124869  0.90193032  1
  Al  Al14  1  0.88930989  0.54518981  0.64980061  1
  Al  Al15  1  0.44676677  0.42693163  0.40010782  1
  Al  Al16  1  0.56074331  0.53618537  0.14912737  1
  Al  Al17  1  0.10967854  0.42929259  0.90008175  1
  Al  Al18  1  0.21473329  0.54397873  0.64826344  1
  Al  Al19  1  0.77813018  0.42878730  0.39873292  1
  Al  Al20  1  0.88471648  0.53558745  0.15307374  1
  Al  Al21  1  0.44333923  0.42757760  0.89827715  1
  Al  Al22  1  0.55534662  0.54078118  0.65173105  1
  Al  Al23  1  0.10491559  0.76531168  0.39300284  1
  Al  Al24  1  0.22108994  0.87856811  0.15327395  1
  Al  Al25  1  0.76857150  0.75972385  0.91001403  1
  Al  Al26  1  0.44582401  0.76200822  0.39393031  1
  Al  Al27  1  0.11569986  0.75789962  0.90599716  1
  Al  Al28  1  0.21642906  0.87486967  0.64880253  1
  Al  Al29  1  0.77753667  0.76745955  0.38476063  1
  Al  Al30  1  0.88788819  0.87543046  0.11497328  1
  Al  Al31  1  0.44526138  0.76476945  0.90367903  1
  Al  Al32  1  0.56010767  0.87430450  0.64658810  1
  B  B33  1  0.88920441  0.20986105  0.14321779  1
  B  B34  1  0.88679518  0.87353861  0.60582285  1
  B  B35  1  0.55681651  0.86652181  0.15367053  1
  N  N36  1  0.22315202  0.20674099  0.33774640  1
  N  N37  1  0.08443597  0.10830995  0.09512682  1
  N  N38  1  0.88892730  0.20585355  0.83337753  1
  N  N39  1  0.79468633  0.05812293  0.63040658  1
  N  N40  1  0.55416079  0.20723191  0.33733029  1
  N  N41  1  0.45606062  0.06968595  0.09584218  1
  N  N42  1  0.22228924  0.20340579  0.84356074  1
  N  N43  1  0.11277133  0.09464101  0.58752404  1
  N  N44  1  0.89601611  0.21286816  0.33215912  1
  N  N45  1  0.78929928  0.11510831  0.12402208  1
  N  N46  1  0.55026296  0.20523945  0.83906189  1
  N  N47  1  0.44359534  0.09281863  0.58265463  1
  N  N48  1  0.22352609  0.53869108  0.34418029  1
  N  N49  1  0.11007960  0.43002111  0.09063232  1
  N  N50  1  0.88577051  0.53997771  0.84139002  1
  N  N51  1  0.77758366  0.42935332  0.58957223  1
  N  N52  1  0.55656024  0.53831950  0.33828482  1
  N  N53  1  0.44393816  0.42822388  0.08773183  1
  N  N54  1  0.22098777  0.54002391  0.83713505  1
  N  N55  1  0.11115750  0.42643465  0.59100674  1
  N  N56  1  0.88906378  0.54025917  0.34211905  1
  N  N57  1  0.79187092  0.40170055  0.09481663  1
  N  N58  1  0.55535148  0.54045231  0.84359133  1
  N  N59  1  0.44467823  0.42820349  0.59104406  1
  N  N60  1  0.22182246  0.87368197  0.34246431  1
  N  N61  1  0.12594451  0.75529176  0.09446316  1
  N  N62  1  0.88685204  0.86914128  0.90335069  1
  N  N63  1  0.79149247  0.77679728  0.58564171  1
  N  N64  1  0.55430637  0.87233055  0.31993627  1
  N  N65  1  0.45478160  0.77425108  0.09777433  1
  N  N66  1  0.22187585  0.87239474  0.84043617  1
  N  N67  1  0.07991175  0.77710039  0.59063742  1
  N  N68  1  0.89240574  0.86847946  0.32335691  1
  N  N69  1  0.74628948  0.76599373  0.10125458  1
  N  N70  1  0.55626146  0.87115601  0.83407571  1
  N  N71  1  0.44522411  0.76223982  0.58660112  1
