# generated using pymatgen
data_Al11BN12
_symmetry_space_group_name_H-M   'P 1'
_cell_length_a   9.24725112
_cell_length_b   9.30267144
_cell_length_c   10.20740762
_cell_angle_alpha   90.16717719
_cell_angle_beta   89.63958279
_cell_angle_gamma   59.82553296
_symmetry_Int_Tables_number   1
_chemical_formula_structural   Al11BN12
_chemical_formula_sum   'Al33 B3 N36'
_cell_volume   759.06836828
_cell_formula_units_Z   3
loop_
 _symmetry_equiv_pos_site_id
 _symmetry_equiv_pos_as_xyz
  1  'x, y, z'
loop_
 _atom_site_type_symbol
 _atom_site_label
 _atom_site_symmetry_multiplicity
 _atom_site_fract_x
 _atom_site_fract_y
 _atom_site_fract_z
 _atom_site_occupancy
  Al  Al0  1  0.11591584  0.09364437  0.39681252  1
  Al  Al1  1  0.21266380  0.20704379  0.13389306  1
  Al  Al2  1  0.78034550  0.08607699  0.82015691  1
  Al  Al3  1  0.89016786  0.20057840  0.60094397  1
  Al  Al4  1  0.45577757  0.08327416  0.31100240  1
  Al  Al5  1  0.56167736  0.20368449  0.06614430  1
  Al  Al6  1  0.09704346  0.10108296  0.88824412  1
  Al  Al7  1  0.21733300  0.20764782  0.64747961  1
  Al  Al8  1  0.78249876  0.09806542  0.31906366  1
  Al  Al9  1  0.45075885  0.09060769  0.82888884  1
  Al  Al10  1  0.55953270  0.19426656  0.56718272  1
  Al  Al11  1  0.12115297  0.42100516  0.38867361  1
  Al  Al12  1  0.21627390  0.54306193  0.14575143  1
  Al  Al13  1  0.77513086  0.43315888  0.81173751  1
  Al  Al14  1  0.88442537  0.54961468  0.56676079  1
  Al  Al15  1  0.45250911  0.42143312  0.32139629  1
  Al  Al16  1  0.56188251  0.53030682  0.07487573  1
  Al  Al17  1  0.11747837  0.42723817  0.89172385  1
  Al  Al18  1  0.21007526  0.54545467  0.63767803  1
  Al  Al19  1  0.78617002  0.41954193  0.32515595  1
  Al  Al20  1  0.87700446  0.53963411  0.06746512  1
  Al  Al21  1  0.45166560  0.42566983  0.81748463  1
  Al  Al22  1  0.55817663  0.53309805  0.56550252  1
  Al  Al23  1  0.09818457  0.76824257  0.38688716  1
  Al  Al24  1  0.21949711  0.87863428  0.14316485  1
  Al  Al25  1  0.78156772  0.76386853  0.83142907  1
  Al  Al26  1  0.43895381  0.76461303  0.38282724  1
  Al  Al27  1  0.11488896  0.75960025  0.89710248  1
  Al  Al28  1  0.21748164  0.87425312  0.64529236  1
  Al  Al29  1  0.77116633  0.76011722  0.30647007  1
  Al  Al30  1  0.88615777  0.87778536  0.09913966  1
  Al  Al31  1  0.43884060  0.76805673  0.89520111  1
  Al  Al32  1  0.56063643  0.87632615  0.57233936  1
  B  B33  1  0.88674556  0.20841334  0.10786642  1
  B  B34  1  0.88692243  0.87088195  0.61028299  1
  B  B35  1  0.55850269  0.87288029  0.06337935  1
  N  N36  1  0.21885671  0.20494455  0.32127933  1
  N  N37  1  0.07762401  0.11102370  0.08158349  1
  N  N38  1  0.88786144  0.20488576  0.81803315  1
  N  N39  1  0.79091078  0.05654906  0.62467840  1
  N  N40  1  0.55644320  0.20049467  0.37956721  1
  N  N41  1  0.46356580  0.06708103  0.11962348  1
  N  N42  1  0.21525689  0.20772557  0.83692556  1
  N  N43  1  0.12413180  0.08867309  0.58170794  1
  N  N44  1  0.88271827  0.20685610  0.39467962  1
  N  N45  1  0.79069166  0.11910055  0.12460669  1
  N  N46  1  0.55588012  0.20803914  0.88130520  1
  N  N47  1  0.45205018  0.08935081  0.63988567  1
  N  N48  1  0.21809256  0.54362350  0.33484130  1
  N  N49  1  0.11458457  0.42892653  0.08003281  1
  N  N50  1  0.88247729  0.54079196  0.87991180  1
  N  N51  1  0.77467990  0.44039770  0.62611693  1
  N  N52  1  0.55992725  0.53337970  0.37569712  1
  N  N53  1  0.45067805  0.42110095  0.13325290  1
  N  N54  1  0.21472068  0.54520299  0.82484698  1
  N  N55  1  0.11901706  0.42074590  0.57685479  1
  N  N56  1  0.88459946  0.54442791  0.37644359  1
  N  N57  1  0.79573584  0.39787790  0.13091858  1
  N  N58  1  0.55721038  0.53531244  0.88560871  1
  N  N59  1  0.45335766  0.41975296  0.62761561  1
  N  N60  1  0.21714490  0.87541769  0.32938661  1
  N  N61  1  0.12554568  0.75538633  0.08138118  1
  N  N62  1  0.88247272  0.87803059  0.89596912  1
  N  N63  1  0.79494689  0.77295128  0.63444573  1
  N  N64  1  0.55981170  0.87476624  0.38536565  1
  N  N65  1  0.45047834  0.77683158  0.08904250  1
  N  N66  1  0.21931601  0.87484727  0.83225736  1
  N  N67  1  0.07796644  0.77769566  0.58236331  1
  N  N68  1  0.88984092  0.87023929  0.31237563  1
  N  N69  1  0.74602494  0.76772731  0.11916915  1
  N  N70  1  0.56034983  0.87745182  0.89879087  1
  N  N71  1  0.43895765  0.76222270  0.58532285  1
