# generated using pymatgen
data_Al11BN12
_symmetry_space_group_name_H-M   'P 1'
_cell_length_a   9.28505274
_cell_length_b   9.31514803
_cell_length_c   10.10264935
_cell_angle_alpha   90.01536130
_cell_angle_beta   89.43149724
_cell_angle_gamma   59.82349483
_symmetry_Int_Tables_number   1
_chemical_formula_structural   Al11BN12
_chemical_formula_sum   'Al33 B3 N36'
_cell_volume   755.32778648
_cell_formula_units_Z   3
loop_
 _symmetry_equiv_pos_site_id
 _symmetry_equiv_pos_as_xyz
  1  'x, y, z'
loop_
 _atom_site_type_symbol
 _atom_site_label
 _atom_site_symmetry_multiplicity
 _atom_site_fract_x
 _atom_site_fract_y
 _atom_site_fract_z
 _atom_site_occupancy
  Al  Al0  1  0.11745801  0.09098246  0.39636338  1
  Al  Al1  1  0.21625014  0.20367217  0.12987067  1
  Al  Al2  1  0.78127339  0.08553539  0.82069221  1
  Al  Al3  1  0.88974744  0.20199372  0.60028690  1
  Al  Al4  1  0.45583588  0.08371718  0.31379177  1
  Al  Al5  1  0.56269360  0.20473432  0.06830403  1
  Al  Al6  1  0.09638302  0.10008473  0.88987221  1
  Al  Al7  1  0.22137743  0.20260640  0.64726239  1
  Al  Al8  1  0.78302704  0.09768988  0.32060975  1
  Al  Al9  1  0.45206483  0.08779101  0.83444547  1
  Al  Al10  1  0.56004308  0.19473594  0.56921884  1
  Al  Al11  1  0.11176249  0.42551550  0.35409865  1
  Al  Al12  1  0.21977451  0.54433899  0.14339536  1
  Al  Al13  1  0.77521789  0.43181096  0.81183504  1
  Al  Al14  1  0.88941183  0.54672016  0.56861728  1
  Al  Al15  1  0.45243957  0.42340181  0.32476571  1
  Al  Al16  1  0.55952729  0.53715844  0.07183702  1
  Al  Al17  1  0.11073559  0.42994641  0.86326982  1
  Al  Al18  1  0.21299107  0.54530726  0.63542329  1
  Al  Al19  1  0.78299360  0.42018744  0.32690959  1
  Al  Al20  1  0.88105855  0.53726285  0.06960303  1
  Al  Al21  1  0.45278701  0.42478911  0.81881765  1
  Al  Al22  1  0.55519525  0.54292614  0.56699266  1
  Al  Al23  1  0.09950204  0.76857067  0.38729721  1
  Al  Al24  1  0.21237549  0.88293160  0.13984274  1
  Al  Al25  1  0.77857439  0.76510150  0.83369257  1
  Al  Al26  1  0.45154302  0.76201209  0.31750507  1
  Al  Al27  1  0.11358427  0.76037179  0.89824730  1
  Al  Al28  1  0.21085588  0.87648894  0.64607330  1
  Al  Al29  1  0.77074026  0.76168956  0.30936537  1
  Al  Al30  1  0.88428883  0.87767568  0.10022964  1
  Al  Al31  1  0.44829770  0.76073372  0.83062544  1
  Al  Al32  1  0.55949784  0.87334452  0.57436759  1
  B  B33  1  0.88466232  0.21035309  0.10873556  1
  B  B34  1  0.88593280  0.87098769  0.61054681  1
  B  B35  1  0.55810208  0.86729711  0.06656128  1
  N  N36  1  0.22152082  0.20000219  0.32218579  1
  N  N37  1  0.07544065  0.11279005  0.08288199  1
  N  N38  1  0.88802530  0.20485250  0.81890507  1
  N  N39  1  0.79154682  0.05664035  0.62462700  1
  N  N40  1  0.55724291  0.20067320  0.37991491  1
  N  N41  1  0.46522291  0.06636545  0.11979033  1
  N  N42  1  0.21832995  0.20311569  0.84297968  1
  N  N43  1  0.12458696  0.08755497  0.58200434  1
  N  N44  1  0.88334082  0.20671796  0.39482544  1
  N  N45  1  0.79066176  0.11916421  0.12535735  1
  N  N46  1  0.55738305  0.20661098  0.88175112  1
  N  N47  1  0.45421662  0.08773314  0.64165202  1
  N  N48  1  0.21986065  0.54417858  0.33808547  1
  N  N49  1  0.10956691  0.43183792  0.10127081  1
  N  N50  1  0.88160807  0.54064069  0.88063114  1
  N  N51  1  0.77398178  0.44088905  0.62459054  1
  N  N52  1  0.55543384  0.54208614  0.37793385  1
  N  N53  1  0.45230399  0.42360224  0.13342639  1
  N  N54  1  0.21840877  0.54650666  0.82774617  1
  N  N55  1  0.11364637  0.42283659  0.60114542  1
  N  N56  1  0.88286153  0.54447448  0.37702661  1
  N  N57  1  0.79328401  0.39920782  0.13072288  1
  N  N58  1  0.55638199  0.53807740  0.88475976  1
  N  N59  1  0.45454966  0.42181940  0.62632495  1
  N  N60  1  0.21728600  0.87416107  0.32977710  1
  N  N61  1  0.12229896  0.75742653  0.08291315  1
  N  N62  1  0.88091233  0.87740252  0.89676769  1
  N  N63  1  0.79439201  0.77360049  0.63417184  1
  N  N64  1  0.55636513  0.87170089  0.38752361  1
  N  N65  1  0.45770158  0.77404272  0.12292726  1
  N  N66  1  0.21335057  0.87719604  0.83545442  1
  N  N67  1  0.07782612  0.77796865  0.58309871  1
  N  N68  1  0.88947069  0.87005617  0.31523246  1
  N  N69  1  0.74700361  0.76659807  0.12020395  1
  N  N70  1  0.55507402  0.87022108  0.90253281  1
  N  N71  1  0.45004042  0.75947692  0.63677187  1
