# generated using pymatgen
data_Al11BN12
_symmetry_space_group_name_H-M   'P 1'
_cell_length_a   9.25607402
_cell_length_b   9.25577527
_cell_length_c   9.89710101
_cell_angle_alpha   89.97050101
_cell_angle_beta   89.96780828
_cell_angle_gamma   60.01828733
_symmetry_Int_Tables_number   1
_chemical_formula_structural   Al11BN12
_chemical_formula_sum   'Al33 B3 N36'
_cell_volume   734.44312655
_cell_formula_units_Z   3
loop_
 _symmetry_equiv_pos_site_id
 _symmetry_equiv_pos_as_xyz
  1  'x, y, z'
loop_
 _atom_site_type_symbol
 _atom_site_label
 _atom_site_symmetry_multiplicity
 _atom_site_fract_x
 _atom_site_fract_y
 _atom_site_fract_z
 _atom_site_occupancy
  Al  Al0  1  0.10602739  0.09678420  0.29698001  1
  Al  Al1  1  0.21984761  0.20267681  0.05135823  1
  Al  Al2  1  0.78177800  0.09066016  0.80330341  1
  Al  Al3  1  0.89050370  0.20000133  0.55287745  1
  Al  Al4  1  0.44732882  0.08864865  0.29656756  1
  Al  Al5  1  0.56251782  0.20196638  0.05115530  1
  Al  Al6  1  0.10836779  0.09554156  0.80796383  1
  Al  Al7  1  0.22323785  0.20333439  0.55169527  1
  Al  Al8  1  0.78159250  0.09411725  0.30357496  1
  Al  Al9  1  0.44583416  0.09215380  0.80851478  1
  Al  Al10  1  0.56023664  0.19827615  0.55150024  1
  Al  Al11  1  0.11110387  0.42769896  0.30106388  1
  Al  Al12  1  0.22071143  0.54103666  0.05052133  1
  Al  Al13  1  0.77903811  0.42483600  0.80763197  1
  Al  Al14  1  0.88884914  0.54288256  0.55164238  1
  Al  Al15  1  0.44431375  0.42752115  0.30155737  1
  Al  Al16  1  0.56073870  0.53680308  0.05144280  1
  Al  Al17  1  0.11061637  0.42784398  0.80101652  1
  Al  Al18  1  0.21725068  0.54218080  0.55134866  1
  Al  Al19  1  0.78069247  0.42245552  0.29718287  1
  Al  Al20  1  0.88458830  0.53899773  0.05127254  1
  Al  Al21  1  0.44476748  0.42789319  0.80070607  1
  Al  Al22  1  0.55692973  0.53937458  0.55115266  1
  Al  Al23  1  0.10824781  0.76263259  0.30855278  1
  Al  Al24  1  0.21863965  0.87673448  0.05168338  1
  Al  Al25  1  0.77780126  0.76504474  0.80403750  1
  Al  Al26  1  0.44724597  0.76415581  0.29725805  1
  Al  Al27  1  0.10544319  0.76420909  0.79691655  1
  Al  Al28  1  0.21850774  0.87457032  0.55200138  1
  Al  Al29  1  0.77389045  0.76523367  0.30368914  1
  Al  Al30  1  0.88509053  0.87794896  0.05285306  1
  Al  Al31  1  0.44577073  0.76221191  0.80866649  1
  Al  Al32  1  0.55974393  0.87349862  0.55320378  1
  B  B33  1  0.88884719  0.20464392  0.04890411  1
  B  B34  1  0.88808333  0.87313461  0.54999079  1
  B  B35  1  0.55616203  0.87279762  0.04829640  1
  N  N36  1  0.22353676  0.20303843  0.35707624  1
  N  N37  1  0.08534382  0.10698746  0.10318007  1
  N  N38  1  0.88801073  0.20431395  0.88092300  1
  N  N39  1  0.79096156  0.06971153  0.60689659  1
  N  N40  1  0.55620490  0.20301147  0.35789647  1
  N  N41  1  0.45689363  0.07002279  0.10224712  1
  N  N42  1  0.22166100  0.20624969  0.86179880  1
  N  N43  1  0.11002760  0.09510576  0.61556397  1
  N  N44  1  0.88938521  0.20567688  0.36475072  1
  N  N45  1  0.79102128  0.10597028  0.10782313  1
  N  N46  1  0.55793505  0.20528640  0.85985820  1
  N  N47  1  0.44470719  0.09311412  0.61572727  1
  N  N48  1  0.22233100  0.53828140  0.36124232  1
  N  N49  1  0.11051706  0.42830821  0.10975254  1
  N  N50  1  0.88782676  0.54089829  0.85995246  1
  N  N51  1  0.77934431  0.42520145  0.61424593  1
  N  N52  1  0.55677369  0.54002594  0.35707482  1
  N  N53  1  0.44379146  0.42789124  0.10993763  1
  N  N54  1  0.22097865  0.54131850  0.85786478  1
  N  N55  1  0.11111785  0.42643845  0.60965952  1
  N  N56  1  0.88697995  0.53968165  0.35804588  1
  N  N57  1  0.79082707  0.40217119  0.10323193  1
  N  N58  1  0.55549129  0.53837418  0.86167431  1
  N  N59  1  0.44503620  0.42684661  0.60842047  1
  N  N60  1  0.22370562  0.87363081  0.35852633  1
  N  N61  1  0.10837527  0.76232269  0.11577827  1
  N  N62  1  0.88949798  0.87213821  0.86516221  1
  N  N63  1  0.78951579  0.77390100  0.60730920  1
  N  N64  1  0.55504741  0.87263549  0.36501118  1
  N  N65  1  0.45631118  0.77399485  0.10271466  1
  N  N66  1  0.22065182  0.87067990  0.86050770  1
  N  N67  1  0.08600136  0.77418961  0.60230795  1
  N  N68  1  0.88678683  0.87343073  0.38011203  1
  N  N69  1  0.75366811  0.77478977  0.10723640  1
  N  N70  1  0.55757502  0.87148919  0.88109081  1
  N  N71  1  0.44563669  0.76207089  0.61475943  1
