# generated using pymatgen
data_Al11BN12
_symmetry_space_group_name_H-M   'P 1'
_cell_length_a   9.29708649
_cell_length_b   9.27633583
_cell_length_c   10.14071477
_cell_angle_alpha   90.14464464
_cell_angle_beta   89.65284073
_cell_angle_gamma   59.86737679
_symmetry_Int_Tables_number   1
_chemical_formula_structural   Al11BN12
_chemical_formula_sum   'Al33 B3 N36'
_cell_volume   756.35141300
_cell_formula_units_Z   3
loop_
 _symmetry_equiv_pos_site_id
 _symmetry_equiv_pos_as_xyz
  1  'x, y, z'
loop_
 _atom_site_type_symbol
 _atom_site_label
 _atom_site_symmetry_multiplicity
 _atom_site_fract_x
 _atom_site_fract_y
 _atom_site_fract_z
 _atom_site_occupancy
  Al  Al0  1  0.11571189  0.09425242  0.39427822  1
  Al  Al1  1  0.21193278  0.20616383  0.13331164  1
  Al  Al2  1  0.78283619  0.08027792  0.81436464  1
  Al  Al3  1  0.89008413  0.20302267  0.60586442  1
  Al  Al4  1  0.45544639  0.08056363  0.31920615  1
  Al  Al5  1  0.56488745  0.19989672  0.06464893  1
  Al  Al6  1  0.10067435  0.09853235  0.88176290  1
  Al  Al7  1  0.21530299  0.21203336  0.64123738  1
  Al  Al8  1  0.78418222  0.10134217  0.31324414  1
  Al  Al9  1  0.45090774  0.09062581  0.81366487  1
  Al  Al10  1  0.56181782  0.19663722  0.56105415  1
  Al  Al11  1  0.11118595  0.42596204  0.38861631  1
  Al  Al12  1  0.21798084  0.54028482  0.14251737  1
  Al  Al13  1  0.78048924  0.42134911  0.88097443  1
  Al  Al14  1  0.89097377  0.54855540  0.64327823  1
  Al  Al15  1  0.44916969  0.42251476  0.32593075  1
  Al  Al16  1  0.56332408  0.53801914  0.13381857  1
  Al  Al17  1  0.10968303  0.43005775  0.89054588  1
  Al  Al18  1  0.21335952  0.54532082  0.63314323  1
  Al  Al19  1  0.77578932  0.43345430  0.39580040  1
  Al  Al20  1  0.88258538  0.53567876  0.14048401  1
  Al  Al21  1  0.44583328  0.42026102  0.82431659  1
  Al  Al22  1  0.55693116  0.54396294  0.64377355  1
  Al  Al23  1  0.10214506  0.76937972  0.38118067  1
  Al  Al24  1  0.21928698  0.88029075  0.14011234  1
  Al  Al25  1  0.76929890  0.76280228  0.89060132  1
  Al  Al26  1  0.44132332  0.75934007  0.39436833  1
  Al  Al27  1  0.11445558  0.75874305  0.89605629  1
  Al  Al28  1  0.21349620  0.87527978  0.64238346  1
  Al  Al29  1  0.78404222  0.76360929  0.38384428  1
  Al  Al30  1  0.88814097  0.87655432  0.10490987  1
  Al  Al31  1  0.44440572  0.76695839  0.88408575  1
  Al  Al32  1  0.55783964  0.87330503  0.60182367  1
  B  B33  1  0.88597730  0.20890223  0.09558493  1
  B  B34  1  0.88985428  0.87056123  0.59648253  1
  B  B35  1  0.55450377  0.86908135  0.09923428  1
  N  N36  1  0.22012377  0.20632188  0.32132176  1
  N  N37  1  0.07778051  0.11069661  0.07755823  1
  N  N38  1  0.88720822  0.20704273  0.81165974  1
  N  N39  1  0.79178145  0.05648697  0.62102678  1
  N  N40  1  0.56091658  0.19938442  0.37302493  1
  N  N41  1  0.46542505  0.05876453  0.12080345  1
  N  N42  1  0.21715753  0.20752032  0.83458924  1
  N  N43  1  0.12213831  0.09087731  0.58099490  1
  N  N44  1  0.88639626  0.20413836  0.38823097  1
  N  N45  1  0.79169157  0.11949149  0.12053324  1
  N  N46  1  0.55979722  0.19924875  0.87906322  1
  N  N47  1  0.44321401  0.10357020  0.62500713  1
  N  N48  1  0.21730974  0.54244473  0.33383281  1
  N  N49  1  0.10740439  0.43170268  0.07837782  1
  N  N50  1  0.88866332  0.54021591  0.83178164  1
  N  N51  1  0.77399471  0.44478070  0.58345931  1
  N  N52  1  0.56096983  0.54257097  0.32390820  1
  N  N53  1  0.44727497  0.42018790  0.12243926  1
  N  N54  1  0.21394523  0.54337488  0.82464595  1
  N  N55  1  0.10940372  0.42878595  0.57613984  1
  N  N56  1  0.88915398  0.53830773  0.32696163  1
  N  N57  1  0.79323471  0.39876385  0.07620923  1
  N  N58  1  0.55541798  0.54125674  0.83680830  1
  N  N59  1  0.45084226  0.42030467  0.62099959  1
  N  N60  1  0.22233473  0.87457244  0.32684007  1
  N  N61  1  0.12610581  0.75527739  0.08212032  1
  N  N62  1  0.88465689  0.87615184  0.89520960  1
  N  N63  1  0.80291253  0.77222274  0.58019703  1
  N  N64  1  0.55621716  0.87271913  0.38941149  1
  N  N65  1  0.45388098  0.77983085  0.07957881  1
  N  N66  1  0.21936291  0.87267006  0.83099669  1
  N  N67  1  0.08098398  0.77947573  0.57749447  1
  N  N68  1  0.88914757  0.86919371  0.30789670  1
  N  N69  1  0.74139978  0.76774082  0.08525948  1
  N  N70  1  0.56203040  0.86143431  0.81464496  1
  N  N71  1  0.43299581  0.75758931  0.58175523  1
