# generated using pymatgen
data_Al17BN18
_symmetry_space_group_name_H-M   'P 1'
_cell_length_a   9.32861865
_cell_length_b   9.31943285
_cell_length_c   10.06785805
_cell_angle_alpha   90.01949337
_cell_angle_beta   89.99938153
_cell_angle_gamma   60.17690647
_symmetry_Int_Tables_number   1
_chemical_formula_structural   Al17BN18
_chemical_formula_sum   'Al34 B2 N36'
_cell_volume   759.35688000
_cell_formula_units_Z   2
loop_
 _symmetry_equiv_pos_site_id
 _symmetry_equiv_pos_as_xyz
  1  'x, y, z'
loop_
 _atom_site_type_symbol
 _atom_site_label
 _atom_site_symmetry_multiplicity
 _atom_site_fract_x
 _atom_site_fract_y
 _atom_site_fract_z
 _atom_site_occupancy
  Al  Al0  1  0.10368333  0.10343499  0.40557813  1
  Al  Al1  1  0.22115594  0.20320390  0.14859980  1
  Al  Al2  1  0.77752800  0.09590483  0.89537924  1
  Al  Al3  1  0.44516912  0.09412189  0.40074790  1
  Al  Al4  1  0.55666414  0.20842461  0.14919079  1
  Al  Al5  1  0.11148579  0.09630459  0.88647824  1
  Al  Al6  1  0.21664007  0.20689851  0.64991114  1
  Al  Al7  1  0.77974522  0.09863592  0.40349784  1
  Al  Al8  1  0.88997884  0.20615014  0.14557978  1
  Al  Al9  1  0.44275282  0.08914407  0.90032413  1
  Al  Al10  1  0.55958523  0.20397951  0.65184606  1
  Al  Al11  1  0.11167468  0.42797307  0.39797878  1
  Al  Al12  1  0.22659618  0.53492348  0.14742390  1
  Al  Al13  1  0.77963053  0.42816740  0.88490243  1
  Al  Al14  1  0.89165245  0.53328583  0.65021948  1
  Al  Al15  1  0.44357518  0.42575487  0.40312800  1
  Al  Al16  1  0.55261435  0.55173049  0.07379267  1
  Al  Al17  1  0.11033901  0.42716501  0.90237513  1
  Al  Al18  1  0.22286950  0.53096188  0.64957258  1
  Al  Al19  1  0.78664463  0.42088784  0.40529718  1
  Al  Al20  1  0.88813582  0.53784444  0.14892961  1
  Al  Al21  1  0.44029396  0.42858941  0.89434862  1
  Al  Al22  1  0.55744130  0.53677639  0.59699034  1
  Al  Al23  1  0.11445849  0.76596857  0.34119912  1
  Al  Al24  1  0.23120454  0.86527548  0.07241473  1
  Al  Al25  1  0.77250464  0.75953917  0.90075904  1
  Al  Al26  1  0.88177875  0.87972391  0.64916074  1
  Al  Al27  1  0.44362005  0.75825860  0.33392062  1
  Al  Al28  1  0.55864676  0.87689661  0.15048665  1
  Al  Al29  1  0.11645834  0.76199417  0.83505340  1
  Al  Al30  1  0.21904290  0.87114973  0.59167784  1
  Al  Al31  1  0.77708181  0.76164226  0.40141122  1
  Al  Al32  1  0.88475134  0.87712496  0.14730415  1
  Al  Al33  1  0.55478713  0.87211541  0.65563799  1
  B  B34  1  0.88984612  0.20598215  0.65423727  1
  B  B35  1  0.44175221  0.75669141  0.82136582  1
  N  N36  1  0.22202362  0.20392714  0.34001970  1
  N  N37  1  0.10785418  0.09859260  0.07979043  1
  N  N38  1  0.88836343  0.20384965  0.81759105  1
  N  N39  1  0.78830284  0.10759303  0.59562692  1
  N  N40  1  0.55753934  0.20645142  0.34060739  1
  N  N41  1  0.44393422  0.09637344  0.08996665  1
  N  N42  1  0.22289824  0.20726384  0.83755369  1
  N  N43  1  0.08272311  0.11095801  0.60046883  1
  N  N44  1  0.88992832  0.20611372  0.33447594  1
  N  N45  1  0.77736810  0.09730712  0.08550898  1
  N  N46  1  0.55504823  0.20324806  0.83991231  1
  N  N47  1  0.44344027  0.09186708  0.59107293  1
  N  N48  1  0.22672226  0.53424572  0.33994569  1
  N  N49  1  0.11119794  0.42719049  0.09132650  1
  N  N50  1  0.89139808  0.53968863  0.83770934  1
  N  N51  1  0.79539005  0.39898587  0.60174415  1
  N  N52  1  0.55706582  0.54527977  0.40039139  1
  N  N53  1  0.44507443  0.42700142  0.08609159  1
  N  N54  1  0.22250030  0.53218464  0.84053198  1
  N  N55  1  0.11003438  0.42633270  0.58636864  1
  N  N56  1  0.88858355  0.53861967  0.34010480  1
  N  N57  1  0.78324703  0.42458834  0.08005267  1
  N  N58  1  0.54124028  0.56722917  0.87614010  1
  N  N59  1  0.44099450  0.42137476  0.59407264  1
  N  N60  1  0.22786857  0.87090674  0.40061492  1
  N  N61  1  0.11373096  0.76514704  0.13126571  1
  N  N62  1  0.88149448  0.87471724  0.84170086  1
  N  N63  1  0.77470759  0.75958806  0.59104804  1
  N  N64  1  0.55911762  0.87615242  0.34170730  1
  N  N65  1  0.44197952  0.76057073  0.14504498  1
  N  N66  1  0.25085229  0.85632245  0.87905116  1
  N  N67  1  0.10939945  0.76029631  0.63504088  1
  N  N68  1  0.88357272  0.87761152  0.34301790  1
  N  N69  1  0.77823882  0.76049885  0.08993079  1
  N  N70  1  0.54563894  0.86221676  0.84589182  1
  N  N71  1  0.43767089  0.75582413  0.66058065  1
