# generated using pymatgen
data_Al17BN18
_symmetry_space_group_name_H-M   'P 1'
_cell_length_a   9.33242757
_cell_length_b   9.33218745
_cell_length_c   10.13655681
_cell_angle_alpha   90.06103048
_cell_angle_beta   90.07089262
_cell_angle_gamma   60.14708324
_symmetry_Int_Tables_number   1
_chemical_formula_structural   Al17BN18
_chemical_formula_sum   'Al34 B2 N36'
_cell_volume   765.66808816
_cell_formula_units_Z   2
loop_
 _symmetry_equiv_pos_site_id
 _symmetry_equiv_pos_as_xyz
  1  'x, y, z'
loop_
 _atom_site_type_symbol
 _atom_site_label
 _atom_site_symmetry_multiplicity
 _atom_site_fract_x
 _atom_site_fract_y
 _atom_site_fract_z
 _atom_site_occupancy
  Al  Al0  1  0.10137623  0.10109310  0.39524713  1
  Al  Al1  1  0.22195085  0.20157229  0.13763682  1
  Al  Al2  1  0.77853555  0.09493366  0.81124193  1
  Al  Al3  1  0.43733739  0.09701426  0.39162501  1
  Al  Al4  1  0.55841374  0.20813449  0.06589132  1
  Al  Al5  1  0.11294185  0.09506845  0.87770830  1
  Al  Al6  1  0.21478617  0.21028315  0.63958851  1
  Al  Al7  1  0.77373307  0.09063560  0.31863741  1
  Al  Al8  1  0.89121834  0.20804393  0.13515230  1
  Al  Al9  1  0.43890402  0.09329163  0.87740944  1
  Al  Al10  1  0.56276559  0.21162538  0.57176820  1
  Al  Al11  1  0.10822560  0.42507319  0.38330033  1
  Al  Al12  1  0.22429645  0.54097914  0.07377969  1
  Al  Al13  1  0.77847404  0.42953858  0.87766245  1
  Al  Al14  1  0.89365385  0.53152808  0.63963758  1
  Al  Al15  1  0.44741959  0.42928176  0.31940201  1
  Al  Al16  1  0.54798339  0.54583046  0.06304474  1
  Al  Al17  1  0.10842118  0.42497961  0.89161700  1
  Al  Al18  1  0.22484281  0.54144472  0.56624697  1
  Al  Al19  1  0.78434418  0.41820572  0.39525754  1
  Al  Al20  1  0.88476641  0.53877000  0.13768027  1
  Al  Al21  1  0.44112296  0.43505079  0.81818560  1
  Al  Al22  1  0.55466678  0.53855672  0.58124208  1
  Al  Al23  1  0.11255061  0.76415561  0.31939346  1
  Al  Al24  1  0.22911033  0.86466563  0.06307658  1
  Al  Al25  1  0.77680723  0.75533071  0.87819567  1
  Al  Al26  1  0.89505949  0.87933519  0.57158122  1
  Al  Al27  1  0.44397334  0.76077142  0.32328800  1
  Al  Al28  1  0.54940784  0.86645366  0.06732831  1
  Al  Al29  1  0.11844933  0.75768381  0.81823224  1
  Al  Al30  1  0.22194795  0.87126576  0.58123918  1
  Al  Al31  1  0.78018309  0.75416525  0.39154087  1
  Al  Al32  1  0.89142681  0.87528952  0.06612222  1
  Al  Al33  1  0.55216842  0.86867126  0.58571686  1
  B  B34  1  0.89337320  0.20995871  0.64614190  1
  B  B35  1  0.44373530  0.76024728  0.81515781  1
  N  N36  1  0.22044064  0.20228212  0.32704089  1
  N  N37  1  0.10696205  0.09674238  0.06884402  1
  N  N38  1  0.89530577  0.21188169  0.80774018  1
  N  N39  1  0.78846680  0.10495989  0.62338248  1
  N  N40  1  0.55686660  0.20992670  0.38087406  1
  N  N41  1  0.43852681  0.09585136  0.07430597  1
  N  N42  1  0.21997895  0.20974792  0.82472404  1
  N  N43  1  0.08304160  0.11076624  0.58854401  1
  N  N44  1  0.89094264  0.20780419  0.32314119  1
  N  N45  1  0.77405579  0.09097595  0.12800770  1
  N  N46  1  0.56039892  0.21030583  0.87424080  1
  N  N47  1  0.43852836  0.09959440  0.58830054  1
  N  N48  1  0.22511730  0.54184733  0.37474971  1
  N  N49  1  0.10744449  0.42429649  0.08266233  1
  N  N50  1  0.89311365  0.53670120  0.82479887  1
  N  N51  1  0.79417047  0.39969697  0.58857736  1
  N  N52  1  0.55214428  0.54262846  0.38890135  1
  N  N53  1  0.44718204  0.42815512  0.12995808  1
  N  N54  1  0.22453834  0.54104077  0.88295733  1
  N  N55  1  0.10873741  0.42538688  0.57364012  1
  N  N56  1  0.88545270  0.53728415  0.32698648  1
  N  N57  1  0.78004131  0.42376393  0.06879928  1
  N  N58  1  0.53926783  0.56652448  0.86955909  1
  N  N59  1  0.44157181  0.42960006  0.63224832  1
  N  N60  1  0.22586089  0.86889067  0.38888869  1
  N  N61  1  0.11149210  0.76384578  0.12999172  1
  N  N62  1  0.89380023  0.87688319  0.87447592  1
  N  N63  1  0.78308999  0.75499486  0.58780497  1
  N  N64  1  0.55176411  0.86866151  0.38416821  1
  N  N65  1  0.44281314  0.75953007  0.13562180  1
  N  N66  1  0.24994265  0.85585656  0.86959228  1
  N  N67  1  0.11297922  0.75816522  0.63225995  1
  N  N68  1  0.89316305  0.87367598  0.38068289  1
  N  N69  1  0.77892886  0.75549519  0.07454711  1
  N  N70  1  0.54042660  0.85689768  0.86676893  1
  N  N71  1  0.44318409  0.75976143  0.65297545  1
