# generated using pymatgen
data_Al17BN18
_symmetry_space_group_name_H-M   'P 1'
_cell_length_a   9.32719728
_cell_length_b   9.32483280
_cell_length_c   10.02056529
_cell_angle_alpha   89.74510656
_cell_angle_beta   89.86982833
_cell_angle_gamma   60.08008989
_symmetry_Int_Tables_number   1
_chemical_formula_structural   Al17BN18
_chemical_formula_sum   'Al34 B2 N36'
_cell_volume   755.37168005
_cell_formula_units_Z   2
loop_
 _symmetry_equiv_pos_site_id
 _symmetry_equiv_pos_as_xyz
  1  'x, y, z'
loop_
 _atom_site_type_symbol
 _atom_site_label
 _atom_site_symmetry_multiplicity
 _atom_site_fract_x
 _atom_site_fract_y
 _atom_site_fract_z
 _atom_site_occupancy
  Al  Al0  1  0.11401094  0.09142558  0.31615644  1
  Al  Al1  1  0.22572650  0.20663042  0.06011941  1
  Al  Al2  1  0.78074991  0.09721623  0.80946021  1
  Al  Al3  1  0.44580319  0.09310587  0.30972760  1
  Al  Al4  1  0.55571833  0.20468266  0.05532839  1
  Al  Al5  1  0.11271550  0.09226760  0.84402349  1
  Al  Al6  1  0.21497989  0.20763557  0.55970075  1
  Al  Al7  1  0.77509312  0.09165525  0.30373869  1
  Al  Al8  1  0.88668911  0.20780009  0.10027052  1
  Al  Al9  1  0.44366754  0.09022340  0.80703279  1
  Al  Al10  1  0.55964300  0.20801501  0.55919798  1
  Al  Al11  1  0.11032234  0.42804033  0.30959453  1
  Al  Al12  1  0.22176677  0.53891206  0.05952684  1
  Al  Al13  1  0.77531868  0.42981204  0.87339234  1
  Al  Al14  1  0.89389345  0.53550317  0.56334233  1
  Al  Al15  1  0.44589870  0.42821703  0.30949057  1
  Al  Al16  1  0.54476275  0.54853484  0.05686751  1
  Al  Al17  1  0.11255357  0.42859647  0.80793195  1
  Al  Al18  1  0.22273475  0.53904504  0.55740489  1
  Al  Al19  1  0.78175112  0.41692483  0.37156325  1
  Al  Al20  1  0.89063755  0.54365682  0.05987759  1
  Al  Al21  1  0.44202895  0.43310138  0.80860653  1
  Al  Al22  1  0.55423408  0.53740536  0.57113398  1
  Al  Al23  1  0.11135566  0.76185617  0.30923876  1
  Al  Al24  1  0.22982878  0.86492308  0.05652011  1
  Al  Al25  1  0.77321471  0.76095007  0.80706796  1
  Al  Al26  1  0.89147352  0.87690489  0.55875257  1
  Al  Al27  1  0.44560368  0.75985755  0.31234732  1
  Al  Al28  1  0.55296270  0.86957617  0.05574052  1
  Al  Al29  1  0.11599024  0.75912733  0.80827133  1
  Al  Al30  1  0.21645073  0.87694253  0.56678097  1
  Al  Al31  1  0.77638222  0.76104927  0.30986626  1
  Al  Al32  1  0.88786472  0.87268227  0.05524596  1
  Al  Al33  1  0.55363615  0.87163439  0.56392542  1
  B  B34  1  0.89217592  0.20434605  0.59895878  1
  B  B35  1  0.44368808  0.76062358  0.80515943  1
  N  N36  1  0.22322227  0.20559785  0.36859795  1
  N  N37  1  0.12037652  0.08754552  0.10264757  1
  N  N38  1  0.88929571  0.20240820  0.86879793  1
  N  N39  1  0.79261829  0.10893039  0.61375324  1
  N  N40  1  0.55634865  0.20551557  0.36951729  1
  N  N41  1  0.44672108  0.09223532  0.11784593  1
  N  N42  1  0.22485598  0.20832968  0.86872630  1
  N  N43  1  0.07946955  0.11005985  0.60228466  1
  N  N44  1  0.88784483  0.20787544  0.30775923  1
  N  N45  1  0.77218266  0.08896192  0.11431747  1
  N  N46  1  0.55557967  0.20553245  0.86423931  1
  N  N47  1  0.44345791  0.09547855  0.61741136  1
  N  N48  1  0.22260613  0.53871758  0.36749793  1
  N  N49  1  0.11093313  0.42793453  0.12015519  1
  N  N50  1  0.89342621  0.54261094  0.86546008  1
  N  N51  1  0.79548607  0.39262640  0.57849317  1
  N  N52  1  0.55058647  0.54219691  0.37720109  1
  N  N53  1  0.44468805  0.42761579  0.11764391  1
  N  N54  1  0.22233993  0.53894464  0.87007240  1
  N  N55  1  0.11348694  0.42749699  0.61910439  1
  N  N56  1  0.89006269  0.54067794  0.37107999  1
  N  N57  1  0.77078326  0.43551555  0.07314148  1
  N  N58  1  0.53770309  0.56723819  0.85832305  1
  N  N59  1  0.44233985  0.42716908  0.62037774  1
  N  N60  1  0.22455410  0.86968817  0.37420044  1
  N  N61  1  0.11085749  0.76170696  0.11722898  1
  N  N62  1  0.88874326  0.87233934  0.86426572  1
  N  N63  1  0.77769928  0.76245538  0.61777496  1
  N  N64  1  0.55482016  0.87135892  0.37286678  1
  N  N65  1  0.44417053  0.76130778  0.12446901  1
  N  N66  1  0.24831921  0.85726893  0.86114622  1
  N  N67  1  0.11132615  0.75929648  0.61934763  1
  N  N68  1  0.88882404  0.87249704  0.36911009  1
  N  N69  1  0.77554198  0.76329942  0.11805299  1
  N  N70  1  0.54291478  0.85982145  0.86181144  1
  N  N71  1  0.44281366  0.76272903  0.63984660  1
