# generated using pymatgen
data_Al17BN18
_symmetry_space_group_name_H-M   'P 1'
_cell_length_a   9.32084838
_cell_length_b   9.32092850
_cell_length_c   10.06123860
_cell_angle_alpha   89.79398313
_cell_angle_beta   89.76639724
_cell_angle_gamma   60.10149777
_symmetry_Int_Tables_number   1
_chemical_formula_structural   Al17BN18
_chemical_formula_sum   'Al34 B2 N36'
_cell_volume   757.76694183
_cell_formula_units_Z   2
loop_
 _symmetry_equiv_pos_site_id
 _symmetry_equiv_pos_as_xyz
  1  'x, y, z'
loop_
 _atom_site_type_symbol
 _atom_site_label
 _atom_site_symmetry_multiplicity
 _atom_site_fract_x
 _atom_site_fract_y
 _atom_site_fract_z
 _atom_site_occupancy
  Al  Al0  1  0.10287633  0.10417150  0.40256877  1
  Al  Al1  1  0.22143077  0.20471964  0.14857646  1
  Al  Al2  1  0.77868914  0.09564406  0.89406476  1
  Al  Al3  1  0.44505900  0.09360969  0.40231736  1
  Al  Al4  1  0.55708407  0.20574203  0.14836430  1
  Al  Al5  1  0.11254607  0.09571954  0.88654388  1
  Al  Al6  1  0.21691641  0.20777329  0.64932995  1
  Al  Al7  1  0.78040502  0.09699933  0.40259730  1
  Al  Al8  1  0.88939163  0.20524097  0.14573312  1
  Al  Al9  1  0.44254620  0.08950209  0.89958004  1
  Al  Al10  1  0.55974552  0.20548203  0.65089050  1
  Al  Al11  1  0.11145928  0.42815310  0.39834035  1
  Al  Al12  1  0.22281466  0.53974602  0.14815171  1
  Al  Al13  1  0.77853431  0.42969282  0.88758077  1
  Al  Al14  1  0.89085298  0.53357606  0.64937744  1
  Al  Al15  1  0.44238141  0.42401946  0.39886572  1
  Al  Al16  1  0.55291477  0.54879916  0.08329016  1
  Al  Al17  1  0.11081222  0.42739616  0.90070884  1
  Al  Al18  1  0.22080959  0.53725312  0.64992598  1
  Al  Al19  1  0.78752920  0.41952429  0.40194774  1
  Al  Al20  1  0.88841269  0.53803609  0.14876433  1
  Al  Al21  1  0.44030098  0.43108539  0.89505189  1
  Al  Al22  1  0.55692863  0.53744540  0.58799103  1
  Al  Al23  1  0.10734409  0.75915819  0.39949056  1
  Al  Al24  1  0.23285642  0.86921430  0.08067188  1
  Al  Al25  1  0.77273683  0.75920703  0.89969359  1
  Al  Al26  1  0.88839885  0.87660775  0.65087151  1
  Al  Al27  1  0.44181419  0.75920519  0.33896206  1
  Al  Al28  1  0.55934835  0.87592351  0.15283600  1
  Al  Al29  1  0.11401672  0.75679256  0.89417581  1
  Al  Al30  1  0.22075802  0.87361537  0.58874255  1
  Al  Al31  1  0.77695602  0.76175020  0.40226764  1
  Al  Al32  1  0.88963051  0.87353036  0.14820798  1
  Al  Al33  1  0.55389820  0.87056557  0.65282605  1
  B  B34  1  0.88958950  0.20677875  0.65264710  1
  B  B35  1  0.44314355  0.75928098  0.83859590  1
  N  N36  1  0.22228565  0.20526589  0.33992275  1
  N  N37  1  0.10761270  0.09998890  0.08108274  1
  N  N38  1  0.88815609  0.20561324  0.81757451  1
  N  N39  1  0.78983197  0.10665728  0.59565187  1
  N  N40  1  0.55788508  0.20379877  0.33972511  1
  N  N41  1  0.44425747  0.09449607  0.08914505  1
  N  N42  1  0.22299437  0.20785879  0.83730328  1
  N  N43  1  0.08295077  0.11165055  0.59947826  1
  N  N44  1  0.88923730  0.20547160  0.33349437  1
  N  N45  1  0.77869478  0.09516096  0.08484596  1
  N  N46  1  0.55513653  0.20464792  0.83983371  1
  N  N47  1  0.44420906  0.09304138  0.59237111  1
  N  N48  1  0.22254329  0.53952555  0.33716354  1
  N  N49  1  0.11141848  0.42785116  0.09018266  1
  N  N50  1  0.89111053  0.53952656  0.83749709  1
  N  N51  1  0.79469635  0.39982730  0.59887145  1
  N  N52  1  0.55883822  0.53886176  0.38992484  1
  N  N53  1  0.44358821  0.42590224  0.08758964  1
  N  N54  1  0.22112892  0.53734047  0.83787978  1
  N  N55  1  0.11069539  0.42747800  0.58706184  1
  N  N56  1  0.88873097  0.53898719  0.33994297  1
  N  N57  1  0.78360878  0.42395775  0.08205059  1
  N  N58  1  0.53990213  0.57150913  0.88166600  1
  N  N59  1  0.43986867  0.42289582  0.59131487  1
  N  N60  1  0.22220300  0.87554819  0.39134815  1
  N  N61  1  0.10957567  0.76011791  0.08670832  1
  N  N62  1  0.88747421  0.87205652  0.83972124  1
  N  N63  1  0.77632489  0.76085081  0.59231927  1
  N  N64  1  0.55932862  0.87596937  0.34345120  1
  N  N65  1  0.44265325  0.75998204  0.14907085  1
  N  N66  1  0.25469653  0.85657354  0.88060250  1
  N  N67  1  0.10612235  0.75652899  0.59201654  1
  N  N68  1  0.88741831  0.87441100  0.33972012  1
  N  N69  1  0.77807530  0.76077354  0.08925287  1
  N  N70  1  0.54392619  0.86050761  0.84570283  1
  N  N71  1  0.44082115  0.75714917  0.63756670  1
