# generated using pymatgen
data_Al17BN18
_symmetry_space_group_name_H-M   'P 1'
_cell_length_a   9.32079912
_cell_length_b   9.32079950
_cell_length_c   10.08619565
_cell_angle_alpha   90.13784967
_cell_angle_beta   90.13662995
_cell_angle_gamma   60.24013273
_symmetry_Int_Tables_number   1
_chemical_formula_structural   Al17BN18
_chemical_formula_sum   'Al34 B2 N36'
_cell_volume   760.69133624
_cell_formula_units_Z   2
loop_
 _symmetry_equiv_pos_site_id
 _symmetry_equiv_pos_as_xyz
  1  'x, y, z'
loop_
 _atom_site_type_symbol
 _atom_site_label
 _atom_site_symmetry_multiplicity
 _atom_site_fract_x
 _atom_site_fract_y
 _atom_site_fract_z
 _atom_site_occupancy
  Al  Al0  1  0.10146141  0.10079195  0.38442466  1
  Al  Al1  1  0.21619662  0.20325663  0.12460590  1
  Al  Al2  1  0.77840231  0.09508994  0.80143172  1
  Al  Al3  1  0.44941242  0.08996445  0.30854366  1
  Al  Al4  1  0.55560622  0.20477870  0.05546287  1
  Al  Al5  1  0.11424000  0.09513829  0.86581135  1
  Al  Al6  1  0.21329981  0.20984661  0.62498038  1
  Al  Al7  1  0.77464775  0.09133620  0.30652495  1
  Al  Al8  1  0.89039400  0.20708300  0.12266629  1
  Al  Al9  1  0.45073088  0.08789246  0.80610251  1
  Al  Al10  1  0.56053322  0.20706755  0.55642673  1
  Al  Al11  1  0.10866587  0.42535479  0.36730497  1
  Al  Al12  1  0.22431500  0.54100144  0.06142538  1
  Al  Al13  1  0.77845205  0.43092810  0.86581037  1
  Al  Al14  1  0.89315791  0.52998848  0.62498021  1
  Al  Al15  1  0.44737881  0.42924938  0.30750654  1
  Al  Al16  1  0.54711985  0.54667996  0.05143703  1
  Al  Al17  1  0.10965627  0.42634613  0.87314332  1
  Al  Al18  1  0.22467495  0.54136170  0.55477458  1
  Al  Al19  1  0.78410382  0.41814993  0.38442490  1
  Al  Al20  1  0.88656971  0.53288239  0.12460611  1
  Al  Al21  1  0.44214537  0.43369977  0.80650886  1
  Al  Al22  1  0.55398688  0.53865965  0.57066252  1
  Al  Al23  1  0.11256169  0.76406604  0.30750646  1
  Al  Al24  1  0.22999251  0.86380709  0.05143720  1
  Al  Al25  1  0.77120361  0.76742174  0.80610241  1
  Al  Al26  1  0.89037944  0.87722158  0.55642628  1
  Al  Al27  1  0.44376148  0.76044880  0.31148841  1
  Al  Al28  1  0.55285951  0.86954628  0.05299111  1
  Al  Al29  1  0.11701231  0.75883233  0.80650841  1
  Al  Al30  1  0.22197185  0.87067503  0.57066130  1
  Al  Al31  1  0.77327606  0.76610123  0.30854350  1
  Al  Al32  1  0.88809161  0.87229226  0.05546324  1
  Al  Al33  1  0.55488992  0.87157624  0.56152533  1
  B  B34  1  0.89187696  0.20856407  0.63498039  1
  B  B35  1  0.44375093  0.76043939  0.80321534  1
  N  N36  1  0.21724887  0.20227274  0.31757401  1
  N  N37  1  0.10654130  0.09573410  0.05661120  1
  N  N38  1  0.89488253  0.21156914  0.79720713  1
  N  N39  1  0.78792160  0.10461074  0.61133798  1
  N  N40  1  0.55489715  0.20685144  0.36737055  1
  N  N41  1  0.44879777  0.08991684  0.11437129  1
  N  N42  1  0.22087444  0.20886477  0.81516880  1
  N  N43  1  0.08266454  0.10970915  0.57761677  1
  N  N44  1  0.89067522  0.20736179  0.31191396  1
  N  N45  1  0.77411621  0.09080469  0.11494891  1
  N  N46  1  0.55800233  0.20706470  0.86583239  1
  N  N47  1  0.45015465  0.09303501  0.61463502  1
  N  N48  1  0.22537149  0.54206057  0.36260418  1
  N  N49  1  0.10838089  0.42506681  0.07258796  1
  N  N50  1  0.89217630  0.53756536  0.81516900  1
  N  N51  1  0.79302049  0.39935262  0.57761743  1
  N  N52  1  0.55180573  0.54274282  0.37732445  1
  N  N53  1  0.44719931  0.42766789  0.11717679  1
  N  N54  1  0.22531164  0.54200088  0.86985512  1
  N  N55  1  0.10933093  0.42601748  0.56423436  1
  N  N56  1  0.88558460  0.53393784  0.31757473  1
  N  N57  1  0.77904644  0.42322812  0.05661089  1
  N  N58  1  0.53923496  0.56740122  0.85672354  1
  N  N59  1  0.44248651  0.42696247  0.61949849  1
  N  N60  1  0.22605418  0.86849352  0.37732405  1
  N  N61  1  0.11097916  0.76388766  0.11717696  1
  N  N62  1  0.89037603  0.87469191  0.86583261  1
  N  N63  1  0.77634711  0.76684238  0.61463468  1
  N  N64  1  0.55448734  0.87117718  0.37203881  1
  N  N65  1  0.44401547  0.76070479  0.12282022  1
  N  N66  1  0.25071405  0.85592094  0.85672385  1
  N  N67  1  0.11027328  0.75917598  0.61949805  1
  N  N68  1  0.89016172  0.87158711  0.36737005  1
  N  N69  1  0.77322926  0.76548349  0.11437108  1
  N  N70  1  0.54378694  0.86047692  0.86146587  1
  N  N71  1  0.44539520  0.76208384  0.63989983  1
