# generated using pymatgen
data_Al17BN18
_symmetry_space_group_name_H-M   'P 1'
_cell_length_a   9.31336116
_cell_length_b   9.31950691
_cell_length_c   10.00597404
_cell_angle_alpha   90.04952191
_cell_angle_beta   89.74818307
_cell_angle_gamma   60.02353269
_symmetry_Int_Tables_number   1
_chemical_formula_structural   Al17BN18
_chemical_formula_sum   'Al34 B2 N36'
_cell_volume   752.29021569
_cell_formula_units_Z   2
loop_
 _symmetry_equiv_pos_site_id
 _symmetry_equiv_pos_as_xyz
  1  'x, y, z'
loop_
 _atom_site_type_symbol
 _atom_site_label
 _atom_site_symmetry_multiplicity
 _atom_site_fract_x
 _atom_site_fract_y
 _atom_site_fract_z
 _atom_site_occupancy
  Al  Al0  1  0.10174207  0.10470264  0.40042667  1
  Al  Al1  1  0.22195725  0.20407034  0.14764567  1
  Al  Al2  1  0.77806826  0.09617834  0.89382825  1
  Al  Al3  1  0.44499518  0.09508971  0.40048952  1
  Al  Al4  1  0.55651768  0.20514531  0.14785971  1
  Al  Al5  1  0.11325960  0.09350461  0.88615949  1
  Al  Al6  1  0.21653688  0.20833990  0.64888271  1
  Al  Al7  1  0.78062440  0.09728950  0.40166759  1
  Al  Al8  1  0.88895699  0.20579899  0.14540039  1
  Al  Al9  1  0.44155885  0.09029770  0.89818175  1
  Al  Al10  1  0.55957227  0.20666760  0.64974529  1
  Al  Al11  1  0.11071867  0.42832499  0.39752024  1
  Al  Al12  1  0.22303678  0.53901181  0.14820924  1
  Al  Al13  1  0.77343672  0.43278608  0.89239327  1
  Al  Al14  1  0.89072626  0.53383831  0.64915117  1
  Al  Al15  1  0.44528379  0.42663848  0.40038974  1
  Al  Al16  1  0.55850615  0.53569464  0.15207334  1
  Al  Al17  1  0.11032704  0.42748183  0.90050851  1
  Al  Al18  1  0.22191511  0.53709592  0.64956639  1
  Al  Al19  1  0.78037010  0.42203727  0.40471580  1
  Al  Al20  1  0.88655786  0.53878655  0.14860857  1
  Al  Al21  1  0.44201809  0.43404263  0.89890603  1
  Al  Al22  1  0.55656105  0.53831317  0.64542992  1
  Al  Al23  1  0.10773358  0.75933021  0.39749643  1
  Al  Al24  1  0.23044796  0.86931021  0.10023417  1
  Al  Al25  1  0.77258817  0.75870067  0.89881265  1
  Al  Al26  1  0.88936413  0.87684973  0.65036621  1
  Al  Al27  1  0.44811451  0.75966203  0.37907415  1
  Al  Al28  1  0.55707159  0.87310337  0.15257442  1
  Al  Al29  1  0.11523833  0.75691725  0.89389065  1
  Al  Al30  1  0.22026156  0.87491677  0.59098319  1
  Al  Al31  1  0.77825693  0.76205906  0.40117812  1
  Al  Al32  1  0.88850881  0.87380136  0.14720748  1
  Al  Al33  1  0.55336423  0.86934986  0.64568434  1
  B  B34  1  0.88812982  0.20695143  0.65283963  1
  B  B35  1  0.44181698  0.76161989  0.85917673  1
  N  N36  1  0.22210901  0.20526761  0.33936668  1
  N  N37  1  0.10792752  0.09847870  0.08026945  1
  N  N38  1  0.88698341  0.20688426  0.81813006  1
  N  N39  1  0.79045114  0.10683866  0.59579394  1
  N  N40  1  0.55749412  0.20466213  0.34047456  1
  N  N41  1  0.44502000  0.09363937  0.08805231  1
  N  N42  1  0.22213340  0.20742848  0.83734796  1
  N  N43  1  0.08275439  0.11248039  0.59832953  1
  N  N44  1  0.88794144  0.20715032  0.33385641  1
  N  N45  1  0.77865193  0.09527376  0.08486689  1
  N  N46  1  0.55424531  0.20607211  0.83970772  1
  N  N47  1  0.44410001  0.09452138  0.59206867  1
  N  N48  1  0.22331814  0.53830155  0.33823615  1
  N  N49  1  0.11074389  0.42764261  0.09062552  1
  N  N50  1  0.88986490  0.53860262  0.83844615  1
  N  N51  1  0.78938408  0.40309516  0.59901100  1
  N  N52  1  0.56227688  0.52952456  0.34356999  1
  N  N53  1  0.44556483  0.42761353  0.08836713  1
  N  N54  1  0.22226316  0.53625218  0.83885943  1
  N  N55  1  0.11123695  0.42764523  0.58738405  1
  N  N56  1  0.88690156  0.53850473  0.34133707  1
  N  N57  1  0.77800567  0.42615262  0.08297090  1
  N  N58  1  0.53976875  0.56861826  0.84001602  1
  N  N59  1  0.44405025  0.42750262  0.59112648  1
  N  N60  1  0.21689940  0.87811891  0.37869823  1
  N  N61  1  0.10996955  0.75989722  0.08645293  1
  N  N62  1  0.88749225  0.87191343  0.83974536  1
  N  N63  1  0.77845156  0.76127044  0.59255070  1
  N  N64  1  0.56042483  0.87649357  0.34245353  1
  N  N65  1  0.44816421  0.75886573  0.12835725  1
  N  N66  1  0.25428837  0.85522037  0.86528112  1
  N  N67  1  0.10835686  0.75655532  0.59145110  1
  N  N68  1  0.88752134  0.87440913  0.33921643  1
  N  N69  1  0.77794080  0.76129145  0.08843865  1
  N  N70  1  0.53986066  0.85711487  0.84107800  1
  N  N71  1  0.45222909  0.75573257  0.58039098  1
