# generated using pymatgen
data_Al17BN18
_symmetry_space_group_name_H-M   'P 1'
_cell_length_a   9.31065134
_cell_length_b   9.30643641
_cell_length_c   9.98681582
_cell_angle_alpha   89.80626194
_cell_angle_beta   90.04094464
_cell_angle_gamma   60.02094672
_symmetry_Int_Tables_number   1
_chemical_formula_structural   Al17BN18
_chemical_formula_sum   'Al34 B2 N36'
_cell_volume   749.56383346
_cell_formula_units_Z   2
loop_
 _symmetry_equiv_pos_site_id
 _symmetry_equiv_pos_as_xyz
  1  'x, y, z'
loop_
 _atom_site_type_symbol
 _atom_site_label
 _atom_site_symmetry_multiplicity
 _atom_site_fract_x
 _atom_site_fract_y
 _atom_site_fract_z
 _atom_site_occupancy
  Al  Al0  1  0.11225453  0.09238538  0.30779563  1
  Al  Al1  1  0.22298082  0.20482514  0.05809540  1
  Al  Al2  1  0.78020650  0.09664443  0.81165464  1
  Al  Al3  1  0.44492412  0.09324438  0.31001329  1
  Al  Al4  1  0.55517443  0.20505219  0.05795602  1
  Al  Al5  1  0.11185892  0.09340973  0.81202992  1
  Al  Al6  1  0.21586558  0.20793746  0.55880618  1
  Al  Al7  1  0.77798997  0.09387803  0.30732119  1
  Al  Al8  1  0.88987990  0.20288657  0.07225825  1
  Al  Al9  1  0.44317652  0.09052626  0.80814292  1
  Al  Al10  1  0.55961706  0.20837665  0.55945736  1
  Al  Al11  1  0.11088501  0.42694506  0.30977511  1
  Al  Al12  1  0.22183036  0.53916773  0.06041530  1
  Al  Al13  1  0.77602899  0.42863171  0.83310662  1
  Al  Al14  1  0.89126715  0.53294947  0.56221199  1
  Al  Al15  1  0.44604576  0.42797959  0.31030635  1
  Al  Al16  1  0.54912681  0.54630247  0.05652505  1
  Al  Al17  1  0.11244715  0.42815597  0.80843279  1
  Al  Al18  1  0.22228871  0.53961558  0.55745955  1
  Al  Al19  1  0.77781744  0.42487831  0.32106010  1
  Al  Al20  1  0.88924776  0.54065208  0.05997451  1
  Al  Al21  1  0.44166943  0.43332635  0.80899377  1
  Al  Al22  1  0.55901313  0.53515107  0.56961137  1
  Al  Al23  1  0.11128768  0.76327223  0.30926512  1
  Al  Al24  1  0.22796922  0.86955655  0.05381766  1
  Al  Al25  1  0.77321921  0.76061742  0.80783128  1
  Al  Al26  1  0.89114436  0.87708728  0.55901275  1
  Al  Al27  1  0.44418786  0.76078599  0.31251181  1
  Al  Al28  1  0.55269739  0.86927896  0.05619848  1
  Al  Al29  1  0.11620431  0.75930243  0.80866300  1
  Al  Al30  1  0.21745375  0.87631731  0.56544403  1
  Al  Al31  1  0.77639459  0.76135629  0.31079897  1
  Al  Al32  1  0.88797226  0.87190392  0.05745168  1
  Al  Al33  1  0.55396518  0.87158457  0.56410489  1
  B  B34  1  0.88810628  0.20823598  0.59519253  1
  B  B35  1  0.44334852  0.76234979  0.80499348  1
  N  N36  1  0.22257668  0.20431197  0.36921711  1
  N  N37  1  0.11810285  0.08883452  0.11541989  1
  N  N38  1  0.89214714  0.20119936  0.87828075  1
  N  N39  1  0.79251551  0.10985166  0.61692079  1
  N  N40  1  0.55614754  0.20483698  0.36949189  1
  N  N41  1  0.44538292  0.09237147  0.11716447  1
  N  N42  1  0.22217400  0.20596783  0.86701214  1
  N  N43  1  0.08168621  0.11000431  0.61806052  1
  N  N44  1  0.89088599  0.20229292  0.34621429  1
  N  N45  1  0.77476208  0.09086307  0.11659741  1
  N  N46  1  0.55551989  0.20573174  0.86602521  1
  N  N47  1  0.44382888  0.09573592  0.61812295  1
  N  N48  1  0.22235075  0.53922686  0.36713778  1
  N  N49  1  0.11138206  0.42694590  0.11925717  1
  N  N50  1  0.89153635  0.54037883  0.86815604  1
  N  N51  1  0.79309763  0.39844169  0.61542556  1
  N  N52  1  0.55427841  0.54056519  0.37696106  1
  N  N53  1  0.44514864  0.42809743  0.11798921  1
  N  N54  1  0.22209152  0.53887633  0.87021458  1
  N  N55  1  0.11267066  0.42807439  0.61876469  1
  N  N56  1  0.88901788  0.53879269  0.37098957  1
  N  N57  1  0.77284016  0.43245285  0.10558762  1
  N  N58  1  0.54022992  0.56550947  0.86087678  1
  N  N59  1  0.44275875  0.42815142  0.62014973  1
  N  N60  1  0.22401741  0.87167415  0.37477274  1
  N  N61  1  0.11154498  0.76302551  0.11646530  1
  N  N62  1  0.88869647  0.87188223  0.86562499  1
  N  N63  1  0.77842243  0.76157094  0.61818602  1
  N  N64  1  0.55472434  0.87123930  0.37292786  1
  N  N65  1  0.44324542  0.76147906  0.12357266  1
  N  N66  1  0.24684665  0.86072222  0.85912145  1
  N  N67  1  0.11127144  0.76023066  0.61941886  1
  N  N68  1  0.88876722  0.87184103  0.36924191  1
  N  N69  1  0.77564300  0.76227893  0.11819988  1
  N  N70  1  0.54296325  0.85962572  0.86185207  1
  N  N71  1  0.44350472  0.76220968  0.63982312  1
