# generated using pymatgen
data_Al17BN18
_symmetry_space_group_name_H-M   'P 1'
_cell_length_a   9.32856625
_cell_length_b   9.32817890
_cell_length_c   10.03364622
_cell_angle_alpha   89.74932464
_cell_angle_beta   89.82320603
_cell_angle_gamma   60.09247120
_symmetry_Int_Tables_number   1
_chemical_formula_structural   Al17BN18
_chemical_formula_sum   'Al34 B2 N36'
_cell_volume   756.83413628
_cell_formula_units_Z   2
loop_
 _symmetry_equiv_pos_site_id
 _symmetry_equiv_pos_as_xyz
  1  'x, y, z'
loop_
 _atom_site_type_symbol
 _atom_site_label
 _atom_site_symmetry_multiplicity
 _atom_site_fract_x
 _atom_site_fract_y
 _atom_site_fract_z
 _atom_site_occupancy
  Al  Al0  1  0.10794634  0.09427091  0.34621629  1
  Al  Al1  1  0.22663558  0.20757869  0.06044408  1
  Al  Al2  1  0.78076112  0.09736655  0.80820603  1
  Al  Al3  1  0.44594278  0.09284144  0.30936201  1
  Al  Al4  1  0.55606426  0.20469239  0.05491753  1
  Al  Al5  1  0.11294663  0.09208464  0.86791756  1
  Al  Al6  1  0.21626900  0.20871486  0.56078719  1
  Al  Al7  1  0.77473902  0.09128806  0.30344436  1
  Al  Al8  1  0.88777891  0.20788100  0.10458880  1
  Al  Al9  1  0.44362009  0.09026470  0.80687584  1
  Al  Al10  1  0.55981822  0.20794632  0.55896248  1
  Al  Al11  1  0.11032788  0.42820429  0.30934352  1
  Al  Al12  1  0.22182204  0.53873928  0.05921776  1
  Al  Al13  1  0.77547116  0.42961474  0.87268092  1
  Al  Al14  1  0.89366448  0.53546872  0.56318667  1
  Al  Al15  1  0.44568866  0.42826718  0.30930816  1
  Al  Al16  1  0.54512848  0.54810294  0.05644636  1
  Al  Al17  1  0.11249520  0.42864755  0.80791034  1
  Al  Al18  1  0.22268198  0.53907716  0.55738115  1
  Al  Al19  1  0.78101844  0.41780983  0.37144390  1
  Al  Al20  1  0.89059146  0.54358260  0.05951797  1
  Al  Al21  1  0.44214686  0.43297018  0.80860191  1
  Al  Al22  1  0.55425196  0.53727304  0.57098732  1
  Al  Al23  1  0.11147011  0.76141436  0.30895128  1
  Al  Al24  1  0.23094749  0.86241471  0.05723889  1
  Al  Al25  1  0.77324155  0.76106002  0.80706687  1
  Al  Al26  1  0.89135196  0.87690515  0.55863227  1
  Al  Al27  1  0.44580766  0.75988765  0.31199554  1
  Al  Al28  1  0.55301895  0.86960102  0.05543113  1
  Al  Al29  1  0.11615180  0.75928924  0.80830220  1
  Al  Al30  1  0.21780465  0.87470650  0.56813320  1
  Al  Al31  1  0.77644351  0.76103290  0.30967060  1
  Al  Al32  1  0.88788721  0.87286038  0.05499234  1
  Al  Al33  1  0.55386910  0.87146461  0.56390171  1
  B  B34  1  0.89149114  0.20453138  0.59803817  1
  B  B35  1  0.44314230  0.76057310  0.80529541  1
  N  N36  1  0.22446963  0.20649619  0.36856980  1
  N  N37  1  0.11774728  0.08842182  0.08291593  1
  N  N38  1  0.88850190  0.20450818  0.85997972  1
  N  N39  1  0.79213450  0.10848526  0.61270083  1
  N  N40  1  0.55639919  0.20558584  0.36928334  1
  N  N41  1  0.44701388  0.09207955  0.11799846  1
  N  N42  1  0.22595518  0.20950777  0.86775239  1
  N  N43  1  0.07749270  0.11067022  0.58372181  1
  N  N44  1  0.88858231  0.20806412  0.30567451  1
  N  N45  1  0.77252783  0.08928110  0.11422769  1
  N  N46  1  0.55585270  0.20540622  0.86416820  1
  N  N47  1  0.44396251  0.09523311  0.61732767  1
  N  N48  1  0.22252898  0.53866081  0.36758882  1
  N  N49  1  0.11074179  0.42812030  0.12036875  1
  N  N50  1  0.89330039  0.54297430  0.86560121  1
  N  N51  1  0.79476868  0.39302160  0.57714597  1
  N  N52  1  0.55035655  0.54223892  0.37686442  1
  N  N53  1  0.44464805  0.42758846  0.11761259  1
  N  N54  1  0.22227291  0.53911224  0.87007605  1
  N  N55  1  0.11302448  0.42802386  0.61922277  1
  N  N56  1  0.89011898  0.54070587  0.37090190  1
  N  N57  1  0.77134676  0.43443250  0.07257844  1
  N  N58  1  0.53791312  0.56709685  0.85832072  1
  N  N59  1  0.44222130  0.42713989  0.62030364  1
  N  N60  1  0.22596134  0.86698549  0.37426948  1
  N  N61  1  0.11075487  0.76125634  0.11751108  1
  N  N62  1  0.88876881  0.87266329  0.86427860  1
  N  N63  1  0.77776401  0.76233720  0.61774130  1
  N  N64  1  0.55485640  0.87134971  0.37287279  1
  N  N65  1  0.44467917  0.76095678  0.12452590  1
  N  N66  1  0.24942229  0.85573506  0.86027334  1
  N  N67  1  0.11100532  0.75911248  0.61956490  1
  N  N68  1  0.88900755  0.87256633  0.36897009  1
  N  N69  1  0.77555001  0.76329861  0.11805244  1
  N  N70  1  0.54294342  0.85995056  0.86182852  1
  N  N71  1  0.44329367  0.76236966  0.63974167  1
