# generated using pymatgen
data_Al17BN18
_symmetry_space_group_name_H-M   'P 1'
_cell_length_a   9.29964005
_cell_length_b   9.29963989
_cell_length_c   9.93925904
_cell_angle_alpha   89.99395087
_cell_angle_beta   89.99396242
_cell_angle_gamma   60.00210680
_symmetry_Int_Tables_number   1
_chemical_formula_structural   Al17BN18
_chemical_formula_sum   'Al34 B2 N36'
_cell_volume   744.43387698
_cell_formula_units_Z   2
loop_
 _symmetry_equiv_pos_site_id
 _symmetry_equiv_pos_as_xyz
  1  'x, y, z'
loop_
 _atom_site_type_symbol
 _atom_site_label
 _atom_site_symmetry_multiplicity
 _atom_site_fract_x
 _atom_site_fract_y
 _atom_site_fract_z
 _atom_site_occupancy
  Al  Al0  1  0.10952180  0.09400901  0.30711052  1
  Al  Al1  1  0.22132787  0.20454913  0.05055673  1
  Al  Al2  1  0.78053230  0.09720516  0.79527171  1
  Al  Al3  1  0.44502064  0.09304418  0.30039102  1
  Al  Al4  1  0.55755610  0.20472007  0.05024327  1
  Al  Al5  1  0.11030487  0.09406976  0.79598706  1
  Al  Al6  1  0.21704133  0.20704362  0.54968533  1
  Al  Al7  1  0.77905708  0.09573029  0.30675434  1
  Al  Al8  1  0.88882607  0.20550009  0.05207881  1
  Al  Al9  1  0.44282027  0.09076367  0.79992668  1
  Al  Al10  1  0.55862571  0.20737709  0.55012352  1
  Al  Al11  1  0.11109908  0.42777267  0.29964342  1
  Al  Al12  1  0.22237868  0.53905254  0.05024993  1
  Al  Al13  1  0.77739616  0.42697791  0.79598689  1
  Al  Al14  1  0.89036938  0.53371510  0.54968524  1
  Al  Al15  1  0.44532699  0.42879603  0.29988351  1
  Al  Al16  1  0.55463229  0.54336263  0.04615353  1
  Al  Al17  1  0.11100094  0.42767380  0.80002175  1
  Al  Al18  1  0.22218881  0.53886352  0.54930023  1
  Al  Al19  1  0.77733487  0.42619581  0.30711065  1
  Al  Al20  1  0.88787534  0.53800200  0.05055673  1
  Al  Al21  1  0.44303766  0.43286677  0.80014953  1
  Al  Al22  1  0.55802387  0.53597726  0.55643191  1
  Al  Al23  1  0.11212195  0.76200123  0.29988368  1
  Al  Al24  1  0.22668930  0.87130530  0.04615348  1
  Al  Al25  1  0.77409003  0.75949337  0.79992675  1
  Al  Al26  1  0.89070200  0.87530063  0.55012351  1
  Al  Al27  1  0.44430731  0.76098193  0.30196604  1
  Al  Al28  1  0.55273876  0.86941254  0.04579032  1
  Al  Al29  1  0.11619244  0.75971160  0.80014936  1
  Al  Al30  1  0.21930252  0.87469873  0.55643202  1
  Al  Al31  1  0.77636946  0.76169513  0.30039100  1
  Al  Al32  1  0.88804620  0.87423004  0.05024335  1
  Al  Al33  1  0.55432705  0.87100042  0.55569206  1
  B  B34  1  0.88891693  0.20559109  0.54690762  1
  B  B35  1  0.44499104  0.76166473  0.79563295  1
  N  N36  1  0.22241757  0.20565449  0.35909875  1
  N  N37  1  0.11052242  0.09295608  0.11295487  1
  N  N38  1  0.88919964  0.20587275  0.86270922  1
  N  N39  1  0.79028754  0.10696198  0.60161515  1
  N  N40  1  0.55463617  0.20624722  0.35923799  1
  N  N41  1  0.44558043  0.09239641  0.10719033  1
  N  N42  1  0.22071387  0.20486970  0.85850375  1
  N  N43  1  0.08595570  0.10722492  0.60287629  1
  N  N44  1  0.88905554  0.20572938  0.38075385  1
  N  N45  1  0.77865954  0.09533334  0.11427635  1
  N  N46  1  0.55734414  0.20455856  0.85731130  1
  N  N47  1  0.44360871  0.09553769  0.60920180  1
  N  N48  1  0.22244075  0.53911484  0.35783944  1
  N  N49  1  0.11093823  0.42761191  0.10869017  1
  N  N50  1  0.88819647  0.53738681  0.85850367  1
  N  N51  1  0.79055049  0.40262974  0.60287610  1
  N  N52  1  0.55418844  0.54074459  0.36474817  1
  N  N53  1  0.44614402  0.42867848  0.10712771  1
  N  N54  1  0.22190832  0.53858214  0.85999285  1
  N  N55  1  0.11134085  0.42801492  0.60928181  1
  N  N56  1  0.88898051  0.53909162  0.35909857  1
  N  N57  1  0.77628267  0.42719612  0.11295500  1
  N  N58  1  0.54539202  0.56279312  0.85047407  1
  N  N59  1  0.44327672  0.42798487  0.61027444  1
  N  N60  1  0.22407026  0.87086276  0.36474829  1
  N  N61  1  0.11200464  0.76281776  0.10712782  1
  N  N62  1  0.88788475  0.87401740  0.85731148  1
  N  N63  1  0.77886400  0.76028227  0.60920190  1
  N  N64  1  0.55472891  0.87140334  0.36345660  1
  N  N65  1  0.44419867  0.76087210  0.11258655  1
  N  N66  1  0.24611949  0.86206548  0.85047400  1
  N  N67  1  0.11131010  0.75995144  0.61027430  1
  N  N68  1  0.88957323  0.87130985  0.35923807  1
  N  N69  1  0.77572252  0.76225443  0.10719036  1
  N  N70  1  0.54295750  0.85963104  0.85179204  1
  N  N71  1  0.44428392  0.76095812  0.63015323  1
