# generated using pymatgen
data_Al17BN18
_symmetry_space_group_name_H-M   'P 1'
_cell_length_a   9.32772454
_cell_length_b   9.33378296
_cell_length_c   10.05930673
_cell_angle_alpha   90.11402011
_cell_angle_beta   90.17133804
_cell_angle_gamma   60.27452302
_symmetry_Int_Tables_number   1
_chemical_formula_structural   Al17BN18
_chemical_formula_sum   'Al34 B2 N36'
_cell_volume   760.54483421
_cell_formula_units_Z   2
loop_
 _symmetry_equiv_pos_site_id
 _symmetry_equiv_pos_as_xyz
  1  'x, y, z'
loop_
 _atom_site_type_symbol
 _atom_site_label
 _atom_site_symmetry_multiplicity
 _atom_site_fract_x
 _atom_site_fract_y
 _atom_site_fract_z
 _atom_site_occupancy
  Al  Al0  1  0.10086231  0.09978382  0.38506828  1
  Al  Al1  1  0.22241876  0.20396525  0.07546407  1
  Al  Al2  1  0.77785821  0.09537364  0.80206799  1
  Al  Al3  1  0.44360363  0.09255900  0.30956864  1
  Al  Al4  1  0.55640147  0.20528631  0.05634500  1
  Al  Al5  1  0.11291235  0.09325312  0.86181247  1
  Al  Al6  1  0.21938509  0.20565415  0.59285277  1
  Al  Al7  1  0.77428889  0.09143649  0.30728510  1
  Al  Al8  1  0.89116042  0.20653046  0.12403010  1
  Al  Al9  1  0.44938917  0.08829089  0.80714888  1
  Al  Al10  1  0.56083949  0.20738266  0.55656751  1
  Al  Al11  1  0.11532829  0.42431148  0.31189454  1
  Al  Al12  1  0.22155708  0.53893556  0.05897932  1
  Al  Al13  1  0.77893172  0.43105185  0.86754345  1
  Al  Al14  1  0.88619892  0.53363456  0.62433766  1
  Al  Al15  1  0.44676455  0.42907658  0.30854840  1
  Al  Al16  1  0.54624787  0.54649222  0.05228454  1
  Al  Al17  1  0.11655369  0.43013512  0.80931394  1
  Al  Al18  1  0.22254434  0.53940102  0.55448044  1
  Al  Al19  1  0.78489526  0.41824060  0.38459065  1
  Al  Al20  1  0.88175554  0.53574601  0.12356234  1
  Al  Al21  1  0.44303744  0.43354271  0.80719595  1
  Al  Al22  1  0.55356182  0.53834709  0.57030927  1
  Al  Al23  1  0.11239281  0.76309560  0.30843621  1
  Al  Al24  1  0.22962433  0.86271011  0.05162719  1
  Al  Al25  1  0.77015815  0.76826571  0.80777398  1
  Al  Al26  1  0.89059573  0.87732666  0.55683577  1
  Al  Al27  1  0.44344416  0.76071828  0.31194563  1
  Al  Al28  1  0.55270746  0.86895392  0.05357697  1
  Al  Al29  1  0.11674961  0.75886288  0.80690877  1
  Al  Al30  1  0.22207316  0.86917087  0.57154720  1
  Al  Al31  1  0.77251277  0.76672324  0.31035942  1
  Al  Al32  1  0.88829492  0.87248891  0.05600251  1
  Al  Al33  1  0.55465145  0.87162667  0.56163034  1
  B  B34  1  0.89158288  0.20811187  0.63633567  1
  B  B35  1  0.44417226  0.75991183  0.80343558  1
  N  N36  1  0.22263849  0.20312613  0.35650133  1
  N  N37  1  0.10449147  0.09335726  0.05649113  1
  N  N38  1  0.89331445  0.21280428  0.79767754  1
  N  N39  1  0.78773402  0.10450221  0.61160562  1
  N  N40  1  0.55489811  0.20638555  0.36708159  1
  N  N41  1  0.44693313  0.09073366  0.11550325  1
  N  N42  1  0.22652613  0.20668081  0.84413933  1
  N  N43  1  0.08187744  0.10777037  0.58172226  1
  N  N44  1  0.89091802  0.20725642  0.31287191  1
  N  N45  1  0.77428883  0.09066698  0.11546611  1
  N  N46  1  0.55843096  0.20706432  0.86639821  1
  N  N47  1  0.45075441  0.09261355  0.61752932  1
  N  N48  1  0.22308004  0.54010207  0.36565439  1
  N  N49  1  0.11330036  0.42651134  0.11573169  1
  N  N50  1  0.88774729  0.54089054  0.81998193  1
  N  N51  1  0.79330973  0.39871295  0.57750791  1
  N  N52  1  0.55161216  0.54253626  0.37700849  1
  N  N53  1  0.44555573  0.42816248  0.11709923  1
  N  N54  1  0.22377611  0.54053998  0.87064541  1
  N  N55  1  0.11475180  0.43052218  0.61473926  1
  N  N56  1  0.88342886  0.53638594  0.32217834  1
  N  N57  1  0.77868642  0.42252757  0.05819966  1
  N  N58  1  0.53908129  0.56724097  0.85743413  1
  N  N59  1  0.44246565  0.42704822  0.61942282  1
  N  N60  1  0.22563581  0.86768980  0.37768868  1
  N  N61  1  0.11134298  0.76206959  0.11705248  1
  N  N62  1  0.89037234  0.87519974  0.86603160  1
  N  N63  1  0.77540006  0.76816661  0.61494544  1
  N  N64  1  0.55360731  0.87204877  0.37195319  1
  N  N65  1  0.44376481  0.76052679  0.12291529  1
  N  N66  1  0.25093272  0.85467915  0.85627551  1
  N  N67  1  0.11032933  0.75840424  0.61948856  1
  N  N68  1  0.89007163  0.87194259  0.36756652  1
  N  N69  1  0.77243323  0.76658312  0.11475812  1
  N  N70  1  0.54340851  0.86051475  0.86198948  1
  N  N71  1  0.44596953  0.76150020  0.63989594  1
