# generated using pymatgen
data_Al17BN18
_symmetry_space_group_name_H-M   'P 1'
_cell_length_a   9.31543870
_cell_length_b   9.32039407
_cell_length_c   10.01846208
_cell_angle_alpha   89.97754462
_cell_angle_beta   89.73283630
_cell_angle_gamma   60.05258918
_symmetry_Int_Tables_number   1
_chemical_formula_structural   Al17BN18
_chemical_formula_sum   'Al34 B2 N36'
_cell_volume   753.69107345
_cell_formula_units_Z   2
loop_
 _symmetry_equiv_pos_site_id
 _symmetry_equiv_pos_as_xyz
  1  'x, y, z'
loop_
 _atom_site_type_symbol
 _atom_site_label
 _atom_site_symmetry_multiplicity
 _atom_site_fract_x
 _atom_site_fract_y
 _atom_site_fract_z
 _atom_site_occupancy
  Al  Al0  1  0.10085845  0.10577934  0.40028499  1
  Al  Al1  1  0.22174583  0.20387655  0.14788702  1
  Al  Al2  1  0.77818970  0.09621138  0.89403335  1
  Al  Al3  1  0.44500185  0.09522540  0.40141802  1
  Al  Al4  1  0.55639406  0.20514751  0.14793636  1
  Al  Al5  1  0.11242038  0.09539272  0.88633068  1
  Al  Al6  1  0.21661750  0.20809248  0.64881820  1
  Al  Al7  1  0.78037831  0.09734388  0.40163720  1
  Al  Al8  1  0.88935585  0.20541365  0.14534851  1
  Al  Al9  1  0.44180112  0.09031831  0.89811651  1
  Al  Al10  1  0.55977616  0.20658749  0.64999800  1
  Al  Al11  1  0.11068225  0.42837682  0.39764817  1
  Al  Al12  1  0.22269406  0.53952112  0.14822287  1
  Al  Al13  1  0.77361906  0.43277991  0.89205043  1
  Al  Al14  1  0.89090026  0.53373427  0.64917653  1
  Al  Al15  1  0.44504610  0.42615026  0.40044205  1
  Al  Al16  1  0.55905081  0.53427774  0.15321827  1
  Al  Al17  1  0.11074235  0.42718782  0.90057815  1
  Al  Al18  1  0.22194875  0.53703212  0.64942749  1
  Al  Al19  1  0.78068310  0.42199464  0.40458613  1
  Al  Al20  1  0.88680487  0.53878699  0.14862699  1
  Al  Al21  1  0.44230549  0.43406887  0.89861838  1
  Al  Al22  1  0.55641598  0.53877637  0.64224307  1
  Al  Al23  1  0.10670578  0.75922934  0.39745950  1
  Al  Al24  1  0.23374242  0.86761974  0.08769240  1
  Al  Al25  1  0.77302926  0.75841031  0.89874390  1
  Al  Al26  1  0.88948249  0.87689052  0.65041490  1
  Al  Al27  1  0.44489611  0.76138486  0.36589677  1
  Al  Al28  1  0.55767398  0.87423333  0.15395531  1
  Al  Al29  1  0.11424169  0.75573804  0.89417128  1
  Al  Al30  1  0.22105378  0.87431977  0.58340619  1
  Al  Al31  1  0.77790762  0.76203949  0.40198563  1
  Al  Al32  1  0.88882772  0.87376101  0.14750613  1
  Al  Al33  1  0.55305248  0.86894921  0.64498756  1
  B  B34  1  0.88865885  0.20672957  0.65256758  1
  B  B35  1  0.44392539  0.76024036  0.85650969  1
  N  N36  1  0.22217174  0.20534067  0.33950704  1
  N  N37  1  0.10764337  0.09901667  0.07993588  1
  N  N38  1  0.88704298  0.20692762  0.81808100  1
  N  N39  1  0.79043597  0.10685445  0.59573900  1
  N  N40  1  0.55724032  0.20461105  0.34027764  1
  N  N41  1  0.44475144  0.09359590  0.08778609  1
  N  N42  1  0.22261809  0.20738582  0.83711141  1
  N  N43  1  0.08279491  0.11235194  0.59905012  1
  N  N44  1  0.88767325  0.20734044  0.33357734  1
  N  N45  1  0.77847731  0.09533372  0.08490267  1
  N  N46  1  0.55451730  0.20613552  0.83987306  1
  N  N47  1  0.44419465  0.09466124  0.59274050  1
  N  N48  1  0.22311327  0.53850579  0.33805365  1
  N  N49  1  0.11089080  0.42755607  0.09052247  1
  N  N50  1  0.89036541  0.53841459  0.83845625  1
  N  N51  1  0.78999681  0.40284195  0.59866658  1
  N  N52  1  0.56301685  0.52771391  0.34482184  1
  N  N53  1  0.44532705  0.42797930  0.08809904  1
  N  N54  1  0.22266947  0.53594451  0.83859108  1
  N  N55  1  0.11128301  0.42752476  0.58733611  1
  N  N56  1  0.88700465  0.53872521  0.34114075  1
  N  N57  1  0.77755840  0.42667946  0.08280378  1
  N  N58  1  0.54029939  0.56853148  0.84000163  1
  N  N59  1  0.44380006  0.42701502  0.59092884  1
  N  N60  1  0.21468530  0.87933022  0.38337595  1
  N  N61  1  0.10956871  0.75989346  0.08617125  1
  N  N62  1  0.88737443  0.87213058  0.83972866  1
  N  N63  1  0.77854681  0.76116026  0.59308430  1
  N  N64  1  0.56114733  0.87783445  0.34339568  1
  N  N65  1  0.44416863  0.76094653  0.14474674  1
  N  N66  1  0.25738415  0.85361050  0.87612337  1
  N  N67  1  0.10822461  0.75639873  0.59217894  1
  N  N68  1  0.88701443  0.87445173  0.33928686  1
  N  N69  1  0.77743723  0.76138865  0.08826158  1
  N  N70  1  0.54033872  0.85661466  0.84171168  1
  N  N71  1  0.45152657  0.75637596  0.58159264  1
