# generated using pymatgen
data_Al17BN18
_symmetry_space_group_name_H-M   'P 1'
_cell_length_a   9.32783694
_cell_length_b   9.32783792
_cell_length_c   10.07488517
_cell_angle_alpha   90.16536657
_cell_angle_beta   90.16501584
_cell_angle_gamma   60.27220224
_symmetry_Int_Tables_number   1
_chemical_formula_structural   Al17BN18
_chemical_formula_sum   'Al34 B2 N36'
_cell_volume   761.22835897
_cell_formula_units_Z   2
loop_
 _symmetry_equiv_pos_site_id
 _symmetry_equiv_pos_as_xyz
  1  'x, y, z'
loop_
 _atom_site_type_symbol
 _atom_site_label
 _atom_site_symmetry_multiplicity
 _atom_site_fract_x
 _atom_site_fract_y
 _atom_site_fract_z
 _atom_site_occupancy
  Al  Al0  1  0.10129636  0.10077205  0.38500469  1
  Al  Al1  1  0.21759534  0.20104627  0.12380059  1
  Al  Al2  1  0.77847447  0.09516196  0.80154227  1
  Al  Al3  1  0.44998694  0.08940728  0.30904966  1
  Al  Al4  1  0.55551458  0.20494613  0.05571154  1
  Al  Al5  1  0.11394170  0.09494382  0.86648623  1
  Al  Al6  1  0.21482329  0.20720193  0.62361429  1
  Al  Al7  1  0.77474120  0.09143007  0.30665857  1
  Al  Al8  1  0.89038121  0.20706909  0.12292136  1
  Al  Al9  1  0.45165081  0.08707174  0.80638512  1
  Al  Al10  1  0.56042463  0.20731728  0.55660820  1
  Al  Al11  1  0.11079077  0.42748150  0.33949171  1
  Al  Al12  1  0.22278544  0.53947325  0.06103362  1
  Al  Al13  1  0.77825734  0.43062907  0.86648568  1
  Al  Al14  1  0.89051455  0.53151082  0.62361415  1
  Al  Al15  1  0.44765943  0.42923891  0.30754688  1
  Al  Al16  1  0.54667853  0.54668805  0.05173831  1
  Al  Al17  1  0.11228773  0.42897722  0.84374580  1
  Al  Al18  1  0.22338799  0.54007530  0.55463476  1
  Al  Al19  1  0.78408323  0.41798450  0.38500496  1
  Al  Al20  1  0.88435749  0.53428236  0.12380071  1
  Al  Al21  1  0.44296328  0.43353214  0.80642856  1
  Al  Al22  1  0.55356233  0.53865805  0.57065369  1
  Al  Al23  1  0.11255082  0.76434751  0.30754690  1
  Al  Al24  1  0.23000049  0.86336584  0.05173867  1
  Al  Al25  1  0.77038349  0.76834039  0.80638481  1
  Al  Al26  1  0.89062887  0.87711329  0.55660779  1
  Al  Al27  1  0.44373985  0.76042798  0.31162143  1
  Al  Al28  1  0.55280357  0.86949148  0.05314096  1
  Al  Al29  1  0.11684444  0.75965086  0.80642816  1
  Al  Al30  1  0.22197038  0.87025014  0.57065301  1
  Al  Al31  1  0.77271822  0.76667637  0.30904919  1
  Al  Al32  1  0.88825858  0.87220132  0.05571174  1
  Al  Al33  1  0.55485695  0.87154362  0.56159925  1
  B  B34  1  0.89179620  0.20848354  0.63518108  1
  B  B35  1  0.44374776  0.76043530  0.80324849  1
  N  N36  1  0.21916828  0.19936136  0.32001718  1
  N  N37  1  0.10632023  0.09533724  0.05698672  1
  N  N38  1  0.89498665  0.21167361  0.79748874  1
  N  N39  1  0.78793138  0.10461981  0.61138970  1
  N  N40  1  0.55504106  0.20690242  0.36731142  1
  N  N41  1  0.44935092  0.08944183  0.11449251  1
  N  N42  1  0.22297771  0.20545102  0.81702548  1
  N  N43  1  0.08243922  0.10928998  0.57784608  1
  N  N44  1  0.89079076  0.20747865  0.31214885  1
  N  N45  1  0.77413256  0.09082013  0.11491610  1
  N  N46  1  0.55811254  0.20710953  0.86582719  1
  N  N47  1  0.45087672  0.09249050  0.61481172  1
  N  N48  1  0.22530391  0.54199261  0.36382849  1
  N  N49  1  0.11032806  0.42701674  0.09561975  1
  N  N50  1  0.88876219  0.53966728  0.81702520  1
  N  N51  1  0.79260220  0.39912686  0.57784634  1
  N  N52  1  0.55166088  0.54275767  0.37729870  1
  N  N53  1  0.44670853  0.42791897  0.11692270  1
  N  N54  1  0.22509634  0.54178457  0.87035554  1
  N  N55  1  0.11127595  0.42796286  0.58405810  1
  N  N56  1  0.88267110  0.53585783  0.32001739  1
  N  N57  1  0.77864971  0.42300706  0.05698624  1
  N  N58  1  0.53900718  0.56742817  0.85694347  1
  N  N59  1  0.44243965  0.42714185  0.61943547  1
  N  N60  1  0.22606920  0.86834949  0.37729826  1
  N  N61  1  0.11123086  0.76339648  0.11692285  1
  N  N62  1  0.89042180  0.87480071  0.86582732  1
  N  N63  1  0.77580328  0.76756412  0.61481137  1
  N  N64  1  0.55441967  0.87110884  0.37217745  1
  N  N65  1  0.44402553  0.76071340  0.12285648  1
  N  N66  1  0.25074099  0.85569385  0.85694372  1
  N  N67  1  0.11045356  0.75912797  0.61943502  1
  N  N68  1  0.89021355  0.87173010  0.36731100  1
  N  N69  1  0.77275381  0.76603790  0.11449220  1
  N  N70  1  0.54370760  0.86039600  0.86162398  1
  N  N71  1  0.44539283  0.76208064  0.63996462  1
