# generated using pymatgen
data_Al17BN18
_symmetry_space_group_name_H-M   'P 1'
_cell_length_a   9.32046846
_cell_length_b   9.32886136
_cell_length_c   10.13155303
_cell_angle_alpha   90.10425219
_cell_angle_beta   90.02627756
_cell_angle_gamma   60.16658365
_symmetry_Int_Tables_number   1
_chemical_formula_structural   Al17BN18
_chemical_formula_sum   'Al34 B2 N36'
_cell_volume   764.18555157
_cell_formula_units_Z   2
loop_
 _symmetry_equiv_pos_site_id
 _symmetry_equiv_pos_as_xyz
  1  'x, y, z'
loop_
 _atom_site_type_symbol
 _atom_site_label
 _atom_site_symmetry_multiplicity
 _atom_site_fract_x
 _atom_site_fract_y
 _atom_site_fract_z
 _atom_site_occupancy
  Al  Al0  1  0.10103987  0.10051653  0.39561936  1
  Al  Al1  1  0.22334394  0.20013855  0.13776226  1
  Al  Al2  1  0.77854740  0.09653612  0.81202722  1
  Al  Al3  1  0.43736621  0.09618181  0.39211488  1
  Al  Al4  1  0.55873366  0.20780375  0.06683707  1
  Al  Al5  1  0.11342210  0.09581974  0.87805179  1
  Al  Al6  1  0.21565115  0.21022384  0.64013740  1
  Al  Al7  1  0.77361655  0.08959269  0.31684086  1
  Al  Al8  1  0.89149332  0.20685508  0.13492210  1
  Al  Al9  1  0.43900427  0.09428756  0.87970037  1
  Al  Al10  1  0.56330463  0.21168074  0.57089993  1
  Al  Al11  1  0.10891474  0.42359410  0.38452377  1
  Al  Al12  1  0.22418652  0.54142584  0.07414873  1
  Al  Al13  1  0.77852126  0.43091718  0.87884407  1
  Al  Al14  1  0.89460034  0.52882486  0.63905561  1
  Al  Al15  1  0.44710079  0.42877127  0.31934490  1
  Al  Al16  1  0.54750797  0.54634770  0.06359463  1
  Al  Al17  1  0.10814155  0.42595801  0.89226604  1
  Al  Al18  1  0.22453895  0.54217831  0.56679002  1
  Al  Al19  1  0.78399780  0.41628693  0.39615392  1
  Al  Al20  1  0.88691539  0.53435607  0.13766740  1
  Al  Al21  1  0.44125005  0.43534766  0.81853021  1
  Al  Al22  1  0.55396384  0.53927212  0.58171786  1
  Al  Al23  1  0.11276595  0.76334823  0.31948879  1
  Al  Al24  1  0.22933524  0.86487207  0.06350865  1
  Al  Al25  1  0.77280252  0.76561637  0.82497001  1
  Al  Al26  1  0.89197127  0.87865244  0.57137010  1
  Al  Al27  1  0.44387341  0.75972512  0.32341023  1
  Al  Al28  1  0.55609889  0.86240714  0.06456662  1
  Al  Al29  1  0.11818185  0.75841172  0.81885225  1
  Al  Al30  1  0.22146183  0.87174260  0.58215612  1
  Al  Al31  1  0.77598595  0.76055637  0.34346757  1
  Al  Al32  1  0.88855010  0.87176848  0.06582675  1
  Al  Al33  1  0.55411618  0.86822253  0.58336525  1
  B  B34  1  0.89340048  0.20985329  0.64663293  1
  B  B35  1  0.44383186  0.76023649  0.81547937  1
  N  N36  1  0.22107237  0.20060655  0.32721732  1
  N  N37  1  0.10719619  0.09685086  0.06884960  1
  N  N38  1  0.89568174  0.21263603  0.80819698  1
  N  N39  1  0.78887026  0.10540973  0.62369085  1
  N  N40  1  0.55706919  0.20879776  0.37965021  1
  N  N41  1  0.43995337  0.09415796  0.07458933  1
  N  N42  1  0.22093787  0.21015153  0.82510708  1
  N  N43  1  0.08314568  0.11130424  0.58886762  1
  N  N44  1  0.89086279  0.20589548  0.32328350  1
  N  N45  1  0.77489983  0.08969888  0.12730797  1
  N  N46  1  0.56060621  0.21130914  0.87521849  1
  N  N47  1  0.43831323  0.10005875  0.58696729  1
  N  N48  1  0.22484707  0.54141668  0.37516568  1
  N  N49  1  0.10879000  0.42319290  0.08297527  1
  N  N50  1  0.89407610  0.53554077  0.82671956  1
  N  N51  1  0.79341170  0.39988414  0.58879708  1
  N  N52  1  0.55170094  0.54190873  0.38922903  1
  N  N53  1  0.44705233  0.42821818  0.13029783  1
  N  N54  1  0.22446378  0.54197668  0.88329645  1
  N  N55  1  0.10892251  0.42565793  0.57421637  1
  N  N56  1  0.88768162  0.53129050  0.32977621  1
  N  N57  1  0.77968620  0.42300752  0.06923415  1
  N  N58  1  0.53910975  0.56731927  0.86978647  1
  N  N59  1  0.44151419  0.42952099  0.63238659  1
  N  N60  1  0.22572202  0.86831082  0.38951996  1
  N  N61  1  0.11087685  0.76435208  0.13003081  1
  N  N62  1  0.89137093  0.87664049  0.87608168  1
  N  N63  1  0.77847310  0.76499601  0.62430584  1
  N  N64  1  0.55499392  0.86497788  0.38865106  1
  N  N65  1  0.44336291  0.76032505  0.13565701  1
  N  N66  1  0.25016682  0.85653057  0.86965845  1
  N  N67  1  0.11153436  0.75919107  0.63247585  1
  N  N68  1  0.89127483  0.87166745  0.38237550  1
  N  N69  1  0.77630922  0.76107471  0.11338536  1
  N  N70  1  0.54327051  0.85645403  0.86855511  1
  N  N71  1  0.44331946  0.76070276  0.65324118  1
