# generated using pymatgen
data_Al17BN18
_symmetry_space_group_name_H-M   'P 1'
_cell_length_a   9.32051329
_cell_length_b   9.32889976
_cell_length_c   10.13157820
_cell_angle_alpha   90.10143419
_cell_angle_beta   90.02716431
_cell_angle_gamma   60.16411321
_symmetry_Int_Tables_number   1
_chemical_formula_structural   Al17BN18
_chemical_formula_sum   'Al34 B2 N36'
_cell_volume   764.17545999
_cell_formula_units_Z   2
loop_
 _symmetry_equiv_pos_site_id
 _symmetry_equiv_pos_as_xyz
  1  'x, y, z'
loop_
 _atom_site_type_symbol
 _atom_site_label
 _atom_site_symmetry_multiplicity
 _atom_site_fract_x
 _atom_site_fract_y
 _atom_site_fract_z
 _atom_site_occupancy
  Al  Al0  1  0.10394683  0.10177720  0.39278500  1
  Al  Al1  1  0.22051366  0.20329850  0.13680349  1
  Al  Al2  1  0.77916564  0.09842842  0.87292296  1
  Al  Al3  1  0.44473115  0.09488063  0.39046963  1
  Al  Al4  1  0.55729139  0.20609571  0.11280260  1
  Al  Al5  1  0.11181943  0.09490819  0.87413700  1
  Al  Al6  1  0.21510079  0.20823298  0.63744027  1
  Al  Al7  1  0.77718261  0.10424288  0.39172885  1
  Al  Al8  1  0.88940703  0.20692100  0.13288534  1
  Al  Al9  1  0.44131051  0.08799410  0.88492332  1
  Al  Al10  1  0.56047751  0.20103353  0.63131424  1
  Al  Al11  1  0.10909678  0.42522178  0.38214424  1
  Al  Al12  1  0.22436419  0.54305505  0.07176974  1
  Al  Al13  1  0.77931986  0.42737693  0.87457820  1
  Al  Al14  1  0.89203197  0.53129818  0.63776078  1
  Al  Al15  1  0.44636731  0.43229102  0.31862241  1
  Al  Al16  1  0.54928264  0.55036336  0.06013720  1
  Al  Al17  1  0.10874568  0.42447019  0.88950217  1
  Al  Al18  1  0.22513789  0.54068946  0.56402594  1
  Al  Al19  1  0.78577522  0.42030112  0.39269775  1
  Al  Al20  1  0.88618065  0.53787618  0.13694678  1
  Al  Al21  1  0.43868107  0.43782634  0.81723318  1
  Al  Al22  1  0.55476103  0.53573144  0.57744395  1
  Al  Al23  1  0.10993657  0.76651233  0.31852684  1
  Al  Al24  1  0.23224004  0.86613004  0.06067080  1
  Al  Al25  1  0.76997775  0.75496717  0.88539358  1
  Al  Al26  1  0.89427581  0.87235637  0.57658877  1
  Al  Al27  1  0.44178548  0.75979729  0.32137272  1
  Al  Al28  1  0.55966254  0.87705515  0.13945319  1
  Al  Al29  1  0.11762760  0.75642773  0.81615386  1
  Al  Al30  1  0.21985772  0.87082597  0.57824139  1
  Al  Al31  1  0.77454803  0.75884491  0.38945435  1
  Al  Al32  1  0.89591066  0.87046736  0.06417806  1
  Al  Al33  1  0.55473381  0.87010916  0.64426611  1
  B  B34  1  0.88945085  0.20641266  0.64081353  1
  B  B35  1  0.43988107  0.75679300  0.80965932  1
  N  N36  1  0.22240161  0.20229678  0.32626147  1
  N  N37  1  0.10755898  0.09833818  0.06677348  1
  N  N38  1  0.88996002  0.20594802  0.80305127  1
  N  N39  1  0.79001390  0.11019188  0.58774011  1
  N  N40  1  0.55696793  0.20557566  0.34292548  1
  N  N41  1  0.44200361  0.09498430  0.07391658  1
  N  N42  1  0.22174397  0.20745875  0.82381606  1
  N  N43  1  0.08311707  0.11011635  0.58663522  1
  N  N44  1  0.88991478  0.20632511  0.32063696  1
  N  N45  1  0.77828842  0.10167279  0.06764031  1
  N  N46  1  0.55480370  0.20165440  0.83199311  1
  N  N47  1  0.44190966  0.09000959  0.58021380  1
  N  N48  1  0.22449140  0.54345338  0.37331678  1
  N  N49  1  0.10843344  0.42523460  0.08112585  1
  N  N50  1  0.89176531  0.53712808  0.82390427  1
  N  N51  1  0.79417482  0.39932899  0.58650492  1
  N  N52  1  0.55359407  0.54363854  0.38705636  1
  N  N53  1  0.44560187  0.43535899  0.12651618  1
  N  N54  1  0.22436077  0.54098854  0.88207745  1
  N  N55  1  0.10881734  0.42467307  0.57299540  1
  N  N56  1  0.88622691  0.53843145  0.32599308  1
  N  N57  1  0.78158221  0.42474198  0.06706491  1
  N  N58  1  0.53986842  0.56676334  0.86749577  1
  N  N59  1  0.43920752  0.43111126  0.62957246  1
  N  N60  1  0.22608205  0.86979690  0.38744314  1
  N  N61  1  0.11220939  0.76604206  0.12907361  1
  N  N62  1  0.89496552  0.86659005  0.86932609  1
  N  N63  1  0.77267359  0.75534022  0.58107176  1
  N  N64  1  0.55837604  0.87695210  0.32898487  1
  N  N65  1  0.44242048  0.76075225  0.13301098  1
  N  N66  1  0.25013304  0.85534500  0.86742302  1
  N  N67  1  0.11234504  0.75649410  0.63118550  1
  N  N68  1  0.89332679  0.87248958  0.38170138  1
  N  N69  1  0.77620900  0.75785455  0.07664200  1
  N  N70  1  0.54440887  0.86123803  0.83260123  1
  N  N71  1  0.43760221  0.75401106  0.64809520  1
