# generated using pymatgen
data_Al17BN18
_symmetry_space_group_name_H-M   'P 1'
_cell_length_a   9.29963830
_cell_length_b   9.29963842
_cell_length_c   9.93925558
_cell_angle_alpha   89.99395605
_cell_angle_beta   89.99395001
_cell_angle_gamma   60.00211433
_symmetry_Int_Tables_number   1
_chemical_formula_structural   Al17BN18
_chemical_formula_sum   'Al34 B2 N36'
_cell_volume   744.43341699
_cell_formula_units_Z   2
loop_
 _symmetry_equiv_pos_site_id
 _symmetry_equiv_pos_as_xyz
  1  'x, y, z'
loop_
 _atom_site_type_symbol
 _atom_site_label
 _atom_site_symmetry_multiplicity
 _atom_site_fract_x
 _atom_site_fract_y
 _atom_site_fract_z
 _atom_site_occupancy
  Al  Al0  1  0.10661429  0.09534065  0.41661721  1
  Al  Al1  1  0.22118399  0.20464377  0.16289561  1
  Al  Al2  1  0.77897867  0.09564417  0.90708425  1
  Al  Al3  1  0.44525880  0.09241699  0.41253538  1
  Al  Al4  1  0.55693497  0.20495056  0.16238571  1
  Al  Al5  1  0.11400338  0.09194640  0.90634567  1
  Al  Al6  1  0.21711134  0.20693455  0.66262658  1
  Al  Al7  1  0.78056719  0.09723318  0.41698074  1
  Al  Al8  1  0.88899734  0.20566379  0.16080212  1
  Al  Al9  1  0.44260254  0.09134396  0.91265254  1
  Al  Al10  1  0.55921547  0.20715187  0.66285073  1
  Al  Al11  1  0.11092715  0.42759309  0.41252768  1
  Al  Al12  1  0.22220662  0.53887286  0.16313598  1
  Al  Al13  1  0.77527977  0.43066969  0.90634563  1
  Al  Al14  1  0.89026779  0.53377793  0.66262656  1
  Al  Al15  1  0.44542966  0.42864319  0.41222057  1
  Al  Al16  1  0.55596974  0.54044933  0.15566766  1
  Al  Al17  1  0.11111633  0.42778188  0.91348053  1
  Al  Al18  1  0.22230457  0.53897162  0.66275727  1
  Al  Al19  1  0.77867421  0.42328120  0.41661712  1
  Al  Al20  1  0.88797768  0.53785058  0.16289572  1
  Al  Al21  1  0.44293619  0.43293120  0.91309229  1
  Al  Al22  1  0.55591027  0.53966654  0.66678365  1
  Al  Al23  1  0.11197668  0.76209634  0.41222066  1
  Al  Al24  1  0.22378404  0.87263497  0.15566742  1
  Al  Al25  1  0.77467752  0.75926850  0.91265240  1
  Al  Al26  1  0.89048436  0.87588303  0.66285062  1
  Al  Al27  1  0.44447885  0.76114593  0.41069088  1
  Al  Al28  1  0.55424909  0.87091470  0.15602476  1
  Al  Al29  1  0.11626437  0.75960265  0.91309228  1
  Al  Al30  1  0.22300086  0.87257594  0.66678393  1
  Al  Al31  1  0.77574967  0.76192611  0.41253546  1
  Al  Al32  1  0.88828440  0.87360122  0.16238575  1
  Al  Al33  1  0.55277278  0.86943925  0.66749874  1
  B  B34  1  0.88831433  0.20498047  0.66713933  1
  B  B35  1  0.44438843  0.76105450  0.91586458  1
  N  N36  1  0.22130103  0.20382780  0.35564983  1
  N  N37  1  0.10923663  0.09578146  0.09802841  1
  N  N38  1  0.88902130  0.20568742  0.83262190  1
  N  N39  1  0.79034753  0.10701457  0.61098044  1
  N  N40  1  0.55758227  0.20439150  0.35558556  1
  N  N41  1  0.44373203  0.09533473  0.10353870  1
  N  N42  1  0.22199421  0.20669472  0.85250216  1
  N  N43  1  0.08718521  0.10458030  0.61229717  1
  N  N44  1  0.88910641  0.20577312  0.35018204  1
  N  N45  1  0.77857544  0.09524152  0.09931856  1
  N  N46  1  0.55444122  0.20636296  0.85357533  1
  N  N47  1  0.44542003  0.09262877  0.60546552  1
  N  N48  1  0.22236734  0.53903386  0.35408798  1
  N  N49  1  0.11086449  0.42753052  0.10494082  1
  N  N50  1  0.89002876  0.53866003  0.85250221  1
  N  N51  1  0.78791429  0.40385131  0.61229709  1
  N  N52  1  0.55702251  0.53944876  0.34982049  1
  N  N53  1  0.44432452  0.42755397  0.10367881  1
  N  N54  1  0.22196421  0.53863053  0.85349699  1
  N  N55  1  0.11139725  0.42806389  0.60278404  1
  N  N56  1  0.88716146  0.53796787  0.35564998  1
  N  N57  1  0.77911575  0.42590276  0.09802831  1
  N  N58  1  0.54275469  0.56401573  0.85989616  1
  N  N59  1  0.44510839  0.42925775  0.60427265  1
  N  N60  1  0.22278209  0.87368899  0.34982035  1
  N  N61  1  0.11088778  0.76099058  0.10367878  1
  N  N62  1  0.88969647  0.87110723  0.85357514  1
  N  N63  1  0.77596210  0.76208670  0.60546554  1
  N  N64  1  0.55464643  0.87131339  0.34850118  1
  N  N65  1  0.44425024  0.76091561  0.08202193  1
  N  N66  1  0.24734947  0.85942092  0.85989642  1
  N  N67  1  0.11259075  0.76177538  0.60427279  1
  N  N68  1  0.88772513  0.87424857  0.35558554  1
  N  N69  1  0.77866883  0.76039819  0.10353853  1
  N  N70  1  0.54301685  0.85968313  0.86115676  1
  N  N71  1  0.44410581  0.76077175  0.60006049  1
