# generated using pymatgen
data_Al17BN18
_symmetry_space_group_name_H-M   'P 1'
_cell_length_a   9.29964266
_cell_length_b   9.29964265
_cell_length_c   9.93925130
_cell_angle_alpha   89.99396329
_cell_angle_beta   89.99395595
_cell_angle_gamma   60.00210520
_symmetry_Int_Tables_number   1
_chemical_formula_structural   Al17BN18
_chemical_formula_sum   'Al34 B2 N36'
_cell_volume   744.43371558
_cell_formula_units_Z   2
loop_
 _symmetry_equiv_pos_site_id
 _symmetry_equiv_pos_as_xyz
  1  'x, y, z'
loop_
 _atom_site_type_symbol
 _atom_site_label
 _atom_site_symmetry_multiplicity
 _atom_site_fract_x
 _atom_site_fract_y
 _atom_site_fract_z
 _atom_site_occupancy
  Al  Al0  1  0.10661516  0.09534062  0.41493819  1
  Al  Al1  1  0.22118451  0.20464416  0.16120955  1
  Al  Al2  1  0.77897932  0.09564454  0.90540303  1
  Al  Al3  1  0.44525940  0.09241724  0.41084900  1
  Al  Al4  1  0.55693545  0.20495099  0.16070002  1
  Al  Al5  1  0.11400375  0.09194738  0.90466402  1
  Al  Al6  1  0.21711235  0.20693504  0.66094069  1
  Al  Al7  1  0.78056764  0.09723336  0.41530020  1
  Al  Al8  1  0.88899814  0.20566428  0.15912336  1
  Al  Al9  1  0.44260319  0.09134488  0.91096679  1
  Al  Al10  1  0.55921582  0.20715227  0.66116503  1
  Al  Al11  1  0.11092765  0.42759331  0.41083969  1
  Al  Al12  1  0.22220718  0.53887315  0.16144812  1
  Al  Al13  1  0.77528106  0.43066977  0.90466398  1
  Al  Al14  1  0.89026852  0.53377872  0.66094066  1
  Al  Al15  1  0.44543026  0.42864352  0.41053437  1
  Al  Al16  1  0.55597057  0.54044952  0.15398577  1
  Al  Al17  1  0.11111708  0.42778235  0.91179280  1
  Al  Al18  1  0.22230515  0.53897192  0.66106899  1
  Al  Al19  1  0.77867445  0.42328182  0.41493813  1
  Al  Al20  1  0.88797833  0.53785084  0.16120966  1
  Al  Al21  1  0.44293660  0.43293128  0.91140645  1
  Al  Al22  1  0.55591041  0.53966695  0.66510456  1
  Al  Al23  1  0.11197726  0.76209666  0.41053440  1
  Al  Al24  1  0.22378450  0.87263552  0.15398550  1
  Al  Al25  1  0.77467870  0.75926887  0.91096665  1
  Al  Al26  1  0.89048504  0.87588310  0.66116491  1
  Al  Al27  1  0.44447937  0.76114621  0.40901154  1
  Al  Al28  1  0.55424974  0.87091512  0.15434117  1
  Al  Al29  1  0.11626473  0.75960277  0.91140642  1
  Al  Al30  1  0.22300147  0.87257585  0.66510484  1
  Al  Al31  1  0.77575019  0.76192644  0.41084907  1
  Al  Al32  1  0.88828506  0.87360146  0.16070003  1
  Al  Al33  1  0.55277358  0.86943986  0.66581773  1
  B  B34  1  0.88831502  0.20498092  0.66545968  1
  B  B35  1  0.44438885  0.76105464  0.91418466  1
  N  N36  1  0.22130122  0.20382746  0.35396481  1
  N  N37  1  0.10923648  0.09578198  0.09634667  1
  N  N38  1  0.88902186  0.20568769  0.83094129  1
  N  N39  1  0.79034822  0.10701501  0.60929899  1
  N  N40  1  0.55758344  0.20439157  0.35390080  1
  N  N41  1  0.44373273  0.09533500  0.10185367  1
  N  N42  1  0.22199489  0.20669469  0.85081696  1
  N  N43  1  0.08718585  0.10458026  0.61061740  1
  N  N44  1  0.88910713  0.20577359  0.34850304  1
  N  N45  1  0.77857654  0.09524240  0.09763683  1
  N  N46  1  0.55444243  0.20636314  0.85189060  1
  N  N47  1  0.44542095  0.09262860  0.60378041  1
  N  N48  1  0.22236795  0.53903418  0.35240110  1
  N  N49  1  0.11086502  0.42753080  0.10325393  1
  N  N50  1  0.89002903  0.53866042  0.85081701  1
  N  N51  1  0.78791446  0.40385176  0.61061733  1
  N  N52  1  0.55702340  0.53944948  0.34813907  1
  N  N53  1  0.44432558  0.42755439  0.10199370  1
  N  N54  1  0.22196497  0.53863102  0.85180992  1
  N  N55  1  0.11139768  0.42806406  0.60109704  1
  N  N56  1  0.88716141  0.53796778  0.35396497  1
  N  N57  1  0.77911656  0.42590231  0.09634659  1
  N  N58  1  0.54275548  0.56401616  0.85821585  1
  N  N59  1  0.44510962  0.42925837  0.60258759  1
  N  N60  1  0.22278308  0.87368960  0.34813890  1
  N  N61  1  0.11088845  0.76099139  0.10199367  1
  N  N62  1  0.88969694  0.87110814  0.85189042  1
  N  N63  1  0.77596215  0.76208739  0.60378042  1
  N  N64  1  0.55464644  0.87131315  0.34681786  1
  N  N65  1  0.44425081  0.76091592  0.08034070  1
  N  N66  1  0.24735018  0.85942140  0.85821610  1
  N  N67  1  0.11259162  0.76177633  0.60258769  1
  N  N68  1  0.88772544  0.87424948  0.35390075  1
  N  N69  1  0.77866933  0.76039866  0.10185351  1
  N  N70  1  0.54301755  0.85968356  0.85947517  1
  N  N71  1  0.44410634  0.76077211  0.59838105  1
