# generated using pymatgen
data_Al17BN18
_symmetry_space_group_name_H-M   'P 1'
_cell_length_a   9.35975106
_cell_length_b   9.35975112
_cell_length_c   10.08416322
_cell_angle_alpha   90.24531916
_cell_angle_beta   90.24540027
_cell_angle_gamma   60.10798520
_symmetry_Int_Tables_number   1
_chemical_formula_structural   Al17BN18
_chemical_formula_sum   'Al34 B2 N36'
_cell_volume   765.88810194
_cell_formula_units_Z   2
loop_
 _symmetry_equiv_pos_site_id
 _symmetry_equiv_pos_as_xyz
  1  'x, y, z'
loop_
 _atom_site_type_symbol
 _atom_site_label
 _atom_site_symmetry_multiplicity
 _atom_site_fract_x
 _atom_site_fract_y
 _atom_site_fract_z
 _atom_site_occupancy
  Al  Al0  1  0.10422482  0.10081558  0.39315937  1
  Al  Al1  1  0.22200854  0.20176344  0.13651965  1
  Al  Al2  1  0.78175507  0.09844356  0.87009242  1
  Al  Al3  1  0.43889427  0.09663749  0.39111855  1
  Al  Al4  1  0.55335547  0.21105782  0.06511872  1
  Al  Al5  1  0.11137997  0.09490593  0.87583910  1
  Al  Al6  1  0.21321344  0.21075702  0.63876364  1
  Al  Al7  1  0.78358695  0.10027177  0.38972359  1
  Al  Al8  1  0.88932748  0.20601295  0.13342896  1
  Al  Al9  1  0.43686954  0.09264762  0.87445815  1
  Al  Al10  1  0.55730265  0.21309091  0.58182108  1
  Al  Al11  1  0.10872914  0.42541349  0.38206787  1
  Al  Al12  1  0.22455073  0.54123420  0.07420192  1
  Al  Al13  1  0.77822369  0.42806412  0.87583892  1
  Al  Al14  1  0.89407274  0.52989912  0.63876339  1
  Al  Al15  1  0.44820529  0.42796230  0.31974436  1
  Al  Al16  1  0.54914836  0.54573753  0.06311674  1
  Al  Al17  1  0.10832095  0.42500477  0.89136457  1
  Al  Al18  1  0.22496077  0.54164301  0.56490245  1
  Al  Al19  1  0.78413075  0.42091048  0.39315911  1
  Al  Al20  1  0.88508094  0.53869344  0.13651975  1
  Al  Al21  1  0.43920105  0.43675585  0.81750320  1
  Al  Al22  1  0.55506166  0.53858720  0.58045487  1
  Al  Al23  1  0.11127778  0.76488865  0.31974413  1
  Al  Al24  1  0.22905418  0.86583038  0.06311679  1
  Al  Al25  1  0.77596344  0.75355530  0.87445755  1
  Al  Al26  1  0.89640801  0.87398542  0.58182038  1
  Al  Al27  1  0.44394659  0.76063264  0.32284317  1
  Al  Al28  1  0.54968799  0.86636957  0.06654283  1
  Al  Al29  1  0.12007095  0.75588545  0.81750316  1
  Al  Al30  1  0.22190337  0.87174436  0.58045454  1
  Al  Al31  1  0.77995072  0.75558047  0.39111819  1
  Al  Al32  1  0.89437306  0.87004284  0.06511799  1
  Al  Al33  1  0.55150944  0.86819545  0.58602425  1
  B  B34  1  0.88997028  0.20665426  0.64193358  1
  B  B35  1  0.44332482  0.76000862  0.81435061  1
  N  N36  1  0.22126393  0.20241401  0.32672737  1
  N  N37  1  0.10746635  0.09751391  0.06891630  1
  N  N38  1  0.89044096  0.20712578  0.80413953  1
  N  N39  1  0.79367949  0.11036291  0.59027519  1
  N  N40  1  0.55456506  0.21079598  0.38187919  1
  N  N41  1  0.43918127  0.09540111  0.07439754  1
  N  N42  1  0.21715155  0.20990470  0.82469868  1
  N  N43  1  0.08392034  0.11077229  0.58728570  1
  N  N44  1  0.89011810  0.20680382  0.32154319  1
  N  N45  1  0.78170885  0.09839617  0.07132545  1
  N  N46  1  0.55122854  0.21242209  0.86613056  1
  N  N47  1  0.43753154  0.09872541  0.59010270  1
  N  N48  1  0.22517526  0.54185874  0.37310757  1
  N  N49  1  0.10810662  0.42478954  0.08315627  1
  N  N50  1  0.89322085  0.53383714  0.82469837  1
  N  N51  1  0.79408899  0.40060467  0.58728550  1
  N  N52  1  0.55244832  0.54250539  0.38736966  1
  N  N53  1  0.44755698  0.42868918  0.12953355  1
  N  N54  1  0.22412181  0.54080619  0.88290449  1
  N  N55  1  0.10915767  0.42584201  0.57336596  1
  N  N56  1  0.88572919  0.53794975  0.32672737  1
  N  N57  1  0.78083151  0.42415128  0.06891604  1
  N  N58  1  0.53919609  0.56603741  0.86898709  1
  N  N59  1  0.44005573  0.43281612  0.63157110  1
  N  N60  1  0.22581965  0.86913311  0.38736937  1
  N  N61  1  0.11200476  0.76424063  0.12953333  1
  N  N62  1  0.89573652  0.86791618  0.86613002  1
  N  N63  1  0.78203967  0.75421723  0.59010234  1
  N  N64  1  0.55157469  0.86826147  0.38491703  1
  N  N65  1  0.44315752  0.75984071  0.13473947  1
  N  N66  1  0.24935375  0.85587912  0.86898710  1
  N  N67  1  0.11613285  0.75673813  0.63157099  1
  N  N68  1  0.89411114  0.87124971  0.38187871  1
  N  N69  1  0.77871884  0.75586587  0.07439700  1
  N  N70  1  0.53958347  0.85626772  0.86606567  1
  N  N71  1  0.44285892  0.75954302  0.65213379  1
