# generated using pymatgen
data_Al17BN18
_symmetry_space_group_name_H-M   'P 1'
_cell_length_a   9.30346009
_cell_length_b   9.30688461
_cell_length_c   9.98373934
_cell_angle_alpha   90.03801344
_cell_angle_beta   89.83640043
_cell_angle_gamma   60.01486681
_symmetry_Int_Tables_number   1
_chemical_formula_structural   Al17BN18
_chemical_formula_sum   'Al34 B2 N36'
_cell_volume   748.74631719
_cell_formula_units_Z   2
loop_
 _symmetry_equiv_pos_site_id
 _symmetry_equiv_pos_as_xyz
  1  'x, y, z'
loop_
 _atom_site_type_symbol
 _atom_site_label
 _atom_site_symmetry_multiplicity
 _atom_site_fract_x
 _atom_site_fract_y
 _atom_site_fract_z
 _atom_site_occupancy
  Al  Al0  1  0.10425713  0.09957763  0.40151887  1
  Al  Al1  1  0.22193520  0.20373614  0.14733187  1
  Al  Al2  1  0.77856618  0.09590749  0.89356625  1
  Al  Al3  1  0.44492374  0.09479356  0.39960902  1
  Al  Al4  1  0.55674786  0.20502804  0.14758264  1
  Al  Al5  1  0.11505823  0.09066614  0.88928562  1
  Al  Al6  1  0.21663895  0.20809642  0.64861519  1
  Al  Al7  1  0.78068085  0.09727963  0.40146100  1
  Al  Al8  1  0.88927409  0.20574234  0.14513694  1
  Al  Al9  1  0.44167771  0.09036681  0.89818303  1
  Al  Al10  1  0.55950925  0.20679570  0.64952158  1
  Al  Al11  1  0.11086302  0.42802319  0.39722806  1
  Al  Al12  1  0.22294484  0.53926477  0.14786377  1
  Al  Al13  1  0.77380726  0.43235361  0.89206201  1
  Al  Al14  1  0.89075299  0.53367368  0.64896945  1
  Al  Al15  1  0.44512652  0.42698498  0.39945385  1
  Al  Al16  1  0.55712657  0.53839012  0.14934855  1
  Al  Al17  1  0.11045293  0.42773083  0.90017230  1
  Al  Al18  1  0.22174260  0.53789146  0.64909626  1
  Al  Al19  1  0.78053624  0.42190423  0.40365372  1
  Al  Al20  1  0.88667492  0.53866505  0.14831994  1
  Al  Al21  1  0.44209299  0.43409132  0.89879962  1
  Al  Al22  1  0.55650252  0.53827838  0.64515577  1
  Al  Al23  1  0.10979023  0.76116839  0.39785998  1
  Al  Al24  1  0.22412522  0.87259270  0.14417459  1
  Al  Al25  1  0.77307342  0.75883960  0.89850257  1
  Al  Al26  1  0.88973879  0.87662637  0.64963848  1
  Al  Al27  1  0.44635082  0.76042400  0.38595908  1
  Al  Al28  1  0.55561023  0.87173289  0.14980868  1
  Al  Al29  1  0.11732919  0.75903422  0.89657273  1
  Al  Al30  1  0.22185871  0.87347133  0.63366298  1
  Al  Al31  1  0.77808098  0.76193733  0.40000797  1
  Al  Al32  1  0.88865700  0.87348055  0.14682149  1
  Al  Al33  1  0.55324663  0.86978694  0.64557419  1
  B  B34  1  0.88785424  0.20618105  0.65259038  1
  B  B35  1  0.44239742  0.76159461  0.86325932  1
  N  N36  1  0.22182044  0.20451278  0.33985812  1
  N  N37  1  0.10978824  0.09473355  0.08128500  1
  N  N38  1  0.88818215  0.20617682  0.81787035  1
  N  N39  1  0.79036961  0.10703057  0.59585879  1
  N  N40  1  0.55761063  0.20456997  0.34047313  1
  N  N41  1  0.44511589  0.09386091  0.08814093  1
  N  N42  1  0.22174644  0.20703732  0.83765528  1
  N  N43  1  0.08528326  0.10834672  0.59669110  1
  N  N44  1  0.88875042  0.20648317  0.33422158  1
  N  N45  1  0.77869615  0.09524997  0.08473647  1
  N  N46  1  0.55431030  0.20612988  0.83952753  1
  N  N47  1  0.44432147  0.09453282  0.59158437  1
  N  N48  1  0.22294600  0.53873476  0.33854602  1
  N  N49  1  0.11073501  0.42760148  0.09054358  1
  N  N50  1  0.88978389  0.53867573  0.83818817  1
  N  N51  1  0.78937489  0.40303740  0.59841539  1
  N  N52  1  0.56087397  0.53230792  0.34203533  1
  N  N53  1  0.44562087  0.42739706  0.08839963  1
  N  N54  1  0.22178976  0.53776718  0.83896933  1
  N  N55  1  0.11115187  0.42790819  0.58752300  1
  N  N56  1  0.88697418  0.53837636  0.34111970  1
  N  N57  1  0.77814854  0.42603581  0.08279415  1
  N  N58  1  0.54002739  0.56827882  0.83927428  1
  N  N59  1  0.44401187  0.42781078  0.59057520  1
  N  N60  1  0.21731146  0.87702797  0.34571968  1
  N  N61  1  0.11146584  0.76142270  0.08719165  1
  N  N62  1  0.88885880  0.87138763  0.83944919  1
  N  N63  1  0.77815208  0.76122586  0.59192783  1
  N  N64  1  0.55877855  0.87499411  0.34082401  1
  N  N65  1  0.44630406  0.75975428  0.10882828  1
  N  N66  1  0.25114601  0.85715806  0.83828879  1
  N  N67  1  0.11038183  0.75927201  0.58924969  1
  N  N68  1  0.88780186  0.87428759  0.33961040  1
  N  N69  1  0.77794585  0.76124317  0.08833192  1
  N  N70  1  0.54019475  0.85747330  0.84045739  1
  N  N71  1  0.44715349  0.75878987  0.57907276  1
