# generated using pymatgen
data_Al17BN18
_symmetry_space_group_name_H-M   'P 1'
_cell_length_a   9.31869737
_cell_length_b   9.31276520
_cell_length_c   10.00572533
_cell_angle_alpha   89.74559921
_cell_angle_beta   90.04816179
_cell_angle_gamma   60.02423119
_symmetry_Int_Tables_number   1
_chemical_formula_structural   Al17BN18
_chemical_formula_sum   'Al34 B2 N36'
_cell_volume   752.16318121
_cell_formula_units_Z   2
loop_
 _symmetry_equiv_pos_site_id
 _symmetry_equiv_pos_as_xyz
  1  'x, y, z'
loop_
 _atom_site_type_symbol
 _atom_site_label
 _atom_site_symmetry_multiplicity
 _atom_site_fract_x
 _atom_site_fract_y
 _atom_site_fract_z
 _atom_site_occupancy
  Al  Al0  1  0.11397392  0.09154005  0.30594264  1
  Al  Al1  1  0.22321801  0.20471000  0.05744424  1
  Al  Al2  1  0.78053539  0.09660806  0.81162492  1
  Al  Al3  1  0.44484457  0.09340303  0.30983191  1
  Al  Al4  1  0.55498207  0.20499656  0.05734483  1
  Al  Al5  1  0.11174924  0.09340192  0.81189473  1
  Al  Al6  1  0.21593288  0.20797490  0.55871287  1
  Al  Al7  1  0.77707828  0.09297715  0.30543835  1
  Al  Al8  1  0.89037736  0.20171610  0.07668574  1
  Al  Al9  1  0.44326103  0.09047502  0.80800490  1
  Al  Al10  1  0.55962870  0.20843654  0.55943318  1
  Al  Al11  1  0.11094174  0.42691307  0.30950660  1
  Al  Al12  1  0.22163891  0.53925748  0.06020635  1
  Al  Al13  1  0.77495160  0.42991462  0.86510964  1
  Al  Al14  1  0.89297574  0.53479532  0.56397643  1
  Al  Al15  1  0.44591921  0.42799072  0.31006049  1
  Al  Al16  1  0.54551317  0.54808038  0.05717650  1
  Al  Al17  1  0.11289296  0.42807357  0.80816047  1
  Al  Al18  1  0.22246481  0.53967162  0.55720472  1
  Al  Al19  1  0.78062625  0.41955938  0.35720324  1
  Al  Al20  1  0.89054754  0.54209803  0.06011445  1
  Al  Al21  1  0.44157321  0.43344555  0.80884672  1
  Al  Al22  1  0.55643542  0.53678346  0.57168370  1
  Al  Al23  1  0.11121190  0.76334560  0.30908786  1
  Al  Al24  1  0.22787337  0.86966450  0.05310915  1
  Al  Al25  1  0.77309516  0.76077410  0.80737654  1
  Al  Al26  1  0.89123790  0.87740887  0.55877774  1
  Al  Al27  1  0.44423893  0.76092180  0.31230713  1
  Al  Al28  1  0.55268303  0.86933313  0.05602456  1
  Al  Al29  1  0.11609600  0.75932190  0.80856958  1
  Al  Al30  1  0.21716901  0.87656141  0.56519403  1
  Al  Al31  1  0.77617884  0.76136996  0.31050508  1
  Al  Al32  1  0.88790177  0.87178857  0.05666918  1
  Al  Al33  1  0.55375948  0.87196063  0.56389503  1
  B  B34  1  0.88833892  0.20814715  0.59754564  1
  B  B35  1  0.44292178  0.76198515  0.80486882  1
  N  N36  1  0.22239869  0.20436917  0.36926111  1
  N  N37  1  0.11987849  0.08796341  0.11438942  1
  N  N38  1  0.89417415  0.19785977  0.87686428  1
  N  N39  1  0.79276206  0.11008120  0.61648243  1
  N  N40  1  0.55630586  0.20491804  0.36957452  1
  N  N41  1  0.44532113  0.09245495  0.11721076  1
  N  N42  1  0.22239129  0.20592837  0.86667299  1
  N  N43  1  0.08144967  0.11017703  0.61754161  1
  N  N44  1  0.89140815  0.20117295  0.33281501  1
  N  N45  1  0.77378324  0.08982504  0.11551160  1
  N  N46  1  0.55551390  0.20587335  0.86572887  1
  N  N47  1  0.44386092  0.09578701  0.61802850  1
  N  N48  1  0.22234308  0.53917838  0.36708422  1
  N  N49  1  0.11160522  0.42669677  0.11946642  1
  N  N50  1  0.89336238  0.54171483  0.86624186  1
  N  N51  1  0.79453158  0.39608732  0.59361614  1
  N  N52  1  0.55155123  0.54195998  0.37755972  1
  N  N53  1  0.44471484  0.42790110  0.11832769  1
  N  N54  1  0.22228441  0.53879505  0.87034563  1
  N  N55  1  0.11372840  0.42771025  0.61887853  1
  N  N56  1  0.89007360  0.53991799  0.37139201  1
  N  N57  1  0.77204869  0.43270608  0.07945987  1
  N  N58  1  0.53743578  0.56729871  0.85936120  1
  N  N59  1  0.44250609  0.42784252  0.62039163  1
  N  N60  1  0.22393126  0.87180856  0.37465488  1
  N  N61  1  0.11147155  0.76305792  0.11637665  1
  N  N62  1  0.88865103  0.87168560  0.86525799  1
  N  N63  1  0.77802271  0.76258541  0.61801227  1
  N  N64  1  0.55471154  0.87127386  0.37285559  1
  N  N65  1  0.44286125  0.76197225  0.12382294  1
  N  N66  1  0.24679809  0.86071837  0.85876754  1
  N  N67  1  0.11132916  0.76016018  0.61926629  1
  N  N68  1  0.88869984  0.87187810  0.36917815  1
  N  N69  1  0.77556283  0.76240974  0.11846457  1
  N  N70  1  0.54309474  0.85958657  0.86191922  1
  N  N71  1  0.44299154  0.76310342  0.63961296  1
