# generated using pymatgen
data_Al17BN18
_symmetry_space_group_name_H-M   'P 1'
_cell_length_a   9.32062404
_cell_length_b   9.32052945
_cell_length_c   10.06228276
_cell_angle_alpha   89.76755444
_cell_angle_beta   89.79132128
_cell_angle_gamma   60.10414338
_symmetry_Int_Tables_number   1
_chemical_formula_structural   Al17BN18
_chemical_formula_sum   'Al34 B2 N36'
_cell_volume   757.81498843
_cell_formula_units_Z   2
loop_
 _symmetry_equiv_pos_site_id
 _symmetry_equiv_pos_as_xyz
  1  'x, y, z'
loop_
 _atom_site_type_symbol
 _atom_site_label
 _atom_site_symmetry_multiplicity
 _atom_site_fract_x
 _atom_site_fract_y
 _atom_site_fract_z
 _atom_site_occupancy
  Al  Al0  1  0.10106351  0.09710968  0.37472356  1
  Al  Al1  1  0.22595262  0.20759195  0.05882153  1
  Al  Al2  1  0.77941041  0.09609202  0.80486071  1
  Al  Al3  1  0.44417921  0.09291473  0.30935736  1
  Al  Al4  1  0.55636725  0.20492094  0.05538982  1
  Al  Al5  1  0.11250200  0.09306066  0.86975007  1
  Al  Al6  1  0.21891361  0.20970511  0.56270288  1
  Al  Al7  1  0.77402867  0.09064179  0.30486334  1
  Al  Al8  1  0.89082176  0.20813473  0.11880424  1
  Al  Al9  1  0.44450262  0.09022634  0.80682787  1
  Al  Al10  1  0.56045534  0.20744172  0.55811558  1
  Al  Al11  1  0.11022430  0.42714451  0.30956332  1
  Al  Al12  1  0.22180783  0.53851539  0.05937232  1
  Al  Al13  1  0.77635783  0.42920279  0.86903109  1
  Al  Al14  1  0.89315489  0.53595067  0.56348204  1
  Al  Al15  1  0.44521344  0.42855942  0.30912287  1
  Al  Al16  1  0.54578837  0.54710203  0.05517173  1
  Al  Al17  1  0.11269104  0.42917887  0.80779771  1
  Al  Al18  1  0.22255056  0.53917459  0.55700765  1
  Al  Al19  1  0.78071314  0.41717010  0.37693364  1
  Al  Al20  1  0.89080738  0.54263971  0.05825176  1
  Al  Al21  1  0.44220052  0.43306567  0.80838113  1
  Al  Al22  1  0.55424559  0.53742238  0.57109897  1
  Al  Al23  1  0.11192568  0.76158866  0.30896016  1
  Al  Al24  1  0.23044348  0.86244066  0.05573782  1
  Al  Al25  1  0.77336420  0.76156371  0.80684023  1
  Al  Al26  1  0.89075060  0.87723835  0.55801604  1
  Al  Al27  1  0.44466699  0.76064890  0.31197643  1
  Al  Al28  1  0.55296498  0.86958249  0.05511354  1
  Al  Al29  1  0.11638815  0.75911537  0.80834377  1
  Al  Al30  1  0.22031367  0.87138295  0.57018154  1
  Al  Al31  1  0.77642262  0.76038448  0.30949218  1
  Al  Al32  1  0.88821783  0.87303440  0.05543534  1
  Al  Al33  1  0.55433153  0.87127899  0.56364458  1
  B  B34  1  0.89062208  0.20686928  0.61906814  1
  B  B35  1  0.44320790  0.76036429  0.80508467  1
  N  N36  1  0.22403827  0.20640099  0.37019006  1
  N  N37  1  0.11108140  0.09114138  0.06765720  1
  N  N38  1  0.89282601  0.20919033  0.82006027  1
  N  N39  1  0.78943264  0.10605924  0.61199219  1
  N  N40  1  0.55545192  0.20573878  0.36856495  1
  N  N41  1  0.44615333  0.09210307  0.11799962  1
  N  N42  1  0.22708258  0.21011560  0.86638073  1
  N  N43  1  0.07842508  0.11008298  0.57601479  1
  N  N44  1  0.89002255  0.20730580  0.30864741  1
  N  N45  1  0.77400292  0.09066061  0.11426762  1
  N  N46  1  0.55694140  0.20577271  0.86534755  1
  N  N47  1  0.44533941  0.09483077  0.61789949  1
  N  N48  1  0.22209133  0.53857597  0.36754459  1
  N  N49  1  0.11044416  0.42741507  0.12056489  1
  N  N50  1  0.89342872  0.54386385  0.86574746  1
  N  N51  1  0.79336738  0.39527354  0.57699838  1
  N  N52  1  0.54993874  0.54240258  0.37658094  1
  N  N53  1  0.44468376  0.42769104  0.11779722  1
  N  N54  1  0.22248844  0.53927995  0.87066412  1
  N  N55  1  0.11258162  0.42887767  0.61985574  1
  N  N56  1  0.88983362  0.54043565  0.37096874  1
  N  N57  1  0.77442347  0.42775411  0.06641347  1
  N  N58  1  0.53832972  0.56701716  0.85827715  1
  N  N59  1  0.44209405  0.42699513  0.62041036  1
  N  N60  1  0.22598551  0.86639016  0.37572816  1
  N  N61  1  0.11097592  0.76124966  0.11778418  1
  N  N62  1  0.88911075  0.87366862  0.86539519  1
  N  N63  1  0.77791233  0.76248161  0.61799600  1
  N  N64  1  0.55479396  0.87130402  0.37287478  1
  N  N65  1  0.44447262  0.76076355  0.12422593  1
  N  N66  1  0.25015258  0.85526571  0.85882330  1
  N  N67  1  0.11041675  0.75886411  0.62024340  1
  N  N68  1  0.88918238  0.87192964  0.36847030  1
  N  N69  1  0.77554604  0.76257897  0.11799971  1
  N  N70  1  0.54331520  0.86014397  0.86207100  1
  N  N71  1  0.44438828  0.76178226  0.64015101  1
