# generated using pymatgen
data_Al17BN18
_symmetry_space_group_name_H-M   'P 1'
_cell_length_a   9.32455305
_cell_length_b   9.32106271
_cell_length_c   10.04814249
_cell_angle_alpha   89.99146333
_cell_angle_beta   89.98436321
_cell_angle_gamma   60.14791010
_symmetry_Int_Tables_number   1
_chemical_formula_structural   Al17BN18
_chemical_formula_sum   'Al34 B2 N36'
_cell_volume   757.45217488
_cell_formula_units_Z   2
loop_
 _symmetry_equiv_pos_site_id
 _symmetry_equiv_pos_as_xyz
  1  'x, y, z'
loop_
 _atom_site_type_symbol
 _atom_site_label
 _atom_site_symmetry_multiplicity
 _atom_site_fract_x
 _atom_site_fract_y
 _atom_site_fract_z
 _atom_site_occupancy
  Al  Al0  1  0.10412089  0.10315815  0.40508500  1
  Al  Al1  1  0.22125372  0.20413082  0.14842660  1
  Al  Al2  1  0.77801469  0.09545843  0.89480508  1
  Al  Al3  1  0.44512350  0.09390514  0.40058689  1
  Al  Al4  1  0.55680204  0.20811112  0.14850720  1
  Al  Al5  1  0.11163419  0.09630676  0.88511350  1
  Al  Al6  1  0.21674613  0.20776997  0.64960807  1
  Al  Al7  1  0.78040516  0.09812474  0.40260864  1
  Al  Al8  1  0.88969847  0.20618157  0.14547474  1
  Al  Al9  1  0.44287326  0.08905150  0.90016552  1
  Al  Al10  1  0.55970590  0.20378899  0.65109091  1
  Al  Al11  1  0.11177944  0.42803681  0.39711265  1
  Al  Al12  1  0.22387853  0.54042545  0.14720545  1
  Al  Al13  1  0.77944015  0.42835091  0.88472545  1
  Al  Al14  1  0.89168689  0.53340042  0.64964364  1
  Al  Al15  1  0.44330018  0.42610858  0.40196478  1
  Al  Al16  1  0.55243155  0.55108002  0.07367959  1
  Al  Al17  1  0.11049848  0.42711524  0.90192460  1
  Al  Al18  1  0.22050059  0.53517926  0.64993063  1
  Al  Al19  1  0.78652101  0.42098055  0.40511898  1
  Al  Al20  1  0.88814655  0.53793668  0.14846926  1
  Al  Al21  1  0.44020818  0.42876455  0.89299186  1
  Al  Al22  1  0.55740312  0.53631666  0.59671592  1
  Al  Al23  1  0.10986198  0.76004633  0.39848806  1
  Al  Al24  1  0.23328019  0.86788305  0.07298542  1
  Al  Al25  1  0.77234120  0.75961952  0.90026328  1
  Al  Al26  1  0.88593220  0.87719778  0.64995237  1
  Al  Al27  1  0.44242493  0.75868338  0.33388428  1
  Al  Al28  1  0.55939263  0.87674752  0.15032335  1
  Al  Al29  1  0.11279019  0.75775311  0.88528357  1
  Al  Al30  1  0.21999896  0.87347309  0.59596628  1
  Al  Al31  1  0.77697134  0.76174307  0.40051405  1
  Al  Al32  1  0.89079171  0.87390682  0.14769351  1
  Al  Al33  1  0.55536288  0.87201973  0.65520737  1
  B  B34  1  0.88962611  0.20618246  0.65433514  1
  B  B35  1  0.44091245  0.75706656  0.82067388  1
  N  N36  1  0.22208947  0.20463479  0.33990488  1
  N  N37  1  0.10792564  0.09912371  0.07990331  1
  N  N38  1  0.88793340  0.20427515  0.81774392  1
  N  N39  1  0.78894300  0.10667760  0.59551551  1
  N  N40  1  0.55758459  0.20624356  0.34040124  1
  N  N41  1  0.44395434  0.09611644  0.08983414  1
  N  N42  1  0.22302213  0.20785075  0.83753157  1
  N  N43  1  0.08236525  0.11158952  0.60134855  1
  N  N44  1  0.88982216  0.20650712  0.33446261  1
  N  N45  1  0.77833112  0.09593955  0.08555781  1
  N  N46  1  0.55522120  0.20302593  0.83967339  1
  N  N47  1  0.44336748  0.09176331  0.59094861  1
  N  N48  1  0.22417434  0.53952505  0.33783590  1
  N  N49  1  0.11158428  0.42768333  0.09135946  1
  N  N50  1  0.89140457  0.53972977  0.83757824  1
  N  N51  1  0.79527091  0.39899353  0.60176770  1
  N  N52  1  0.55688848  0.54527414  0.39990804  1
  N  N53  1  0.44413468  0.42717383  0.08594231  1
  N  N54  1  0.22076830  0.53538725  0.83763527  1
  N  N55  1  0.11037840  0.42655871  0.58604542  1
  N  N56  1  0.88848625  0.53864059  0.33993545  1
  N  N57  1  0.78313026  0.42457598  0.08002529  1
  N  N58  1  0.54091501  0.56736348  0.87589476  1
  N  N59  1  0.44002938  0.42179863  0.59396780  1
  N  N60  1  0.22877633  0.87314673  0.39975737  1
  N  N61  1  0.11012465  0.76058298  0.08678839  1
  N  N62  1  0.88481350  0.87294677  0.83888423  1
  N  N63  1  0.77489447  0.75984792  0.59067046  1
  N  N64  1  0.55927776  0.87612785  0.34140244  1
  N  N65  1  0.44238107  0.76007669  0.14487123  1
  N  N66  1  0.25107835  0.85767958  0.87537125  1
  N  N67  1  0.10592697  0.75650359  0.59725948  1
  N  N68  1  0.88861855  0.87496549  0.34052684  1
  N  N69  1  0.77878033  0.76080447  0.08986829  1
  N  N70  1  0.54600279  0.86253102  0.84565070  1
  N  N71  1  0.43867469  0.75507455  0.66038341  1
