# generated using pymatgen
data_Al17BN18
_symmetry_space_group_name_H-M   'P 1'
_cell_length_a   9.29747367
_cell_length_b   9.29605231
_cell_length_c   9.96347097
_cell_angle_alpha   89.90035216
_cell_angle_beta   90.02341351
_cell_angle_gamma   60.01505347
_symmetry_Int_Tables_number   1
_chemical_formula_structural   Al17BN18
_chemical_formula_sum   'Al34 B2 N36'
_cell_volume   745.88098447
_cell_formula_units_Z   2
loop_
 _symmetry_equiv_pos_site_id
 _symmetry_equiv_pos_as_xyz
  1  'x, y, z'
loop_
 _atom_site_type_symbol
 _atom_site_label
 _atom_site_symmetry_multiplicity
 _atom_site_fract_x
 _atom_site_fract_y
 _atom_site_fract_z
 _atom_site_occupancy
  Al  Al0  1  0.10963603  0.09392552  0.31341454  1
  Al  Al1  1  0.22210168  0.20484427  0.05941127  1
  Al  Al2  1  0.78034786  0.09717972  0.80847523  1
  Al  Al3  1  0.44499780  0.09306858  0.31029787  1
  Al  Al4  1  0.55622921  0.20500362  0.05920230  1
  Al  Al5  1  0.11074163  0.09398825  0.80907547  1
  Al  Al6  1  0.21628613  0.20730815  0.55925756  1
  Al  Al7  1  0.77906551  0.09554325  0.31300457  1
  Al  Al8  1  0.88892293  0.20503588  0.06419814  1
  Al  Al9  1  0.44296261  0.09064682  0.80877751  1
  Al  Al10  1  0.55948083  0.20766020  0.55976124  1
  Al  Al11  1  0.11077866  0.42741373  0.30972251  1
  Al  Al12  1  0.22218634  0.53903928  0.06032932  1
  Al  Al13  1  0.77712719  0.42741970  0.81066317  1
  Al  Al14  1  0.89028787  0.53305713  0.55989973  1
  Al  Al15  1  0.44590560  0.42840330  0.31013337  1
  Al  Al16  1  0.55311321  0.54412927  0.05581033  1
  Al  Al17  1  0.11129443  0.42812034  0.80915741  1
  Al  Al18  1  0.22214800  0.53923905  0.55824610  1
  Al  Al19  1  0.77751378  0.42575005  0.31392953  1
  Al  Al20  1  0.88814856  0.53878812  0.05990239  1
  Al  Al21  1  0.44249072  0.43320941  0.80943792  1
  Al  Al22  1  0.55896796  0.53538617  0.56686114  1
  Al  Al23  1  0.11172030  0.76259628  0.30965620  1
  Al  Al24  1  0.22736012  0.87016965  0.05519670  1
  Al  Al25  1  0.77366848  0.75979323  0.80884677  1
  Al  Al26  1  0.89062157  0.87646211  0.55966320  1
  Al  Al27  1  0.44431682  0.76068407  0.31224540  1
  Al  Al28  1  0.55268533  0.86933737  0.05593009  1
  Al  Al29  1  0.11622384  0.75952649  0.80921679  1
  Al  Al30  1  0.21838508  0.87580570  0.56605479  1
  Al  Al31  1  0.77647815  0.76137687  0.31065536  1
  Al  Al32  1  0.88814044  0.87290399  0.05904873  1
  Al  Al33  1  0.55416290  0.87121889  0.56476312  1
  B  B34  1  0.88893279  0.20598473  0.56886075  1
  B  B35  1  0.44460518  0.76181388  0.80539742  1
  N  N36  1  0.22242265  0.20493732  0.36906361  1
  N  N37  1  0.11278711  0.09165758  0.11986211  1
  N  N38  1  0.88963687  0.20535585  0.87524919  1
  N  N39  1  0.79124447  0.10814214  0.61470027  1
  N  N40  1  0.55553769  0.20545408  0.36925244  1
  N  N41  1  0.44549998  0.09227452  0.11730576  1
  N  N42  1  0.22146656  0.20547806  0.86800102  1
  N  N43  1  0.08415495  0.10839902  0.61591802  1
  N  N44  1  0.88932567  0.20530649  0.38033140  1
  N  N45  1  0.77746877  0.09389764  0.12113055  1
  N  N46  1  0.55630327  0.20510588  0.86692232  1
  N  N47  1  0.44370048  0.09568212  0.61851851  1
  N  N48  1  0.22245667  0.53909556  0.36737774  1
  N  N49  1  0.11090423  0.42735862  0.11889981  1
  N  N50  1  0.88896359  0.53819566  0.86848335  1
  N  N51  1  0.79151261  0.40099053  0.61696770  1
  N  N52  1  0.55522808  0.54018308  0.37526105  1
  N  N53  1  0.44596153  0.42842037  0.11747144  1
  N  N54  1  0.22194392  0.53876021  0.87008841  1
  N  N55  1  0.11153002  0.42819250  0.61885420  1
  N  N56  1  0.88857896  0.53855197  0.36951278  1
  N  N57  1  0.77517935  0.42892993  0.11988148  1
  N  N58  1  0.54421497  0.56340951  0.86071568  1
  N  N59  1  0.44317600  0.42817304  0.61998600  1
  N  N60  1  0.22391348  0.87146932  0.37469850  1
  N  N61  1  0.11179584  0.76281489  0.11698675  1
  N  N62  1  0.88827611  0.87293543  0.86677523  1
  N  N63  1  0.77876803  0.76056043  0.61860586  1
  N  N64  1  0.55475043  0.87124992  0.37315111  1
  N  N65  1  0.44402892  0.76076362  0.12297739  1
  N  N66  1  0.24652058  0.86133197  0.86014983  1
  N  N67  1  0.11126372  0.76014306  0.61976988  1
  N  N68  1  0.88910216  0.87181742  0.36917118  1
  N  N69  1  0.77567992  0.76202458  0.11761910  1
  N  N70  1  0.54289835  0.85968681  0.86181223  1
  N  N71  1  0.44409498  0.76128233  0.63995726  1
