# generated using pymatgen
data_Al17BN18
_symmetry_space_group_name_H-M   'P 1'
_cell_length_a   9.31977478
_cell_length_b   9.31987914
_cell_length_c   10.06124437
_cell_angle_alpha   89.80367583
_cell_angle_beta   89.78150493
_cell_angle_gamma   60.10110476
_symmetry_Int_Tables_number   1
_chemical_formula_structural   Al17BN18
_chemical_formula_sum   'Al34 B2 N36'
_cell_volume   757.59265272
_cell_formula_units_Z   2
loop_
 _symmetry_equiv_pos_site_id
 _symmetry_equiv_pos_as_xyz
  1  'x, y, z'
loop_
 _atom_site_type_symbol
 _atom_site_label
 _atom_site_symmetry_multiplicity
 _atom_site_fract_x
 _atom_site_fract_y
 _atom_site_fract_z
 _atom_site_occupancy
  Al  Al0  1  0.10318268  0.10397760  0.40301368  1
  Al  Al1  1  0.22135966  0.20475790  0.14849979  1
  Al  Al2  1  0.77866596  0.09556359  0.89405481  1
  Al  Al3  1  0.44500377  0.09368712  0.40193593  1
  Al  Al4  1  0.55706264  0.20614708  0.14824784  1
  Al  Al5  1  0.11241368  0.09564119  0.88623403  1
  Al  Al6  1  0.21682889  0.20787641  0.64944084  1
  Al  Al7  1  0.78044774  0.09704103  0.40261852  1
  Al  Al8  1  0.88937582  0.20541740  0.14563146  1
  Al  Al9  1  0.44277972  0.08919519  0.89964591  1
  Al  Al10  1  0.55974740  0.20521526  0.65098417  1
  Al  Al11  1  0.11150493  0.42817915  0.39817107  1
  Al  Al12  1  0.22301044  0.53986695  0.14799230  1
  Al  Al13  1  0.77860370  0.42943967  0.88704675  1
  Al  Al14  1  0.89099715  0.53348708  0.64946924  1
  Al  Al15  1  0.44239281  0.42441184  0.39936130  1
  Al  Al16  1  0.55261783  0.54961119  0.08017938  1
  Al  Al17  1  0.11077683  0.42738745  0.90080080  1
  Al  Al18  1  0.22059430  0.53708494  0.65010285  1
  Al  Al19  1  0.78737124  0.41979663  0.40248471  1
  Al  Al20  1  0.88837406  0.53796579  0.14864643  1
  Al  Al21  1  0.44040024  0.43070291  0.89456296  1
  Al  Al22  1  0.55694083  0.53713583  0.58987357  1
  Al  Al23  1  0.10775961  0.75913900  0.39989629  1
  Al  Al24  1  0.23338645  0.86906353  0.07844340  1
  Al  Al25  1  0.77244178  0.75945255  0.89973216  1
  Al  Al26  1  0.88820183  0.87657862  0.65097815  1
  Al  Al27  1  0.44176412  0.75895599  0.33661341  1
  Al  Al28  1  0.55948082  0.87607310  0.15227447  1
  Al  Al29  1  0.11374493  0.75696434  0.89387021  1
  Al  Al30  1  0.22045339  0.87362316  0.59062125  1
  Al  Al31  1  0.77704877  0.76168017  0.40189468  1
  Al  Al32  1  0.88991837  0.87353622  0.14812607  1
  Al  Al33  1  0.55466234  0.87132620  0.65376654  1
  B  B34  1  0.88961032  0.20671122  0.65297235  1
  B  B35  1  0.44216754  0.75846558  0.82928782  1
  N  N36  1  0.22222635  0.20523924  0.33987723  1
  N  N37  1  0.10768732  0.09993348  0.08104810  1
  N  N38  1  0.88815432  0.20545067  0.81746578  1
  N  N39  1  0.78975172  0.10654974  0.59561191  1
  N  N40  1  0.55788662  0.20421070  0.33976495  1
  N  N41  1  0.44421979  0.09476532  0.08932350  1
  N  N42  1  0.22301411  0.20786539  0.83729259  1
  N  N43  1  0.08289216  0.11166722  0.59965665  1
  N  N44  1  0.88931026  0.20558561  0.33363917  1
  N  N45  1  0.77871610  0.09520441  0.08486841  1
  N  N46  1  0.55514526  0.20438465  0.83973283  1
  N  N47  1  0.44397472  0.09276013  0.59187259  1
  N  N48  1  0.22274293  0.53966052  0.33718795  1
  N  N49  1  0.11145030  0.42792656  0.09027335  1
  N  N50  1  0.89112634  0.53958689  0.83743637  1
  N  N51  1  0.79478020  0.39971058  0.59916836  1
  N  N52  1  0.55801371  0.54089693  0.39274517  1
  N  N53  1  0.44367590  0.42615965  0.08734702  1
  N  N54  1  0.22096644  0.53729279  0.83784271  1
  N  N55  1  0.11064744  0.42741200  0.58688584  1
  N  N56  1  0.88869567  0.53890948  0.33988717  1
  N  N57  1  0.78347092  0.42411034  0.08180637  1
  N  N58  1  0.54025411  0.57038944  0.88059553  1
  N  N59  1  0.43971579  0.42271381  0.59161674  1
  N  N60  1  0.22427540  0.87468029  0.39380391  1
  N  N61  1  0.10976279  0.76021562  0.08665211  1
  N  N62  1  0.88731683  0.87201779  0.83965157  1
  N  N63  1  0.77605876  0.76062113  0.59182983  1
  N  N64  1  0.55913927  0.87576740  0.34334146  1
  N  N65  1  0.44272631  0.75991041  0.14809360  1
  N  N66  1  0.25349756  0.85699520  0.87963280  1
  N  N67  1  0.10595913  0.75639116  0.59218928  1
  N  N68  1  0.88779912  0.87442293  0.33976828  1
  N  N69  1  0.77829405  0.76075466  0.08940552  1
  N  N70  1  0.54482987  0.86146384  0.84527549  1
  N  N71  1  0.43966309  0.75595912  0.64954034  1
