# generated using pymatgen
data_Al17BN18
_symmetry_space_group_name_H-M   'P 1'
_cell_length_a   9.30866432
_cell_length_b   9.32115910
_cell_length_c   10.09823029
_cell_angle_alpha   90.03655474
_cell_angle_beta   90.10462062
_cell_angle_gamma   60.24072031
_symmetry_Int_Tables_number   1
_chemical_formula_structural   Al17BN18
_chemical_formula_sum   'Al34 B2 N36'
_cell_volume   760.64286426
_cell_formula_units_Z   2
loop_
 _symmetry_equiv_pos_site_id
 _symmetry_equiv_pos_as_xyz
  1  'x, y, z'
loop_
 _atom_site_type_symbol
 _atom_site_label
 _atom_site_symmetry_multiplicity
 _atom_site_fract_x
 _atom_site_fract_y
 _atom_site_fract_z
 _atom_site_occupancy
  Al  Al0  1  0.09846483  0.09736828  0.38464767  1
  Al  Al1  1  0.22367506  0.20676633  0.05427982  1
  Al  Al2  1  0.77774337  0.09558979  0.80180965  1
  Al  Al3  1  0.44134108  0.09361387  0.30827569  1
  Al  Al4  1  0.55566697  0.20495140  0.05675746  1
  Al  Al5  1  0.11282929  0.09253963  0.86049009  1
  Al  Al6  1  0.22137892  0.20943209  0.56462704  1
  Al  Al7  1  0.77323898  0.09141476  0.30673584  1
  Al  Al8  1  0.89198556  0.20583089  0.12359589  1
  Al  Al9  1  0.44621187  0.09038664  0.80590331  1
  Al  Al10  1  0.56089536  0.20731242  0.55711261  1
  Al  Al11  1  0.11650988  0.42261799  0.31037265  1
  Al  Al12  1  0.22127024  0.53820896  0.05941473  1
  Al  Al13  1  0.77951540  0.43122510  0.86838341  1
  Al  Al14  1  0.88719821  0.53279229  0.62562044  1
  Al  Al15  1  0.44674964  0.42901635  0.30868137  1
  Al  Al16  1  0.54631198  0.54641193  0.05239929  1
  Al  Al17  1  0.11898194  0.42719198  0.80776562  1
  Al  Al18  1  0.22271063  0.53958283  0.55528856  1
  Al  Al19  1  0.78499456  0.41847694  0.38482996  1
  Al  Al20  1  0.88256189  0.53481314  0.12482886  1
  Al  Al21  1  0.44338058  0.43360353  0.80759693  1
  Al  Al22  1  0.55400275  0.53838651  0.57025391  1
  Al  Al23  1  0.11223212  0.76206435  0.30837723  1
  Al  Al24  1  0.22902342  0.86316835  0.05178717  1
  Al  Al25  1  0.77004060  0.76849612  0.80787093  1
  Al  Al26  1  0.89053095  0.87740452  0.55684943  1
  Al  Al27  1  0.44360556  0.76040523  0.31174103  1
  Al  Al28  1  0.55164904  0.87008960  0.05403007  1
  Al  Al29  1  0.11670058  0.75832944  0.80711553  1
  Al  Al30  1  0.22221477  0.86980449  0.57264920  1
  Al  Al31  1  0.77201367  0.76702042  0.31039736  1
  Al  Al32  1  0.88808596  0.87238212  0.05598657  1
  Al  Al33  1  0.55405777  0.87243082  0.56222759  1
  B  B34  1  0.89299980  0.20833039  0.63594523  1
  B  B35  1  0.44444586  0.75984927  0.80378252  1
  N  N36  1  0.22329388  0.20489879  0.37256568  1
  N  N37  1  0.10431964  0.09279771  0.05625162  1
  N  N38  1  0.89362437  0.21345812  0.79672809  1
  N  N39  1  0.78779653  0.10431194  0.61201011  1
  N  N40  1  0.55387467  0.20625627  0.36772742  1
  N  N41  1  0.44320202  0.09249274  0.11705017  1
  N  N42  1  0.22846414  0.20901652  0.86309289  1
  N  N43  1  0.08278397  0.10822210  0.58164777  1
  N  N44  1  0.89018615  0.20772579  0.31206142  1
  N  N45  1  0.77373599  0.09048448  0.11604114  1
  N  N46  1  0.55820359  0.20683693  0.86682690  1
  N  N47  1  0.44717335  0.09471834  0.61824540  1
  N  N48  1  0.22284388  0.53917814  0.36670132  1
  N  N49  1  0.11550054  0.42300598  0.11829327  1
  N  N50  1  0.88890630  0.54035430  0.81959340  1
  N  N51  1  0.79421225  0.39865209  0.57677894  1
  N  N52  1  0.55149520  0.54244972  0.37745020  1
  N  N53  1  0.44565917  0.42803924  0.11775495  1
  N  N54  1  0.22361617  0.54002448  0.87129717  1
  N  N55  1  0.11736228  0.42765296  0.61693316  1
  N  N56  1  0.88397593  0.53598432  0.32192075  1
  N  N57  1  0.77925348  0.42236974  0.05815377  1
  N  N58  1  0.53938534  0.56730772  0.85807829  1
  N  N59  1  0.44298389  0.42714581  0.62018685  1
  N  N60  1  0.22561820  0.86674870  0.37791654  1
  N  N61  1  0.11125549  0.76133199  0.11758297  1
  N  N62  1  0.89033379  0.87540110  0.86656645  1
  N  N63  1  0.77537817  0.76816932  0.61536900  1
  N  N64  1  0.55238666  0.87310581  0.37246700  1
  N  N65  1  0.44365692  0.76030097  0.12326455  1
  N  N66  1  0.25116866  0.85446389  0.85590052  1
  N  N67  1  0.11036055  0.75840450  0.62010472  1
  N  N68  1  0.88979953  0.87205302  0.36806713  1
  N  N69  1  0.77208469  0.76647185  0.11532462  1
  N  N70  1  0.54263623  0.86163792  0.86215221  1
  N  N71  1  0.44657453  0.76108240  0.64030923  1
