# generated using pymatgen
data_Al17BN18
_symmetry_space_group_name_H-M   'P 1'
_cell_length_a   9.32817170
_cell_length_b   9.32817323
_cell_length_c   10.07663503
_cell_angle_alpha   90.16931474
_cell_angle_beta   90.16946542
_cell_angle_gamma   60.28549275
_symmetry_Int_Tables_number   1
_chemical_formula_structural   Al17BN18
_chemical_formula_sum   'Al34 B2 N36'
_cell_volume   761.51588365
_cell_formula_units_Z   2
loop_
 _symmetry_equiv_pos_site_id
 _symmetry_equiv_pos_as_xyz
  1  'x, y, z'
loop_
 _atom_site_type_symbol
 _atom_site_label
 _atom_site_symmetry_multiplicity
 _atom_site_fract_x
 _atom_site_fract_y
 _atom_site_fract_z
 _atom_site_occupancy
  Al  Al0  1  0.10129336  0.10086119  0.38505541  1
  Al  Al1  1  0.21819624  0.19999860  0.12336422  1
  Al  Al2  1  0.77849696  0.09518466  0.80157312  1
  Al  Al3  1  0.44998733  0.08935585  0.30931364  1
  Al  Al4  1  0.55550695  0.20500324  0.05572918  1
  Al  Al5  1  0.11392746  0.09509101  0.86669240  1
  Al  Al6  1  0.21568871  0.20554449  0.62334847  1
  Al  Al7  1  0.77474971  0.09143900  0.30667652  1
  Al  Al8  1  0.89033936  0.20702699  0.12306367  1
  Al  Al9  1  0.45171098  0.08694022  0.80661632  1
  Al  Al10  1  0.56045684  0.20738530  0.55662556  1
  Al  Al11  1  0.11172935  0.42842068  0.32525629  1
  Al  Al12  1  0.22219427  0.53888280  0.06039166  1
  Al  Al13  1  0.77840458  0.43061469  0.86669208  1
  Al  Al14  1  0.88885857  0.53237526  0.62334851  1
  Al  Al15  1  0.44753897  0.42924332  0.30770785  1
  Al  Al16  1  0.54649215  0.54668273  0.05177194  1
  Al  Al17  1  0.11360084  0.43028827  0.82733645  1
  Al  Al18  1  0.22298443  0.53967215  0.55456358  1
  Al  Al19  1  0.78417208  0.41798148  0.38505571  1
  Al  Al20  1  0.88330896  0.53488406  0.12336435  1
  Al  Al21  1  0.44302687  0.43354187  0.80655670  1
  Al  Al22  1  0.55339950  0.53867008  0.57060701  1
  Al  Al23  1  0.11255473  0.76422767  0.30770792  1
  Al  Al24  1  0.22999491  0.86317953  0.05177242  1
  Al  Al25  1  0.77025248  0.76839969  0.80661605  1
  Al  Al26  1  0.89069650  0.87714584  0.55662518  1
  Al  Al27  1  0.44373924  0.76042792  0.31164527  1
  Al  Al28  1  0.55278124  0.86946973  0.05311775  1
  Al  Al29  1  0.11685387  0.75971469  0.80655637  1
  Al  Al30  1  0.22198227  0.87008730  0.57060655  1
  Al  Al31  1  0.77266656  0.76667679  0.30931310  1
  Al  Al32  1  0.88831524  0.87219420  0.05572936  1
  Al  Al33  1  0.55484966  0.87153669  0.56157317  1
  B  B34  1  0.89174649  0.20843414  0.63528355  1
  B  B35  1  0.44375826  0.76044556  0.80334265  1
  N  N36  1  0.21961256  0.19889238  0.32122979  1
  N  N37  1  0.10618548  0.09527302  0.05712094  1
  N  N38  1  0.89502004  0.21170734  0.79750292  1
  N  N39  1  0.78795197  0.10464024  0.61142471  1
  N  N40  1  0.55511963  0.20689323  0.36733329  1
  N  N41  1  0.44947867  0.08933786  0.11457359  1
  N  N42  1  0.22365937  0.20444981  0.81807594  1
  N  N43  1  0.08233123  0.10927569  0.57777996  1
  N  N44  1  0.89080920  0.20749784  0.31217751  1
  N  N45  1  0.77410951  0.09079692  0.11494028  1
  N  N46  1  0.55820274  0.20710183  0.86586168  1
  N  N47  1  0.45112580  0.09234168  0.61483766  1
  N  N48  1  0.22476107  0.54144974  0.36477637  1
  N  N49  1  0.11115984  0.42784937  0.10620132  1
  N  N50  1  0.88776253  0.54034762  0.81807563  1
  N  N51  1  0.79258819  0.39901888  0.57778015  1
  N  N52  1  0.55155718  0.54274873  0.37731478  1
  N  N53  1  0.44639156  0.42801975  0.11694249  1
  N  N54  1  0.22461518  0.54130285  0.87075428  1
  N  N55  1  0.11245114  0.42913793  0.59674331  1
  N  N56  1  0.88220186  0.53630194  0.32122990  1
  N  N57  1  0.77858542  0.42287256  0.05712039  1
  N  N58  1  0.53892639  0.56740992  0.85705474  1
  N  N59  1  0.44241202  0.42718209  0.61948087  1
  N  N60  1  0.22606018  0.86824626  0.37731434  1
  N  N61  1  0.11133180  0.76307944  0.11694264  1
  N  N62  1  0.89041433  0.87489049  0.86586174  1
  N  N63  1  0.77565482  0.76781290  0.61483739  1
  N  N64  1  0.55440414  0.87109307  0.37222797  1
  N  N65  1  0.44402695  0.76071444  0.12288574  1
  N  N66  1  0.25072253  0.85561338  0.85705500  1
  N  N67  1  0.11049396  0.75909994  0.61948044  1
  N  N68  1  0.89020452  0.87180847  0.36733301  1
  N  N69  1  0.77264947  0.76616642  0.11457328  1
  N  N70  1  0.54368912  0.86037673  0.86168680  1
  N  N71  1  0.44539836  0.76208604  0.64000537  1
