# generated using pymatgen
data_Al17BN18
_symmetry_space_group_name_H-M   'P 1'
_cell_length_a   9.32188951
_cell_length_b   9.32182520
_cell_length_c   10.06116726
_cell_angle_alpha   89.75826521
_cell_angle_beta   89.78766021
_cell_angle_gamma   60.10406186
_symmetry_Int_Tables_number   1
_chemical_formula_structural   Al17BN18
_chemical_formula_sum   'Al34 B2 N36'
_cell_volume   757.93810885
_cell_formula_units_Z   2
loop_
 _symmetry_equiv_pos_site_id
 _symmetry_equiv_pos_as_xyz
  1  'x, y, z'
loop_
 _atom_site_type_symbol
 _atom_site_label
 _atom_site_symmetry_multiplicity
 _atom_site_fract_x
 _atom_site_fract_y
 _atom_site_fract_z
 _atom_site_occupancy
  Al  Al0  1  0.10188440  0.09681088  0.37153998  1
  Al  Al1  1  0.22623039  0.20757106  0.05923850  1
  Al  Al2  1  0.78006398  0.09674404  0.80576774  1
  Al  Al3  1  0.44453498  0.09289126  0.30926239  1
  Al  Al4  1  0.55642196  0.20485436  0.05512407  1
  Al  Al5  1  0.11230038  0.09301245  0.87108953  1
  Al  Al6  1  0.21860766  0.20978450  0.56227298  1
  Al  Al7  1  0.77417309  0.09077191  0.30435369  1
  Al  Al8  1  0.89047822  0.20802018  0.11597635  1
  Al  Al9  1  0.44428361  0.09023201  0.80691335  1
  Al  Al10  1  0.56017022  0.20765217  0.55821008  1
  Al  Al11  1  0.11031070  0.42731944  0.30942493  1
  Al  Al12  1  0.22182377  0.53855226  0.05926286  1
  Al  Al13  1  0.77631160  0.42900037  0.87042838  1
  Al  Al14  1  0.89332817  0.53578885  0.56324668  1
  Al  Al15  1  0.44527127  0.42848637  0.30907622  1
  Al  Al16  1  0.54565790  0.54734603  0.05552680  1
  Al  Al17  1  0.11257726  0.42901489  0.80793143  1
  Al  Al18  1  0.22255627  0.53915280  0.55707468  1
  Al  Al19  1  0.78059706  0.41763121  0.37492728  1
  Al  Al20  1  0.89075407  0.54294183  0.05858019  1
  Al  Al21  1  0.44226893  0.43299922  0.80847995  1
  Al  Al22  1  0.55415308  0.53734690  0.57089325  1
  Al  Al23  1  0.11184912  0.76156456  0.30887288  1
  Al  Al24  1  0.23064923  0.86234999  0.05618179  1
  Al  Al25  1  0.77333972  0.76141375  0.80694173  1
  Al  Al26  1  0.89097254  0.87697185  0.55808172  1
  Al  Al27  1  0.44483539  0.76060708  0.31189535  1
  Al  Al28  1  0.55298780  0.86960478  0.05515402  1
  Al  Al29  1  0.11631893  0.75922374  0.80842037  1
  Al  Al30  1  0.22008121  0.87149193  0.56973944  1
  Al  Al31  1  0.77642432  0.76061347  0.30943212  1
  Al  Al32  1  0.88813720  0.87310401  0.05517854  1
  Al  Al33  1  0.55426334  0.87127556  0.56364089  1
  B  B34  1  0.89009876  0.20613897  0.61033265  1
  B  B35  1  0.44314520  0.76038593  0.80531904  1
  N  N36  1  0.22423592  0.20647756  0.36998148  1
  N  N37  1  0.11293608  0.09036307  0.07019894  1
  N  N38  1  0.89160072  0.20799020  0.83188569  1
  N  N39  1  0.79031216  0.10688186  0.61171103  1
  N  N40  1  0.55569187  0.20569880  0.36875622  1
  N  N41  1  0.44646068  0.09211025  0.11802442  1
  N  N42  1  0.22690112  0.20999638  0.86658981  1
  N  N43  1  0.07758437  0.11039427  0.57547911  1
  N  N44  1  0.88992762  0.20739047  0.30777148  1
  N  N45  1  0.77372490  0.09039506  0.11429690  1
  N  N46  1  0.55669809  0.20559677  0.86493005  1
  N  N47  1  0.44510610  0.09484874  0.61780681  1
  N  N48  1  0.22216321  0.53860320  0.36760516  1
  N  N49  1  0.11054454  0.42758189  0.12056567  1
  N  N50  1  0.89333190  0.54370208  0.86581303  1
  N  N51  1  0.79376327  0.39432470  0.57645880  1
  N  N52  1  0.54994059  0.54243223  0.37661761  1
  N  N53  1  0.44466310  0.42764808  0.11776249  1
  N  N54  1  0.22243544  0.53924339  0.87051842  1
  N  N55  1  0.11257358  0.42874196  0.61979168  1
  N  N56  1  0.88991695  0.54056443  0.37096022  1
  N  N57  1  0.77359792  0.42964834  0.06848591  1
  N  N58  1  0.53830351  0.56699707  0.85835514  1
  N  N59  1  0.44210271  0.42702180  0.62039474  1
  N  N60  1  0.22609069  0.86631430  0.37554094  1
  N  N61  1  0.11091455  0.76122061  0.11773940  1
  N  N62  1  0.88894064  0.87343879  0.86498813  1
  N  N63  1  0.77787616  0.76236996  0.61793826  1
  N  N64  1  0.55482593  0.87131771  0.37289411  1
  N  N65  1  0.44455390  0.76080709  0.12433946  1
  N  N66  1  0.25006779  0.85531301  0.85903442  1
  N  N67  1  0.11048769  0.75888517  0.62017191  1
  N  N68  1  0.88915705  0.87211990  0.36863406  1
  N  N69  1  0.77556373  0.76285508  0.11803325  1
  N  N70  1  0.54322842  0.86008436  0.86202466  1
  N  N71  1  0.44424183  0.76181534  0.64004225  1
