# generated using pymatgen
data_Al17BN18
_symmetry_space_group_name_H-M   'P 1'
_cell_length_a   9.32604670
_cell_length_b   9.32604739
_cell_length_c   10.07598803
_cell_angle_alpha   90.15718401
_cell_angle_beta   90.15632970
_cell_angle_gamma   60.25953768
_symmetry_Int_Tables_number   1
_chemical_formula_structural   Al17BN18
_chemical_formula_sum   'Al34 B2 N36'
_cell_volume   760.92381067
_cell_formula_units_Z   2
loop_
 _symmetry_equiv_pos_site_id
 _symmetry_equiv_pos_as_xyz
  1  'x, y, z'
loop_
 _atom_site_type_symbol
 _atom_site_label
 _atom_site_symmetry_multiplicity
 _atom_site_fract_x
 _atom_site_fract_y
 _atom_site_fract_z
 _atom_site_occupancy
  Al  Al0  1  0.10134189  0.10073570  0.38481174  1
  Al  Al1  1  0.21699778  0.20205047  0.12415204  1
  Al  Al2  1  0.77845315  0.09514056  0.80152829  1
  Al  Al3  1  0.44984195  0.08957435  0.30882405  1
  Al  Al4  1  0.55554705  0.20488056  0.05564521  1
  Al  Al5  1  0.11404461  0.09496436  0.86622896  1
  Al  Al6  1  0.21412692  0.20847593  0.62406255  1
  Al  Al7  1  0.77471921  0.09140778  0.30662817  1
  Al  Al8  1  0.89040108  0.20708946  0.12280614  1
  Al  Al9  1  0.45136661  0.08735170  0.80623898  1
  Al  Al10  1  0.56046485  0.20721974  0.55655781  1
  Al  Al11  1  0.10981061  0.42650043  0.35385937  1
  Al  Al12  1  0.22343202  0.54011920  0.06133327  1
  Al  Al13  1  0.77827791  0.43073223  0.86622822  1
  Al  Al14  1  0.89178758  0.53081511  0.62406228  1
  Al  Al15  1  0.44761889  0.42924122  0.30746977  1
  Al  Al16  1  0.54684743  0.54668630  0.05165374  1
  Al  Al17  1  0.11105051  0.42774077  0.85885291  1
  Al  Al18  1  0.22392155  0.54060854  0.55473998  1
  Al  Al19  1  0.78404712  0.41803023  0.38481196  1
  Al  Al20  1  0.88536262  0.53368409  0.12415219  1
  Al  Al21  1  0.44270966  0.43359008  0.80642100  1
  Al  Al22  1  0.55371845  0.53865980  0.57067530  1
  Al  Al23  1  0.11255343  0.76430651  0.30746975  1
  Al  Al24  1  0.22999886  0.86353472  0.05165401  1
  Al  Al25  1  0.77066313  0.76805685  0.80623872  1
  Al  Al26  1  0.89053158  0.87715329  0.55655737  1
  Al  Al27  1  0.44374343  0.76043112  0.31158198  1
  Al  Al28  1  0.55282194  0.86950928  0.05311722  1
  Al  Al29  1  0.11690258  0.75939695  0.80642058  1
  Al  Al30  1  0.22197213  0.87040644  0.57067437  1
  Al  Al31  1  0.77288558  0.76653119  0.30882367  1
  Al  Al32  1  0.88819330  0.87223338  0.05564548  1
  Al  Al33  1  0.55486604  0.87155250  0.56159302  1
  B  B34  1  0.89182927  0.20851643  0.63511024  1
  B  B35  1  0.44374274  0.76043062  0.80321654  1
  N  N36  1  0.21845717  0.20042496  0.31885585  1
  N  N37  1  0.10643217  0.09544087  0.05686473  1
  N  N38  1  0.89494630  0.21163302  0.79742492  1
  N  N39  1  0.78792829  0.10461699  0.61136355  1
  N  N40  1  0.55498308  0.20689628  0.36731506  1
  N  N41  1  0.44917315  0.08959464  0.11443021  1
  N  N42  1  0.22211699  0.20684421  0.81601994  1
  N  N43  1  0.08253314  0.10939954  0.57780256  1
  N  N44  1  0.89075473  0.20744194  0.31209415  1
  N  N45  1  0.77414029  0.09082826  0.11491617  1
  N  N46  1  0.55806427  0.20709887  0.86580981  1
  N  N47  1  0.45061972  0.09268608  0.61472860  1
  N  N48  1  0.22551950  0.54220836  0.36307336  1
  N  N49  1  0.10943375  0.42612112  0.08417557  1
  N  N50  1  0.89015512  0.53880734  0.81601977  1
  N  N51  1  0.79271134  0.39922091  0.57780295  1
  N  N52  1  0.55174013  0.54275902  0.37729428  1
  N  N53  1  0.44693078  0.42781584  0.11697134  1
  N  N54  1  0.22534401  0.54203278  0.86992138  1
  N  N55  1  0.11027299  0.42695998  0.57315868  1
  N  N56  1  0.88373553  0.53514655  0.31885632  1
  N  N57  1  0.77875329  0.42311889  0.05686432  1
  N  N58  1  0.53910860  0.56743143  0.85684611  1
  N  N59  1  0.44244936  0.42707186  0.61941872  1
  N  N60  1  0.22607050  0.86842840  0.37729386  1
  N  N61  1  0.11112748  0.76361894  0.11697150  1
  N  N62  1  0.89041079  0.87475299  0.86580997  1
  N  N63  1  0.77599856  0.76730729  0.61472823  1
  N  N64  1  0.55443767  0.87112721  0.37212356  1
  N  N65  1  0.44401870  0.76070722  0.12283897  1
  N  N66  1  0.25074434  0.85579496  0.85684637  1
  N  N67  1  0.11038321  0.75913819  0.61941827  1
  N  N68  1  0.89020708  0.87167252  0.36731460  1
  N  N69  1  0.77290683  0.76585954  0.11442991  1
  N  N70  1  0.54373336  0.86042250  0.86155891  1
  N  N71  1  0.44538902  0.76207712  0.63992684  1
