# generated using pymatgen
data_Al17BN18
_symmetry_space_group_name_H-M   'P 1'
_cell_length_a   9.29964646
_cell_length_b   9.29964658
_cell_length_c   9.93928393
_cell_angle_alpha   89.99405152
_cell_angle_beta   89.99404678
_cell_angle_gamma   60.00209955
_symmetry_Int_Tables_number   1
_chemical_formula_structural   Al17BN18
_chemical_formula_sum   'Al34 B2 N36'
_cell_volume   744.43673605
_cell_formula_units_Z   2
loop_
 _symmetry_equiv_pos_site_id
 _symmetry_equiv_pos_as_xyz
  1  'x, y, z'
loop_
 _atom_site_type_symbol
 _atom_site_label
 _atom_site_symmetry_multiplicity
 _atom_site_fract_x
 _atom_site_fract_y
 _atom_site_fract_z
 _atom_site_occupancy
  Al  Al0  1  0.10661633  0.09534179  0.41830044  1
  Al  Al1  1  0.22119135  0.20465403  0.16457833  1
  Al  Al2  1  0.77897584  0.09564160  0.90875716  1
  Al  Al3  1  0.44525985  0.09241495  0.41421336  1
  Al  Al4  1  0.55694675  0.20495522  0.16406813  1
  Al  Al5  1  0.11399949  0.09194615  0.90802782  1
  Al  Al6  1  0.21710487  0.20692705  0.66430832  1
  Al  Al7  1  0.78056826  0.09723445  0.41866432  1
  Al  Al8  1  0.88900571  0.20567236  0.16248615  1
  Al  Al9  1  0.44259972  0.09134156  0.91433755  1
  Al  Al10  1  0.55920537  0.20714252  0.66453013  1
  Al  Al11  1  0.11092906  0.42759519  0.41421021  1
  Al  Al12  1  0.22221489  0.53888133  0.16482151  1
  Al  Al13  1  0.77527927  0.43066600  0.90802776  1
  Al  Al14  1  0.89026000  0.53377168  0.66430832  1
  Al  Al15  1  0.44543352  0.42864250  0.41390299  1
  Al  Al16  1  0.55597944  0.54045541  0.15734976  1
  Al  Al17  1  0.11111525  0.42778108  0.91515991  1
  Al  Al18  1  0.22229800  0.53896540  0.66443718  1
  Al  Al19  1  0.77867505  0.42328350  0.41830036  1
  Al  Al20  1  0.88798776  0.53785809  0.16457840  1
  Al  Al21  1  0.44293379  0.43292705  0.91477838  1
  Al  Al22  1  0.55590327  0.53965560  0.66847121  1
  Al  Al23  1  0.11197572  0.76210045  0.41390306  1
  Al  Al24  1  0.22378988  0.87264491  0.15734953  1
  Al  Al25  1  0.77467485  0.75926592  0.91433741  1
  Al  Al26  1  0.89047470  0.87587321  0.66453003  1
  Al  Al27  1  0.44447744  0.76114481  0.41237848  1
  Al  Al28  1  0.55425432  0.87092014  0.15770520  1
  Al  Al29  1  0.11625995  0.75960055  0.91477838  1
  Al  Al30  1  0.22298957  0.87256931  0.66847146  1
  Al  Al31  1  0.77574746  0.76192729  0.41421344  1
  Al  Al32  1  0.88828886  0.87361317  0.16406816  1
  Al  Al33  1  0.55276348  0.86943020  0.66918195  1
  B  B34  1  0.88830792  0.20497437  0.66882005  1
  B  B35  1  0.44438654  0.76105287  0.91755154  1
  N  N36  1  0.22130185  0.20383119  0.35733039  1
  N  N37  1  0.10924446  0.09579153  0.09971071  1
  N  N38  1  0.88901797  0.20568433  0.83430139  1
  N  N39  1  0.79033967  0.10700700  0.61266308  1
  N  N40  1  0.55758553  0.20439067  0.35726643  1
  N  N41  1  0.44374019  0.09534129  0.10522243  1
  N  N42  1  0.22199175  0.20669206  0.85418325  1
  N  N43  1  0.08717834  0.10457303  0.61397983  1
  N  N44  1  0.88910821  0.20577515  0.35186585  1
  N  N45  1  0.77858456  0.09525083  0.10099346  1
  N  N46  1  0.55443510  0.20635946  0.85525496  1
  N  N47  1  0.44541194  0.09261841  0.60714300  1
  N  N48  1  0.22237024  0.53903700  0.35577198  1
  N  N49  1  0.11087356  0.42753975  0.10662040  1
  N  N50  1  0.89002582  0.53865779  0.85418332  1
  N  N51  1  0.78790663  0.40384477  0.61397977  1
  N  N52  1  0.55702566  0.53944975  0.35150296  1
  N  N53  1  0.44433296  0.42755942  0.10536417  1
  N  N54  1  0.22196248  0.53862912  0.85517732  1
  N  N55  1  0.11139020  0.42805711  0.60446537  1
  N  N56  1  0.88716467  0.53796883  0.35733053  1
  N  N57  1  0.77912561  0.42591075  0.09971061  1
  N  N58  1  0.54275250  0.56401000  0.86158340  1
  N  N59  1  0.44510225  0.42924879  0.60595361  1
  N  N60  1  0.22278282  0.87369242  0.35150282  1
  N  N61  1  0.11089303  0.76099924  0.10536415  1
  N  N62  1  0.88969269  0.87110135  0.85525478  1
  N  N63  1  0.77595149  0.76207883  0.60714301  1
  N  N64  1  0.55464434  0.87131149  0.35018034  1
  N  N65  1  0.44425519  0.76092079  0.08370491  1
  N  N66  1  0.24734346  0.85941901  0.86158363  1
  N  N67  1  0.11258146  0.76176958  0.60595373  1
  N  N68  1  0.88772405  0.87425205  0.35726641  1
  N  N69  1  0.77867520  0.76040652  0.10522226  1
  N  N70  1  0.54301288  0.85967941  0.86284123  1
  N  N71  1  0.44409521  0.76076151  0.60174819  1
