# generated using pymatgen
data_Al17BN18
_symmetry_space_group_name_H-M   'P 1'
_cell_length_a   9.32736879
_cell_length_b   9.33057121
_cell_length_c   10.13092591
_cell_angle_alpha   90.09850357
_cell_angle_beta   90.02975072
_cell_angle_gamma   60.15985184
_symmetry_Int_Tables_number   1
_chemical_formula_structural   Al17BN18
_chemical_formula_sum   'Al34 B2 N36'
_cell_volume   764.79277377
_cell_formula_units_Z   2
loop_
 _symmetry_equiv_pos_site_id
 _symmetry_equiv_pos_as_xyz
  1  'x, y, z'
loop_
 _atom_site_type_symbol
 _atom_site_label
 _atom_site_symmetry_multiplicity
 _atom_site_fract_x
 _atom_site_fract_y
 _atom_site_fract_z
 _atom_site_occupancy
  Al  Al0  1  0.10399808  0.10187162  0.39296289  1
  Al  Al1  1  0.22062570  0.20321798  0.13703029  1
  Al  Al2  1  0.78131792  0.09732567  0.87074189  1
  Al  Al3  1  0.44333475  0.09382671  0.39096481  1
  Al  Al4  1  0.55402501  0.21163901  0.07586559  1
  Al  Al5  1  0.11161830  0.09506802  0.87460654  1
  Al  Al6  1  0.21464297  0.20824484  0.63790514  1
  Al  Al7  1  0.77985565  0.10284286  0.39127786  1
  Al  Al8  1  0.88940649  0.20673278  0.13311776  1
  Al  Al9  1  0.43942436  0.08667541  0.88434656  1
  Al  Al10  1  0.55835732  0.20571724  0.60175187  1
  Al  Al11  1  0.10915053  0.42540916  0.38214410  1
  Al  Al12  1  0.22436642  0.54299741  0.07228108  1
  Al  Al13  1  0.77910077  0.42761062  0.87471234  1
  Al  Al14  1  0.89203522  0.53123301  0.63778201  1
  Al  Al15  1  0.44802490  0.42891580  0.31883841  1
  Al  Al16  1  0.54931151  0.55031798  0.06058594  1
  Al  Al17  1  0.10865656  0.42477419  0.88964474  1
  Al  Al18  1  0.22499271  0.54088574  0.56403053  1
  Al  Al19  1  0.78546328  0.42058114  0.39279930  1
  Al  Al20  1  0.88617422  0.53782152  0.13694670  1
  Al  Al21  1  0.43915110  0.43648545  0.81709860  1
  Al  Al22  1  0.55474924  0.53609653  0.57763334  1
  Al  Al23  1  0.11048303  0.76609459  0.31857726  1
  Al  Al24  1  0.23230830  0.86621200  0.06083978  1
  Al  Al25  1  0.77008742  0.75483610  0.88558347  1
  Al  Al26  1  0.89461273  0.87196103  0.57732510  1
  Al  Al27  1  0.44183368  0.75951786  0.32139437  1
  Al  Al28  1  0.55983742  0.87739702  0.13969748  1
  Al  Al29  1  0.11794067  0.75619697  0.81632267  1
  Al  Al30  1  0.21995502  0.87090530  0.57834155  1
  Al  Al31  1  0.77463909  0.75882586  0.38954726  1
  Al  Al32  1  0.89611764  0.87032442  0.06451874  1
  Al  Al33  1  0.55489054  0.86979098  0.64480314  1
  B  B34  1  0.89000069  0.20588101  0.64131489  1
  B  B35  1  0.43987184  0.75631983  0.80983546  1
  N  N36  1  0.22217187  0.20246116  0.32635499  1
  N  N37  1  0.10758487  0.09838641  0.06704722  1
  N  N38  1  0.89041829  0.20637891  0.80322479  1
  N  N39  1  0.79269470  0.10864934  0.59021917  1
  N  N40  1  0.55448835  0.21038885  0.37156257  1
  N  N41  1  0.44087362  0.09399870  0.07481609  1
  N  N42  1  0.22094116  0.20784152  0.82396158  1
  N  N43  1  0.08314808  0.11015645  0.58671433  1
  N  N44  1  0.89008848  0.20658261  0.32080288  1
  N  N45  1  0.78088329  0.09991173  0.06927134  1
  N  N46  1  0.55221321  0.20691630  0.85371681  1
  N  N47  1  0.44010603  0.08851546  0.58220044  1
  N  N48  1  0.22491299  0.54326496  0.37317771  1
  N  N49  1  0.10842924  0.42524459  0.08126453  1
  N  N50  1  0.89173008  0.53713548  0.82394381  1
  N  N51  1  0.79404144  0.39930688  0.58657306  1
  N  N52  1  0.55336439  0.54362762  0.38702935  1
  N  N53  1  0.44694836  0.43242663  0.12768549  1
  N  N54  1  0.22439129  0.54117529  0.88237028  1
  N  N55  1  0.10891020  0.42469183  0.57308067  1
  N  N56  1  0.88624523  0.53842669  0.32606121  1
  N  N57  1  0.78147374  0.42467893  0.06717454  1
  N  N58  1  0.53957552  0.56678581  0.86771672  1
  N  N59  1  0.43923493  0.43095166  0.63131580  1
  N  N60  1  0.22613361  0.86992390  0.38749280  1
  N  N61  1  0.11264378  0.76570074  0.12913681  1
  N  N62  1  0.89503425  0.86624739  0.86894925  1
  N  N63  1  0.77264764  0.75540176  0.58110483  1
  N  N64  1  0.55856613  0.87692640  0.32901709  1
  N  N65  1  0.44251387  0.76056200  0.13316716  1
  N  N66  1  0.25010961  0.85548127  0.86752076  1
  N  N67  1  0.11275612  0.75626071  0.63127026  1
  N  N68  1  0.89379867  0.87206873  0.38177167  1
  N  N69  1  0.77631723  0.75777589  0.07667280  1
  N  N70  1  0.54477794  0.86074254  0.83278025  1
  N  N71  1  0.43760918  0.75379443  0.64829511  1
