# generated using pymatgen
data_Al17BN18
_symmetry_space_group_name_H-M   'P 1'
_cell_length_a   9.29961291
_cell_length_b   9.29960751
_cell_length_c   9.93933485
_cell_angle_alpha   89.99297240
_cell_angle_beta   89.99430301
_cell_angle_gamma   60.00227675
_symmetry_Int_Tables_number   1
_chemical_formula_structural   Al17BN18
_chemical_formula_sum   'Al34 B2 N36'
_cell_volume   744.43606458
_cell_formula_units_Z   2
loop_
 _symmetry_equiv_pos_site_id
 _symmetry_equiv_pos_as_xyz
  1  'x, y, z'
loop_
 _atom_site_type_symbol
 _atom_site_label
 _atom_site_symmetry_multiplicity
 _atom_site_fract_x
 _atom_site_fract_y
 _atom_site_fract_z
 _atom_site_occupancy
  Al  Al0  1  0.10950783  0.09400882  0.31559409  1
  Al  Al1  1  0.22131548  0.20454914  0.05904192  1
  Al  Al2  1  0.78051832  0.09720576  0.80376514  1
  Al  Al3  1  0.44500682  0.09304367  0.30887885  1
  Al  Al4  1  0.55753916  0.20471995  0.05872903  1
  Al  Al5  1  0.11029163  0.09407024  0.80448030  1
  Al  Al6  1  0.21702601  0.20704441  0.55817241  1
  Al  Al7  1  0.77904373  0.09572972  0.31523704  1
  Al  Al8  1  0.88881259  0.20549796  0.06056918  1
  Al  Al9  1  0.44280704  0.09076349  0.80841043  1
  Al  Al10  1  0.55861526  0.20737777  0.55861055  1
  Al  Al11  1  0.11108471  0.42777151  0.30813095  1
  Al  Al12  1  0.22236417  0.53905174  0.05873713  1
  Al  Al13  1  0.77738239  0.42697846  0.80448257  1
  Al  Al14  1  0.89035473  0.53371395  0.55817344  1
  Al  Al15  1  0.44531434  0.42879468  0.30837193  1
  Al  Al16  1  0.55461553  0.54336232  0.05464186  1
  Al  Al17  1  0.11098772  0.42767544  0.80850624  1
  Al  Al18  1  0.22217512  0.53886530  0.55778440  1
  Al  Al19  1  0.77732180  0.42619370  0.31559551  1
  Al  Al20  1  0.88786199  0.53800205  0.05904331  1
  Al  Al21  1  0.44302256  0.43286802  0.80863466  1
  Al  Al22  1  0.55801340  0.53597676  0.56492116  1
  Al  Al23  1  0.11210705  0.76200216  0.30837078  1
  Al  Al24  1  0.22667594  0.87130211  0.05463996  1
  Al  Al25  1  0.77407482  0.75949394  0.80841080  1
  Al  Al26  1  0.89068719  0.87530420  0.55861052  1
  Al  Al27  1  0.44429313  0.76098059  0.31045485  1
  Al  Al28  1  0.55272450  0.86941139  0.05427862  1
  Al  Al29  1  0.11617827  0.75971170  0.80863378  1
  Al  Al30  1  0.21928733  0.87470227  0.56492018  1
  Al  Al31  1  0.77635590  0.76169372  0.30887954  1
  Al  Al32  1  0.88803217  0.87422610  0.05872828  1
  Al  Al33  1  0.55431254  0.87100155  0.56417744  1
  B  B34  1  0.88890463  0.20558990  0.55540472  1
  B  B35  1  0.44497749  0.76166438  0.80412106  1
  N  N36  1  0.22240425  0.20565219  0.36758704  1
  N  N37  1  0.11051178  0.09295270  0.12143974  1
  N  N38  1  0.88918769  0.20587118  0.87120297  1
  N  N39  1  0.79027591  0.10696286  0.61010968  1
  N  N40  1  0.55462564  0.20624438  0.36772618  1
  N  N41  1  0.44556673  0.09239413  0.11567944  1
  N  N42  1  0.22070278  0.20487058  0.86699068  1
  N  N43  1  0.08594069  0.10722620  0.61137061  1
  N  N44  1  0.88904298  0.20572752  0.38924122  1
  N  N45  1  0.77864473  0.09532918  0.12276031  1
  N  N46  1  0.55732876  0.20455932  0.86579892  1
  N  N47  1  0.44359604  0.09553798  0.61768720  1
  N  N48  1  0.22242773  0.53911379  0.36632576  1
  N  N49  1  0.11092470  0.42760959  0.11717874  1
  N  N50  1  0.88818500  0.53738773  0.86699203  1
  N  N51  1  0.79053844  0.40262807  0.61137263  1
  N  N52  1  0.55417788  0.54074168  0.37323776  1
  N  N53  1  0.44612969  0.42867594  0.11561732  1
  N  N54  1  0.22189529  0.53858226  0.86848062  1
  N  N55  1  0.11132808  0.42801534  0.61776792  1
  N  N56  1  0.88896710  0.53908869  0.36758754  1
  N  N57  1  0.77626844  0.42719481  0.12144072  1
  N  N58  1  0.54537686  0.56279349  0.85896386  1
  N  N59  1  0.44326358  0.42798519  0.61876109  1
  N  N60  1  0.22405638  0.87086314  0.37323700  1
  N  N61  1  0.11199018  0.76281582  0.11561589  1
  N  N62  1  0.88787179  0.87401447  0.86579826  1
  N  N63  1  0.77885024  0.76028234  0.61768765  1
  N  N64  1  0.55471571  0.87140151  0.37194402  1
  N  N65  1  0.44418470  0.76086949  0.12107607  1
  N  N66  1  0.24610633  0.86206378  0.85896217  1
  N  N67  1  0.11129661  0.75995166  0.61876038  1
  N  N68  1  0.88955922  0.87131014  0.36772616  1
  N  N69  1  0.77570872  0.76225166  0.11567995  1
  N  N70  1  0.54294412  0.85963064  0.86028021  1
  N  N71  1  0.44427013  0.76095881  0.63864161  1
