# generated using pymatgen
data_Al17BN18
_symmetry_space_group_name_H-M   'P 1'
_cell_length_a   9.30435636
_cell_length_b   9.30435587
_cell_length_c   10.14015837
_cell_angle_alpha   90.04877615
_cell_angle_beta   90.04880244
_cell_angle_gamma   60.17780697
_symmetry_Int_Tables_number   1
_chemical_formula_structural   Al17BN18
_chemical_formula_sum   'Al34 B2 N36'
_cell_volume   761.59335896
_cell_formula_units_Z   2
loop_
 _symmetry_equiv_pos_site_id
 _symmetry_equiv_pos_as_xyz
  1  'x, y, z'
loop_
 _atom_site_type_symbol
 _atom_site_label
 _atom_site_symmetry_multiplicity
 _atom_site_fract_x
 _atom_site_fract_y
 _atom_site_fract_z
 _atom_site_occupancy
  Al  Al0  1  0.10331356  0.10255326  0.40242442  1
  Al  Al1  1  0.22074027  0.20298519  0.14590023  1
  Al  Al2  1  0.77832519  0.09498845  0.89216646  1
  Al  Al3  1  0.44522132  0.09448595  0.39835345  1
  Al  Al4  1  0.55962877  0.20113514  0.14548810  1
  Al  Al5  1  0.11120044  0.09565741  0.88317106  1
  Al  Al6  1  0.21617883  0.20816840  0.64702218  1
  Al  Al7  1  0.78029867  0.09696148  0.40071038  1
  Al  Al8  1  0.88951261  0.20617655  0.14227321  1
  Al  Al9  1  0.44298454  0.08953642  0.89740580  1
  Al  Al10  1  0.56167474  0.19962295  0.64766920  1
  Al  Al11  1  0.10835655  0.42501972  0.39233691  1
  Al  Al12  1  0.22535187  0.54201446  0.08012935  1
  Al  Al13  1  0.77899622  0.42786249  0.88317116  1
  Al  Al14  1  0.89150489  0.53284252  0.64702216  1
  Al  Al15  1  0.44572094  0.43468028  0.32819617  1
  Al  Al16  1  0.54898854  0.54856539  0.06934372  1
  Al  Al17  1  0.10794039  0.42460389  0.89869824  1
  Al  Al18  1  0.22431372  0.54097734  0.57480821  1
  Al  Al19  1  0.78589187  0.41997584  0.40242462  1
  Al  Al20  1  0.88632206  0.53740512  0.14590062  1
  Al  Al21  1  0.43932341  0.43735371  0.82704864  1
  Al  Al22  1  0.55447226  0.53584890  0.58769448  1
  Al  Al23  1  0.11801807  0.76238342  0.32819567  1
  Al  Al24  1  0.23190257  0.86564979  0.06934357  1
  Al  Al25  1  0.77287246  0.75964824  0.89740616  1
  Al  Al26  1  0.88295689  0.87833958  0.64766934  1
  Al  Al27  1  0.44302945  0.75969195  0.33079270  1
  Al  Al28  1  0.55901811  0.87568332  0.14749818  1
  Al  Al29  1  0.12068946  0.75598630  0.82704826  1
  Al  Al30  1  0.21918487  0.87113472  0.58769478  1
  Al  Al31  1  0.77782210  0.76188570  0.39835330  1
  Al  Al32  1  0.88447028  0.87629383  0.14548844  1
  Al  Al33  1  0.55501400  0.87167776  0.65285716  1
  B  B34  1  0.88954342  0.20620668  0.64986285  1
  B  B35  1  0.44127304  0.75793615  0.81914523  1
  N  N36  1  0.22237174  0.20246789  0.33556836  1
  N  N37  1  0.10733472  0.09835037  0.07580550  1
  N  N38  1  0.88781083  0.20447340  0.81317397  1
  N  N39  1  0.78942262  0.10608717  0.59167352  1
  N  N40  1  0.55974387  0.20157912  0.33871973  1
  N  N41  1  0.44330392  0.09542989  0.08566242  1
  N  N42  1  0.22305516  0.20716140  0.83334462  1
  N  N43  1  0.08266797  0.11065771  0.59645241  1
  N  N44  1  0.88921939  0.20588211  0.33044488  1
  N  N45  1  0.77879438  0.09545919  0.08118213  1
  N  N46  1  0.55665529  0.20013935  0.83834000  1
  N  N47  1  0.44299330  0.09204487  0.58722703  1
  N  N48  1  0.22529424  0.54195695  0.38491414  1
  N  N49  1  0.10825500  0.42491845  0.08995976  1
  N  N50  1  0.89049806  0.53971911  0.83334456  1
  N  N51  1  0.79399503  0.39933122  0.59645261  1
  N  N52  1  0.55354978  0.54351501  0.39763975  1
  N  N53  1  0.44618415  0.43404156  0.13701353  1
  N  N54  1  0.22413983  0.54080290  0.89098204  1
  N  N55  1  0.10804312  0.42470671  0.58276659  1
  N  N56  1  0.88580463  0.53903582  0.33556859  1
  N  N57  1  0.78168853  0.42399827  0.07580560  1
  N  N58  1  0.53968268  0.56713292  0.87667788  1
  N  N59  1  0.43974260  0.43007896  0.63879344  1
  N  N60  1  0.22685265  0.87021163  0.39763992  1
  N  N61  1  0.11737732  0.76284715  0.13701319  1
  N  N62  1  0.88347521  0.87331888  0.83834010  1
  N  N63  1  0.77538051  0.75965709  0.58722686  1
  N  N64  1  0.55940964  0.87607366  0.33812663  1
  N  N65  1  0.44285412  0.75951719  0.14226749  1
  N  N66  1  0.25046991  0.85634458  0.87667767  1
  N  N67  1  0.11341332  0.75640655  0.63879318  1
  N  N68  1  0.88491658  0.87640702  0.33871987  1
  N  N69  1  0.77876510  0.75996885  0.08566277  1
  N  N70  1  0.54542851  0.86209238  0.84209453  1
  N  N71  1  0.43840780  0.75507156  0.65735631  1
