# generated using pymatgen
data_Al17BN18
_symmetry_space_group_name_H-M   'P 1'
_cell_length_a   9.36203935
_cell_length_b   9.36204050
_cell_length_c   10.06917606
_cell_angle_alpha   90.16365994
_cell_angle_beta   90.16292292
_cell_angle_gamma   60.12768273
_symmetry_Int_Tables_number   1
_chemical_formula_structural   Al17BN18
_chemical_formula_sum   'Al34 B2 N36'
_cell_volume   765.28028059
_cell_formula_units_Z   2
loop_
 _symmetry_equiv_pos_site_id
 _symmetry_equiv_pos_as_xyz
  1  'x, y, z'
loop_
 _atom_site_type_symbol
 _atom_site_label
 _atom_site_symmetry_multiplicity
 _atom_site_fract_x
 _atom_site_fract_y
 _atom_site_fract_z
 _atom_site_occupancy
  Al  Al0  1  0.10422424  0.10092037  0.39278269  1
  Al  Al1  1  0.22178892  0.20178048  0.13683161  1
  Al  Al2  1  0.78169253  0.09838022  0.86966363  1
  Al  Al3  1  0.43963597  0.09517412  0.39196918  1
  Al  Al4  1  0.55334549  0.21123804  0.06500578  1
  Al  Al5  1  0.11139024  0.09493162  0.87567629  1
  Al  Al6  1  0.21291726  0.21088976  0.63867864  1
  Al  Al7  1  0.78341935  0.10010228  0.38946094  1
  Al  Al8  1  0.88921331  0.20589998  0.13326229  1
  Al  Al9  1  0.43673496  0.09287042  0.87466275  1
  Al  Al10  1  0.55731359  0.21321778  0.58174123  1
  Al  Al11  1  0.10884155  0.42552330  0.38195153  1
  Al  Al12  1  0.22449176  0.54117550  0.07428483  1
  Al  Al13  1  0.77825010  0.42807394  0.87567580  1
  Al  Al14  1  0.89420532  0.52960310  0.63867859  1
  Al  Al15  1  0.44825190  0.42775090  0.31968178  1
  Al  Al16  1  0.54913447  0.54579518  0.06299518  1
  Al  Al17  1  0.10833805  0.42502182  0.89128104  1
  Al  Al18  1  0.22496548  0.54164689  0.56485297  1
  Al  Al19  1  0.78423780  0.42090812  0.39278276  1
  Al  Al20  1  0.88509687  0.53847492  0.13683180  1
  Al  Al21  1  0.43922825  0.43679343  0.81739191  1
  Al  Al22  1  0.55501618  0.53833181  0.57959428  1
  Al  Al23  1  0.11106877  0.76493298  0.31968176  1
  Al  Al24  1  0.22911119  0.86581714  0.06299544  1
  Al  Al25  1  0.77618664  0.75342043  0.87466234  1
  Al  Al26  1  0.89653531  0.87399643  0.58174099  1
  Al  Al27  1  0.44422199  0.76090515  0.32287474  1
  Al  Al28  1  0.55050071  0.86718409  0.07005468  1
  Al  Al29  1  0.12010945  0.75591138  0.81739188  1
  Al  Al30  1  0.22164835  0.87169870  0.57959377  1
  Al  Al31  1  0.77849174  0.75631858  0.39196997  1
  Al  Al32  1  0.89455232  0.87003359  0.06500565  1
  Al  Al33  1  0.55230907  0.86899504  0.59611543  1
  B  B34  1  0.88991967  0.20660308  0.64188648  1
  B  B35  1  0.44262530  0.75930905  0.81374102  1
  N  N36  1  0.22164187  0.20244495  0.32718599  1
  N  N37  1  0.10747772  0.09740735  0.06900356  1
  N  N38  1  0.89050258  0.20718622  0.80420437  1
  N  N39  1  0.79360580  0.11028950  0.59055806  1
  N  N40  1  0.55441512  0.21069589  0.38211330  1
  N  N41  1  0.43886038  0.09559873  0.07397692  1
  N  N42  1  0.21710881  0.21003816  0.82481264  1
  N  N43  1  0.08392664  0.11068116  0.58719000  1
  N  N44  1  0.89010196  0.20678476  0.32149338  1
  N  N45  1  0.78155081  0.09823938  0.07148670  1
  N  N46  1  0.55127181  0.21255599  0.86605452  1
  N  N47  1  0.43761068  0.09864495  0.59079215  1
  N  N48  1  0.22525491  0.54193721  0.37287414  1
  N  N49  1  0.10804286  0.42472571  0.08336197  1
  N  N50  1  0.89335580  0.53379328  0.82481256  1
  N  N51  1  0.79399771  0.40061092  0.58719026  1
  N  N52  1  0.55263639  0.54230217  0.38665697  1
  N  N53  1  0.44746069  0.42862719  0.12927064  1
  N  N54  1  0.22413459  0.54081926  0.88273932  1
  N  N55  1  0.10921279  0.42589577  0.57348428  1
  N  N56  1  0.88576386  0.53832411  0.32718625  1
  N  N57  1  0.78072411  0.42416302  0.06900358  1
  N  N58  1  0.53918339  0.56617571  0.86883274  1
  N  N59  1  0.44000089  0.43274008  0.63129651  1
  N  N60  1  0.22561846  0.86931883  0.38665706  1
  N  N61  1  0.11194120  0.76414570  0.12927074  1
  N  N62  1  0.89587069  0.86795872  0.86605454  1
  N  N63  1  0.78195972  0.75429586  0.59079281  1
  N  N64  1  0.55208759  0.86876969  0.38161415  1
  N  N65  1  0.44306105  0.75974614  0.13401704  1
  N  N66  1  0.24949255  0.85586535  0.86883310  1
  N  N67  1  0.11605649  0.75668390  0.63129652  1
  N  N68  1  0.89401295  0.87109789  0.38211390  1
  N  N69  1  0.77891505  0.75554558  0.07397719  1
  N  N70  1  0.54051407  0.85719777  0.86141756  1
  N  N71  1  0.44172974  0.75841424  0.65172913  1
