# generated using pymatgen
data_Al17BN18
_symmetry_space_group_name_H-M   'P 1'
_cell_length_a   9.32443208
_cell_length_b   9.33051061
_cell_length_c   10.04636226
_cell_angle_alpha   90.01028042
_cell_angle_beta   90.02162318
_cell_angle_gamma   60.16444842
_symmetry_Int_Tables_number   1
_chemical_formula_structural   Al17BN18
_chemical_formula_sum   'Al34 B2 N36'
_cell_volume   758.20128991
_cell_formula_units_Z   2
loop_
 _symmetry_equiv_pos_site_id
 _symmetry_equiv_pos_as_xyz
  1  'x, y, z'
loop_
 _atom_site_type_symbol
 _atom_site_label
 _atom_site_symmetry_multiplicity
 _atom_site_fract_x
 _atom_site_fract_y
 _atom_site_fract_z
 _atom_site_occupancy
  Al  Al0  1  0.09853727  0.09759684  0.38381882  1
  Al  Al1  1  0.22439695  0.20605790  0.05518726  1
  Al  Al2  1  0.77784904  0.09480176  0.80237118  1
  Al  Al3  1  0.44173186  0.09326365  0.30901107  1
  Al  Al4  1  0.55600210  0.20484903  0.05707450  1
  Al  Al5  1  0.11341654  0.09250662  0.86069381  1
  Al  Al6  1  0.22142991  0.20947399  0.56394010  1
  Al  Al7  1  0.77316541  0.09107528  0.30753649  1
  Al  Al8  1  0.89162369  0.20681043  0.12416711  1
  Al  Al9  1  0.44608486  0.09029284  0.80623051  1
  Al  Al10  1  0.56082542  0.20715489  0.55744774  1
  Al  Al11  1  0.11119644  0.42530691  0.31085413  1
  Al  Al12  1  0.22234812  0.53841486  0.06014204  1
  Al  Al13  1  0.77725599  0.43022105  0.86313174  1
  Al  Al14  1  0.88951709  0.53511581  0.60096542  1
  Al  Al15  1  0.44641165  0.42877803  0.30935195  1
  Al  Al16  1  0.54633198  0.54624128  0.05229042  1
  Al  Al17  1  0.11742617  0.42796865  0.80815969  1
  Al  Al18  1  0.22280655  0.53957672  0.55523708  1
  Al  Al19  1  0.78389902  0.41836841  0.38528425  1
  Al  Al20  1  0.88747943  0.53822698  0.08298507  1
  Al  Al21  1  0.44257478  0.43327290  0.80791156  1
  Al  Al22  1  0.55327583  0.53841958  0.57176087  1
  Al  Al23  1  0.11203619  0.76181065  0.30914609  1
  Al  Al24  1  0.22901849  0.86347019  0.05255665  1
  Al  Al25  1  0.77111896  0.76671298  0.80837117  1
  Al  Al26  1  0.89042037  0.87756714  0.55694148  1
  Al  Al27  1  0.44400728  0.76001479  0.31233559  1
  Al  Al28  1  0.55111128  0.87024210  0.05458864  1
  Al  Al29  1  0.11659017  0.75828199  0.80776669  1
  Al  Al30  1  0.22164414  0.87044899  0.57283609  1
  Al  Al31  1  0.77501340  0.76112658  0.31058965  1
  Al  Al32  1  0.88844633  0.87337365  0.05668212  1
  Al  Al33  1  0.55409128  0.87232092  0.56234809  1
  B  B34  1  0.89289191  0.20823742  0.63694348  1
  B  B35  1  0.44380782  0.76026287  0.80335363  1
  N  N36  1  0.22300016  0.20527413  0.37146743  1
  N  N37  1  0.10469661  0.09305932  0.05771907  1
  N  N38  1  0.89451881  0.21135474  0.79749758  1
  N  N39  1  0.78757886  0.10405993  0.61187855  1
  N  N40  1  0.55372952  0.20605795  0.36772504  1
  N  N41  1  0.44374100  0.09245920  0.11715283  1
  N  N42  1  0.22852218  0.20919327  0.86367161  1
  N  N43  1  0.08261851  0.10889994  0.58186905  1
  N  N44  1  0.88943733  0.20796075  0.31304626  1
  N  N45  1  0.77382004  0.09093805  0.11607332  1
  N  N46  1  0.55810453  0.20657459  0.86661731  1
  N  N47  1  0.44686046  0.09479085  0.61783350  1
  N  N48  1  0.22277794  0.53851295  0.36604992  1
  N  N49  1  0.11355601  0.42436521  0.11850597  1
  N  N50  1  0.89145755  0.54217497  0.84047428  1
  N  N51  1  0.79238040  0.39851019  0.58142461  1
  N  N52  1  0.55120699  0.54199442  0.37794293  1
  N  N53  1  0.44580801  0.42788748  0.11767181  1
  N  N54  1  0.22364076  0.53981080  0.87150818  1
  N  N55  1  0.11714942  0.42779441  0.61890962  1
  N  N56  1  0.88757733  0.53845298  0.35161998  1
  N  N57  1  0.77759706  0.42123226  0.05721253  1
  N  N58  1  0.53849510  0.56744766  0.85678982  1
  N  N59  1  0.44225940  0.42698649  0.62007371  1
  N  N60  1  0.22540336  0.86687156  0.37756471  1
  N  N61  1  0.11134508  0.76147518  0.11758580  1
  N  N62  1  0.89029680  0.87525108  0.86684616  1
  N  N63  1  0.77556166  0.76782631  0.61779009  1
  N  N64  1  0.55332369  0.87227836  0.37193943  1
  N  N65  1  0.44369920  0.76010347  0.12316553  1
  N  N66  1  0.25093246  0.85465706  0.85591284  1
  N  N67  1  0.11020985  0.75851519  0.61992415  1
  N  N68  1  0.88924834  0.87167607  0.36756042  1
  N  N69  1  0.77345992  0.76445261  0.11559916  1
  N  N70  1  0.54260135  0.86150558  0.86217924  1
  N  N71  1  0.44592580  0.76179485  0.63997276  1
