# generated using pymatgen
data_Al17BN18
_symmetry_space_group_name_H-M   'P 1'
_cell_length_a   9.32341300
_cell_length_b   9.32611018
_cell_length_c   10.02011233
_cell_angle_alpha   89.87994969
_cell_angle_beta   89.74207706
_cell_angle_gamma   60.08324291
_symmetry_Int_Tables_number   1
_chemical_formula_structural   Al17BN18
_chemical_formula_sum   'Al34 B2 N36'
_cell_volume   755.15822976
_cell_formula_units_Z   2
loop_
 _symmetry_equiv_pos_site_id
 _symmetry_equiv_pos_as_xyz
  1  'x, y, z'
loop_
 _atom_site_type_symbol
 _atom_site_label
 _atom_site_symmetry_multiplicity
 _atom_site_fract_x
 _atom_site_fract_y
 _atom_site_fract_z
 _atom_site_occupancy
  Al  Al0  1  0.10136258  0.10526217  0.40084474  1
  Al  Al1  1  0.22177281  0.20402711  0.14820785  1
  Al  Al2  1  0.77832331  0.09634210  0.89381914  1
  Al  Al3  1  0.44527724  0.09430377  0.40228994  1
  Al  Al4  1  0.55683369  0.20429031  0.14796729  1
  Al  Al5  1  0.11252548  0.09576608  0.88650445  1
  Al  Al6  1  0.21684739  0.20794909  0.64908078  1
  Al  Al7  1  0.78039950  0.09703309  0.40193004  1
  Al  Al8  1  0.89009847  0.20445831  0.14533454  1
  Al  Al9  1  0.44195182  0.09036864  0.89851456  1
  Al  Al10  1  0.55974215  0.20631645  0.65058850  1
  Al  Al11  1  0.11102798  0.42820663  0.39811960  1
  Al  Al12  1  0.22205192  0.53964923  0.14809901  1
  Al  Al13  1  0.77302798  0.43348244  0.89113902  1
  Al  Al14  1  0.89085326  0.53396422  0.64939448  1
  Al  Al15  1  0.44363851  0.42453841  0.39786981  1
  Al  Al16  1  0.55885104  0.53533204  0.14473969  1
  Al  Al17  1  0.11094177  0.42721181  0.90033666  1
  Al  Al18  1  0.22143251  0.53734879  0.64972145  1
  Al  Al19  1  0.78431497  0.42047626  0.40155091  1
  Al  Al20  1  0.88801519  0.53860784  0.14847846  1
  Al  Al21  1  0.44241857  0.43493706  0.89814384  1
  Al  Al22  1  0.55747851  0.53748997  0.61936023  1
  Al  Al23  1  0.10633696  0.75929658  0.39785476  1
  Al  Al24  1  0.23327371  0.86807511  0.08593006  1
  Al  Al25  1  0.77313964  0.75845626  0.89898353  1
  Al  Al26  1  0.88902057  0.87676842  0.65062607  1
  Al  Al27  1  0.44224967  0.76318071  0.35770237  1
  Al  Al28  1  0.55829901  0.87482073  0.15387888  1
  Al  Al29  1  0.11441654  0.75599827  0.89429619  1
  Al  Al30  1  0.22026630  0.87457036  0.58424838  1
  Al  Al31  1  0.77729880  0.76208128  0.40241549  1
  Al  Al32  1  0.88898613  0.87359855  0.14783537  1
  Al  Al33  1  0.55278168  0.86923081  0.64800123  1
  B  B34  1  0.88928545  0.20627497  0.65253657  1
  B  B35  1  0.44550925  0.75801329  0.85814803  1
  N  N36  1  0.22235044  0.20525491  0.34003933  1
  N  N37  1  0.10780572  0.09931658  0.08037876  1
  N  N38  1  0.88720208  0.20717918  0.81786133  1
  N  N39  1  0.79017531  0.10702277  0.59589547  1
  N  N40  1  0.55768625  0.20337392  0.33991820  1
  N  N41  1  0.44449537  0.09365358  0.08815812  1
  N  N42  1  0.22283206  0.20759485  0.83730086  1
  N  N43  1  0.08271026  0.11227264  0.59941664  1
  N  N44  1  0.88858771  0.20595972  0.33328060  1
  N  N45  1  0.77863210  0.09514992  0.08485174  1
  N  N46  1  0.55449932  0.20651141  0.84025090  1
  N  N47  1  0.44441568  0.09440484  0.59342596  1
  N  N48  1  0.22215547  0.53898944  0.33760607  1
  N  N49  1  0.11126047  0.42735524  0.09024167  1
  N  N50  1  0.89066154  0.53860529  0.83838051  1
  N  N51  1  0.79228476  0.40186714  0.59664542  1
  N  N52  1  0.56254055  0.52924112  0.35228568  1
  N  N53  1  0.44456768  0.42698127  0.08896960  1
  N  N54  1  0.22256595  0.53638733  0.83859401  1
  N  N55  1  0.11105366  0.42759402  0.58761179  1
  N  N56  1  0.88814175  0.53906101  0.34055678  1
  N  N57  1  0.77983342  0.42564925  0.08341409  1
  N  N58  1  0.54013798  0.56995025  0.85203352  1
  N  N59  1  0.44194575  0.42536423  0.58904208  1
  N  N60  1  0.21447093  0.87918629  0.38463629  1
  N  N61  1  0.10934946  0.75991392  0.08652006  1
  N  N62  1  0.88748915  0.87227831  0.83991389  1
  N  N63  1  0.77767355  0.76123126  0.59342783  1
  N  N64  1  0.56100147  0.87777497  0.34334809  1
  N  N65  1  0.44226585  0.76207555  0.14935631  1
  N  N66  1  0.25749871  0.85427150  0.87891582  1
  N  N67  1  0.10739642  0.75651089  0.59230746  1
  N  N68  1  0.88670974  0.87441252  0.33965296  1
  N  N69  1  0.77754937  0.76115781  0.08858279  1
  N  N70  1  0.54102497  0.85723196  0.84385411  1
  N  N71  1  0.44791198  0.76023197  0.58843891  1
