# generated using pymatgen
data_Al17BN18
_symmetry_space_group_name_H-M   'P 1'
_cell_length_a   9.32325959
_cell_length_b   9.33101218
_cell_length_c   10.06260215
_cell_angle_alpha   90.09324727
_cell_angle_beta   90.15307828
_cell_angle_gamma   60.25825207
_symmetry_Int_Tables_number   1
_chemical_formula_structural   Al17BN18
_chemical_formula_sum   'Al34 B2 N36'
_cell_volume   760.08155131
_cell_formula_units_Z   2
loop_
 _symmetry_equiv_pos_site_id
 _symmetry_equiv_pos_as_xyz
  1  'x, y, z'
loop_
 _atom_site_type_symbol
 _atom_site_label
 _atom_site_symmetry_multiplicity
 _atom_site_fract_x
 _atom_site_fract_y
 _atom_site_fract_z
 _atom_site_occupancy
  Al  Al0  1  0.09970516  0.09856392  0.38470798  1
  Al  Al1  1  0.22352925  0.20578268  0.05961877  1
  Al  Al2  1  0.77770019  0.09540960  0.80212750  1
  Al  Al3  1  0.44220947  0.09327581  0.30906539  1
  Al  Al4  1  0.55615063  0.20512093  0.05669909  1
  Al  Al5  1  0.11266432  0.09270585  0.86085347  1
  Al  Al6  1  0.22060534  0.20762822  0.57412018  1
  Al  Al7  1  0.77394383  0.09143763  0.30716028  1
  Al  Al8  1  0.89168225  0.20625007  0.12379472  1
  Al  Al9  1  0.44756760  0.08938042  0.80678480  1
  Al  Al10  1  0.56084941  0.20730330  0.55690399  1
  Al  Al11  1  0.11600576  0.42316496  0.31125821  1
  Al  Al12  1  0.22141867  0.53866121  0.05931614  1
  Al  Al13  1  0.77894628  0.43117404  0.86771822  1
  Al  Al14  1  0.88659183  0.53324775  0.62478816  1
  Al  Al15  1  0.44675104  0.42906702  0.30861165  1
  Al  Al16  1  0.54628268  0.54646912  0.05232805  1
  Al  Al17  1  0.11763524  0.42852637  0.80870248  1
  Al  Al18  1  0.22251143  0.53943627  0.55485785  1
  Al  Al19  1  0.78482654  0.41844196  0.38468313  1
  Al  Al20  1  0.88231612  0.53526201  0.12375309  1
  Al  Al21  1  0.44303061  0.43352960  0.80739749  1
  Al  Al22  1  0.55366033  0.53832452  0.57039058  1
  Al  Al23  1  0.11234359  0.76270790  0.30839468  1
  Al  Al24  1  0.22935319  0.86310105  0.05185140  1
  Al  Al25  1  0.77011590  0.76829648  0.80794485  1
  Al  Al26  1  0.89055561  0.87734427  0.55688134  1
  Al  Al27  1  0.44361566  0.76056390  0.31185727  1
  Al  Al28  1  0.55226993  0.86944548  0.05392427  1
  Al  Al29  1  0.11672202  0.75860376  0.80703426  1
  Al  Al30  1  0.22204680  0.86944025  0.57211444  1
  Al  Al31  1  0.77243722  0.76675436  0.31040235  1
  Al  Al32  1  0.88829312  0.87251448  0.05603280  1
  Al  Al33  1  0.55442230  0.87189107  0.56198893  1
  B  B34  1  0.89208595  0.20808611  0.63636553  1
  B  B35  1  0.44424027  0.75987165  0.80345282  1
  N  N36  1  0.22348876  0.20443964  0.36932548  1
  N  N37  1  0.10444841  0.09294491  0.05688199  1
  N  N38  1  0.89322353  0.21303976  0.79751611  1
  N  N39  1  0.78768675  0.10440308  0.61170670  1
  N  N40  1  0.55452004  0.20630491  0.36725906  1
  N  N41  1  0.44479530  0.09178415  0.11642063  1
  N  N42  1  0.22771552  0.20810225  0.85774931  1
  N  N43  1  0.08221965  0.10780108  0.58236788  1
  N  N44  1  0.89069154  0.20748931  0.31272971  1
  N  N45  1  0.77413732  0.09067191  0.11564047  1
  N  N46  1  0.55829474  0.20694746  0.86653303  1
  N  N47  1  0.44889008  0.09358490  0.61826484  1
  N  N48  1  0.22293602  0.53973114  0.36593676  1
  N  N49  1  0.11460646  0.42439877  0.11714363  1
  N  N50  1  0.88818776  0.54064288  0.82006906  1
  N  N51  1  0.79353213  0.39868285  0.57742707  1
  N  N52  1  0.55157415  0.54251433  0.37709700  1
  N  N53  1  0.44561068  0.42816165  0.11725041  1
  N  N54  1  0.22359227  0.54036305  0.87083936  1
  N  N55  1  0.11598527  0.42896096  0.61622645  1
  N  N56  1  0.88380383  0.53614500  0.32232164  1
  N  N57  1  0.77880875  0.42251443  0.05825328  1
  N  N58  1  0.53911109  0.56724616  0.85748022  1
  N  N59  1  0.44255610  0.42706388  0.61957342  1
  N  N60  1  0.22566192  0.86746881  0.37761591  1
  N  N61  1  0.11135454  0.76178558  0.11716682  1
  N  N62  1  0.89037753  0.87523165  0.86612032  1
  N  N63  1  0.77542729  0.76809409  0.61501416  1
  N  N64  1  0.55313034  0.87255613  0.37206419  1
  N  N65  1  0.44379993  0.76037222  0.12298293  1
  N  N66  1  0.25104837  0.85458238  0.85598726  1
  N  N67  1  0.11032035  0.75833697  0.61957114  1
  N  N68  1  0.89003455  0.87198333  0.36765954  1
  N  N69  1  0.77243727  0.76647837  0.11484216  1
  N  N70  1  0.54307895  0.86093438  0.86199835  1
  N  N71  1  0.44615245  0.76131815  0.63989571  1
