# generated using pymatgen
data_Al17BN18
_symmetry_space_group_name_H-M   'P 1'
_cell_length_a   9.33001169
_cell_length_b   9.32171856
_cell_length_c   10.06568827
_cell_angle_alpha   90.14694560
_cell_angle_beta   90.08674786
_cell_angle_gamma   60.24797055
_symmetry_Int_Tables_number   1
_chemical_formula_structural   Al17BN18
_chemical_formula_sum   'Al34 B2 N36'
_cell_volume   760.02976665
_cell_formula_units_Z   2
loop_
 _symmetry_equiv_pos_site_id
 _symmetry_equiv_pos_as_xyz
  1  'x, y, z'
loop_
 _atom_site_type_symbol
 _atom_site_label
 _atom_site_symmetry_multiplicity
 _atom_site_fract_x
 _atom_site_fract_y
 _atom_site_fract_z
 _atom_site_occupancy
  Al  Al0  1  0.10352424  0.10366838  0.40537856  1
  Al  Al1  1  0.22091904  0.20320684  0.14908556  1
  Al  Al2  1  0.77799659  0.09561170  0.89564380  1
  Al  Al3  1  0.44490281  0.09389160  0.40095545  1
  Al  Al4  1  0.55660065  0.20796471  0.14878237  1
  Al  Al5  1  0.11166391  0.09626579  0.88730520  1
  Al  Al6  1  0.21645556  0.20691227  0.65027518  1
  Al  Al7  1  0.78040577  0.09780813  0.40372746  1
  Al  Al8  1  0.88945843  0.20630873  0.14587431  1
  Al  Al9  1  0.44270657  0.08911527  0.90073637  1
  Al  Al10  1  0.56037691  0.20274513  0.65106432  1
  Al  Al11  1  0.11140594  0.42856696  0.39833874  1
  Al  Al12  1  0.22697858  0.53384041  0.14661508  1
  Al  Al13  1  0.78045239  0.42791408  0.88546612  1
  Al  Al14  1  0.89143870  0.53324685  0.65065763  1
  Al  Al15  1  0.44392455  0.42630398  0.39996568  1
  Al  Al16  1  0.55167990  0.55051178  0.07304579  1
  Al  Al17  1  0.11053970  0.42744980  0.90275950  1
  Al  Al18  1  0.22177435  0.53207316  0.64916686  1
  Al  Al19  1  0.78681361  0.42066401  0.40583200  1
  Al  Al20  1  0.88738559  0.53762388  0.14932667  1
  Al  Al21  1  0.44192581  0.42913525  0.88635908  1
  Al  Al22  1  0.55734534  0.53728840  0.59701483  1
  Al  Al23  1  0.11482870  0.76752009  0.33390890  1
  Al  Al24  1  0.23149728  0.86513433  0.07299766  1
  Al  Al25  1  0.77263647  0.75941685  0.90082841  1
  Al  Al26  1  0.88167172  0.87985558  0.64974270  1
  Al  Al27  1  0.44379907  0.75817612  0.33397827  1
  Al  Al28  1  0.55853711  0.87611777  0.15060321  1
  Al  Al29  1  0.11684034  0.76323849  0.83281612  1
  Al  Al30  1  0.21878560  0.87098030  0.58994171  1
  Al  Al31  1  0.77747337  0.76167841  0.40168058  1
  Al  Al32  1  0.88321465  0.87755579  0.14730549  1
  Al  Al33  1  0.55455691  0.87228233  0.65560028  1
  B  B34  1  0.89011904  0.20570422  0.65424664  1
  B  B35  1  0.44187997  0.75771154  0.82138194  1
  N  N36  1  0.22182645  0.20433076  0.34040471  1
  N  N37  1  0.10748204  0.09840005  0.08057125  1
  N  N38  1  0.88870599  0.20374978  0.81778999  1
  N  N39  1  0.78892332  0.10698103  0.59570370  1
  N  N40  1  0.55799834  0.20556085  0.34114258  1
  N  N41  1  0.44369449  0.09555475  0.09039539  1
  N  N42  1  0.22291159  0.20736201  0.83807269  1
  N  N43  1  0.08273710  0.11083443  0.60019595  1
  N  N44  1  0.88963539  0.20615597  0.33470030  1
  N  N45  1  0.77731185  0.09695799  0.08560425  1
  N  N46  1  0.55615707  0.20147994  0.83940389  1
  N  N47  1  0.44306867  0.09171390  0.59113917  1
  N  N48  1  0.22596726  0.53509445  0.34031631  1
  N  N49  1  0.11036239  0.42705005  0.09167857  1
  N  N50  1  0.89164362  0.53963424  0.83809460  1
  N  N51  1  0.79541786  0.39889440  0.60178391  1
  N  N52  1  0.55707165  0.54548238  0.40084657  1
  N  N53  1  0.44536056  0.42640796  0.08692229  1
  N  N54  1  0.22135498  0.53368312  0.84127535  1
  N  N55  1  0.10968464  0.42639927  0.58681073  1
  N  N56  1  0.88826635  0.53859976  0.34050463  1
  N  N57  1  0.78260755  0.42429363  0.08009666  1
  N  N58  1  0.54211270  0.56761631  0.87535163  1
  N  N59  1  0.44163718  0.42205379  0.59821941  1
  N  N60  1  0.22747518  0.87109714  0.39947032  1
  N  N61  1  0.11389311  0.76607749  0.13538325  1
  N  N62  1  0.88190127  0.87452807  0.84265872  1
  N  N63  1  0.77474141  0.75958807  0.59154694  1
  N  N64  1  0.55931249  0.87586471  0.34202431  1
  N  N65  1  0.44243213  0.75935103  0.14505934  1
  N  N66  1  0.25129963  0.85634961  0.88032560  1
  N  N67  1  0.10941190  0.76164172  0.63764337  1
  N  N68  1  0.88352102  0.87753694  0.34283172  1
  N  N69  1  0.77799170  0.75994990  0.09001723  1
  N  N70  1  0.54560268  0.86226736  0.84596957  1
  N  N71  1  0.43689684  0.75671222  0.66027240  1
