# generated using pymatgen
data_Al17BN18
_symmetry_space_group_name_H-M   'P 1'
_cell_length_a   9.31508746
_cell_length_b   9.32048676
_cell_length_c   10.11139018
_cell_angle_alpha   90.05512695
_cell_angle_beta   90.08752774
_cell_angle_gamma   60.15162197
_symmetry_Int_Tables_number   1
_chemical_formula_structural   Al17BN18
_chemical_formula_sum   'Al34 B2 N36'
_cell_volume   761.42656004
_cell_formula_units_Z   2
loop_
 _symmetry_equiv_pos_site_id
 _symmetry_equiv_pos_as_xyz
  1  'x, y, z'
loop_
 _atom_site_type_symbol
 _atom_site_label
 _atom_site_symmetry_multiplicity
 _atom_site_fract_x
 _atom_site_fract_y
 _atom_site_fract_z
 _atom_site_occupancy
  Al  Al0  1  0.10334422  0.10226689  0.39195487  1
  Al  Al1  1  0.22136842  0.20255611  0.13604847  1
  Al  Al2  1  0.77721554  0.09739430  0.87865487  1
  Al  Al3  1  0.44557797  0.09429646  0.38817126  1
  Al  Al4  1  0.56042425  0.20075934  0.13605879  1
  Al  Al5  1  0.11150337  0.09540130  0.87283579  1
  Al  Al6  1  0.21603778  0.20825017  0.63663663  1
  Al  Al7  1  0.78031334  0.09755859  0.39123301  1
  Al  Al8  1  0.88998808  0.20629943  0.13231587  1
  Al  Al9  1  0.44293346  0.08962528  0.88751050  1
  Al  Al10  1  0.56040577  0.20059424  0.63725879  1
  Al  Al11  1  0.10845321  0.42519737  0.38171413  1
  Al  Al12  1  0.22679912  0.54052264  0.07045254  1
  Al  Al13  1  0.77904529  0.42785038  0.87346055  1
  Al  Al14  1  0.89178646  0.53179298  0.63701642  1
  Al  Al15  1  0.44547427  0.43506487  0.31848888  1
  Al  Al16  1  0.54956121  0.54833083  0.05970185  1
  Al  Al17  1  0.10839231  0.42432155  0.88864343  1
  Al  Al18  1  0.22416238  0.54123727  0.56398663  1
  Al  Al19  1  0.78573363  0.42012602  0.39222977  1
  Al  Al20  1  0.88682182  0.53689655  0.13613861  1
  Al  Al21  1  0.43884974  0.43788741  0.81693853  1
  Al  Al22  1  0.55439467  0.53605769  0.57772390  1
  Al  Al23  1  0.11397223  0.76436362  0.31810110  1
  Al  Al24  1  0.23327338  0.86553937  0.05922835  1
  Al  Al25  1  0.77149188  0.75832794  0.88445992  1
  Al  Al26  1  0.88415517  0.87771639  0.63016865  1
  Al  Al27  1  0.44262831  0.75975248  0.32105876  1
  Al  Al28  1  0.55973513  0.87541824  0.13812924  1
  Al  Al29  1  0.12014429  0.75597044  0.81702008  1
  Al  Al30  1  0.21887510  0.87121197  0.57706704  1
  Al  Al31  1  0.77781319  0.76157324  0.38925929  1
  Al  Al32  1  0.88825515  0.87430771  0.11463201  1
  Al  Al33  1  0.55361805  0.87198730  0.64280492  1
  B  B34  1  0.88886575  0.20715462  0.64019061  1
  B  B35  1  0.44029981  0.75815642  0.80893151  1
  N  N36  1  0.22249186  0.20234997  0.32586743  1
  N  N37  1  0.10792711  0.09787455  0.06609712  1
  N  N38  1  0.88813699  0.20542710  0.80312329  1
  N  N39  1  0.78823151  0.10861936  0.58346160  1
  N  N40  1  0.55965175  0.20201785  0.32924931  1
  N  N41  1  0.44419180  0.09506395  0.07623037  1
  N  N42  1  0.22309170  0.20701334  0.82357760  1
  N  N43  1  0.08260641  0.11062343  0.58645564  1
  N  N44  1  0.88899922  0.20628135  0.32048378  1
  N  N45  1  0.77804595  0.09814488  0.06883264  1
  N  N46  1  0.55529234  0.20095718  0.82789000  1
  N  N47  1  0.44289780  0.09210630  0.57733022  1
  N  N48  1  0.22480170  0.54245628  0.37354686  1
  N  N49  1  0.10887181  0.42459462  0.08048204  1
  N  N50  1  0.89110649  0.53836434  0.82341738  1
  N  N51  1  0.79382879  0.39952715  0.58652616  1
  N  N52  1  0.55358386  0.54360413  0.38737160  1
  N  N53  1  0.44714831  0.43356758  0.12687374  1
  N  N54  1  0.22413221  0.54063789  0.88092170  1
  N  N55  1  0.10823072  0.42490017  0.57274218  1
  N  N56  1  0.88560590  0.53900458  0.32582529  1
  N  N57  1  0.78207867  0.42393764  0.06622479  1
  N  N58  1  0.53970101  0.56709463  0.86653282  1
  N  N59  1  0.43929682  0.43072398  0.62818708  1
  N  N60  1  0.22632085  0.87019565  0.38654705  1
  N  N61  1  0.11776271  0.76256275  0.12558465  1
  N  N62  1  0.88490867  0.87268762  0.83307626  1
  N  N63  1  0.77398119  0.75831592  0.57944187  1
  N  N64  1  0.55939368  0.87571932  0.32876230  1
  N  N65  1  0.44366247  0.75923993  0.13215922  1
  N  N66  1  0.25030446  0.85614164  0.86645888  1
  N  N67  1  0.11374789  0.75618300  0.62892225  1
  N  N68  1  0.88667659  0.87555720  0.34034582  1
  N  N69  1  0.77812548  0.75832204  0.07374551  1
  N  N70  1  0.54395405  0.86258645  0.83214420  1
  N  N71  1  0.43763599  0.75517202  0.64696943  1
