# generated using pymatgen
data_Al17BN18
_symmetry_space_group_name_H-M   'P 1'
_cell_length_a   9.35462655
_cell_length_b   9.35463077
_cell_length_c   10.08056370
_cell_angle_alpha   90.10298993
_cell_angle_beta   90.10100460
_cell_angle_gamma   60.12596362
_symmetry_Int_Tables_number   1
_chemical_formula_structural   Al17BN18
_chemical_formula_sum   'Al34 B2 N36'
_cell_volume   764.92258658
_cell_formula_units_Z   2
loop_
 _symmetry_equiv_pos_site_id
 _symmetry_equiv_pos_as_xyz
  1  'x, y, z'
loop_
 _atom_site_type_symbol
 _atom_site_label
 _atom_site_symmetry_multiplicity
 _atom_site_fract_x
 _atom_site_fract_y
 _atom_site_fract_z
 _atom_site_occupancy
  Al  Al0  1  0.10352991  0.10096992  0.39435851  1
  Al  Al1  1  0.22245151  0.20159272  0.13681329  1
  Al  Al2  1  0.77853492  0.09521701  0.81761185  1
  Al  Al3  1  0.43809897  0.09666522  0.39172272  1
  Al  Al4  1  0.55854211  0.20814917  0.06436030  1
  Al  Al5  1  0.11217185  0.09504676  0.87773861  1
  Al  Al6  1  0.21360625  0.21061779  0.63930516  1
  Al  Al7  1  0.77749209  0.09417562  0.34193450  1
  Al  Al8  1  0.89005494  0.20674182  0.13423791  1
  Al  Al9  1  0.43750543  0.09292402  0.87582664  1
  Al  Al10  1  0.55950624  0.21250559  0.57723696  1
  Al  Al11  1  0.10867758  0.42536193  0.38222023  1
  Al  Al12  1  0.22436125  0.54104329  0.07422506  1
  Al  Al13  1  0.77836587  0.42885487  0.87773735  1
  Al  Al14  1  0.89393126  0.53029351  0.63930423  1
  Al  Al15  1  0.44772451  0.42907547  0.31910392  1
  Al  Al16  1  0.54861590  0.54571924  0.06361432  1
  Al  Al17  1  0.10827486  0.42495912  0.89158254  1
  Al  Al18  1  0.22485204  0.54153361  0.56560439  1
  Al  Al19  1  0.78428589  0.42021554  0.39435859  1
  Al  Al20  1  0.88490809  0.53913714  0.13681345  1
  Al  Al21  1  0.43982804  0.43637208  0.81817005  1
  Al  Al22  1  0.55477138  0.53851973  0.58097449  1
  Al  Al23  1  0.11239201  0.76440651  0.31910385  1
  Al  Al24  1  0.22903553  0.86529860  0.06361456  1
  Al  Al25  1  0.77624071  0.75418982  0.87582564  1
  Al  Al26  1  0.89582210  0.87618999  0.57723597  1
  Al  Al27  1  0.44416687  0.76085060  0.32306407  1
  Al  Al28  1  0.54994702  0.86663083  0.06703698  1
  Al  Al29  1  0.11969015  0.75650893  0.81816943  1
  Al  Al30  1  0.22183525  0.87145548  0.58097296  1
  Al  Al31  1  0.77997891  0.75478508  0.39172253  1
  Al  Al32  1  0.89146562  0.87522518  0.06436088  1
  Al  Al33  1  0.55174050  0.86842834  0.58693350  1
  B  B34  1  0.89253812  0.20922137  0.64498078  1
  B  B35  1  0.44343194  0.76011620  0.81465900  1
  N  N36  1  0.22142259  0.20243248  0.32717685  1
  N  N37  1  0.10753118  0.09700557  0.06981423  1
  N  N38  1  0.89437934  0.21106068  0.80728081  1
  N  N39  1  0.78925240  0.10593756  0.61894542  1
  N  N40  1  0.55526038  0.21128829  0.38341385  1
  N  N41  1  0.43906138  0.09576772  0.07391885  1
  N  N42  1  0.21830000  0.20989133  0.82508846  1
  N  N43  1  0.08318928  0.11070560  0.58809971  1
  N  N44  1  0.89175944  0.20844195  0.32415123  1
  N  N45  1  0.77671017  0.09339636  0.11349456  1
  N  N46  1  0.55642610  0.21082432  0.86945878  1
  N  N47  1  0.43773186  0.09901475  0.58980107  1
  N  N48  1  0.22523807  0.54192304  0.37346265  1
  N  N49  1  0.10785292  0.42453507  0.08338856  1
  N  N50  1  0.89321073  0.53498258  0.82508762  1
  N  N51  1  0.79402022  0.39987427  0.58810048  1
  N  N52  1  0.55251027  0.54259832  0.38774295  1
  N  N53  1  0.44737564  0.42802367  0.12905761  1
  N  N54  1  0.22408619  0.54077093  0.88269300  1
  N  N55  1  0.10896396  0.42564666  0.57357441  1
  N  N56  1  0.88575031  0.53810582  0.32717725  1
  N  N57  1  0.78032208  0.42421509  0.06981399  1
  N  N58  1  0.53929525  0.56622389  0.86926075  1
  N  N59  1  0.44046367  0.43157508  0.63180411  1
  N  N60  1  0.22591253  0.86919393  0.38774263  1
  N  N61  1  0.11133779  0.76406033  0.12905794  1
  N  N62  1  0.89413990  0.87311089  0.86945899  1
  N  N63  1  0.78232775  0.75441780  0.58980102  1
  N  N64  1  0.55191512  0.86860022  0.38460275  1
  N  N65  1  0.44315454  0.75984121  0.13500253  1
  N  N66  1  0.24954142  0.85597588  0.86926137  1
  N  N67  1  0.11488940  0.75714911  0.63180345  1
  N  N68  1  0.89460174  0.87194630  0.38341356  1
  N  N69  1  0.77908372  0.75574445  0.07391918  1
  N  N70  1  0.53993014  0.85661300  0.86560905  1
  N  N71  1  0.44277729  0.75946362  0.65222723  1
