# generated using pymatgen
data_Al17BN18
_symmetry_space_group_name_H-M   'P 1'
_cell_length_a   9.30188993
_cell_length_b   9.29929627
_cell_length_c   9.97877842
_cell_angle_alpha   89.85818288
_cell_angle_beta   90.03198327
_cell_angle_gamma   60.01825628
_symmetry_Int_Tables_number   1
_chemical_formula_structural   Al17BN18
_chemical_formula_sum   'Al34 B2 N36'
_cell_volume   747.66472839
_cell_formula_units_Z   2
loop_
 _symmetry_equiv_pos_site_id
 _symmetry_equiv_pos_as_xyz
  1  'x, y, z'
loop_
 _atom_site_type_symbol
 _atom_site_label
 _atom_site_symmetry_multiplicity
 _atom_site_fract_x
 _atom_site_fract_y
 _atom_site_fract_z
 _atom_site_occupancy
  Al  Al0  1  0.11048393  0.09341262  0.31010482  1
  Al  Al1  1  0.22264754  0.20487309  0.05870329  1
  Al  Al2  1  0.78015715  0.09690759  0.81099779  1
  Al  Al3  1  0.44497825  0.09312689  0.31018190  1
  Al  Al4  1  0.55554430  0.20505428  0.05853285  1
  Al  Al5  1  0.11141643  0.09365225  0.81148829  1
  Al  Al6  1  0.21598392  0.20772893  0.55894349  1
  Al  Al7  1  0.77874445  0.09495970  0.30966252  1
  Al  Al8  1  0.88920975  0.20435039  0.06811752  1
  Al  Al9  1  0.44307804  0.09056511  0.80838588  1
  Al  Al10  1  0.55954623  0.20811949  0.55951608  1
  Al  Al11  1  0.11063338  0.42714438  0.30982602  1
  Al  Al12  1  0.22203686  0.53908086  0.06046390  1
  Al  Al13  1  0.77673522  0.42794739  0.81709212  1
  Al  Al14  1  0.89066515  0.53280158  0.56053857  1
  Al  Al15  1  0.44622914  0.42813945  0.31031936  1
  Al  Al16  1  0.55172268  0.54497745  0.05593055  1
  Al  Al17  1  0.11171951  0.42825360  0.80885785  1
  Al  Al18  1  0.22218175  0.53943932  0.55775234  1
  Al  Al19  1  0.77752703  0.42561975  0.31243177  1
  Al  Al20  1  0.88840403  0.53954051  0.05977035  1
  Al  Al21  1  0.44208716  0.43333218  0.80925972  1
  Al  Al22  1  0.55913545  0.53511407  0.56768389  1
  Al  Al23  1  0.11144651  0.76304762  0.30947821  1
  Al  Al24  1  0.22783438  0.86965941  0.05451736  1
  Al  Al25  1  0.77344794  0.76009255  0.80840825  1
  Al  Al26  1  0.89095120  0.87677290  0.55928014  1
  Al  Al27  1  0.44433678  0.76057023  0.31248443  1
  Al  Al28  1  0.55268138  0.86930357  0.05615110  1
  Al  Al29  1  0.11626760  0.75935464  0.80889629  1
  Al  Al30  1  0.21784749  0.87607286  0.56570367  1
  Al  Al31  1  0.77651807  0.76121834  0.31083390  1
  Al  Al32  1  0.88807976  0.87223394  0.05823941  1
  Al  Al33  1  0.55408475  0.87136791  0.56431677  1
  B  B34  1  0.88866307  0.20682662  0.58643087  1
  B  B35  1  0.44410653  0.76203415  0.80526971  1
  N  N36  1  0.22254526  0.20448192  0.36920317  1
  N  N37  1  0.11565453  0.09013252  0.11707667  1
  N  N38  1  0.89037833  0.20418804  0.87723356  1
  N  N39  1  0.79207499  0.10926467  0.61662447  1
  N  N40  1  0.55595723  0.20498619  0.36943765  1
  N  N41  1  0.44543560  0.09231429  0.11727192  1
  N  N42  1  0.22192649  0.20583540  0.86750361  1
  N  N43  1  0.08245636  0.10946860  0.61782663  1
  N  N44  1  0.88983674  0.20437414  0.36086903  1
  N  N45  1  0.77599974  0.09229357  0.11831978  1
  N  N46  1  0.55568507  0.20548171  0.86647060  1
  N  N47  1  0.44376721  0.09570651  0.61830933  1
  N  N48  1  0.22241881  0.53914792  0.36723931  1
  N  N49  1  0.11102068  0.42717661  0.11906467  1
  N  N50  1  0.88986818  0.53899193  0.86847709  1
  N  N51  1  0.79233416  0.39958568  0.61973411  1
  N  N52  1  0.55550998  0.54004431  0.37604869  1
  N  N53  1  0.44570544  0.42827120  0.11770410  1
  N  N54  1  0.22198582  0.53884523  0.87018149  1
  N  N55  1  0.11188383  0.42821400  0.61881415  1
  N  N56  1  0.88843247  0.53840471  0.37021536  1
  N  N57  1  0.77380172  0.43125423  0.11599147  1
  N  N58  1  0.54281203  0.56412539  0.86089380  1
  N  N59  1  0.44302729  0.42822770  0.62005750  1
  N  N60  1  0.22395925  0.87169775  0.37481862  1
  N  N61  1  0.11166424  0.76292177  0.11675817  1
  N  N62  1  0.88859090  0.87222867  0.86620480  1
  N  N63  1  0.77864009  0.76092834  0.61843540  1
  N  N64  1  0.55474620  0.87123698  0.37304939  1
  N  N65  1  0.44374868  0.76095345  0.12329966  1
  N  N66  1  0.24679903  0.86085450  0.85966020  1
  N  N67  1  0.11125448  0.76021501  0.61962018  1
  N  N68  1  0.88881876  0.87194903  0.36927974  1
  N  N69  1  0.77568979  0.76204473  0.11791437  1
  N  N70  1  0.54288467  0.85968941  0.86185471  1
  N  N71  1  0.44387961  0.76163281  0.63989868  1
