# generated using pymatgen
data_Al17BN18
_symmetry_space_group_name_H-M   'P 1'
_cell_length_a   9.33046741
_cell_length_b   9.32288503
_cell_length_c   10.05503845
_cell_angle_alpha   90.02906565
_cell_angle_beta   90.01167102
_cell_angle_gamma   60.17744997
_symmetry_Int_Tables_number   1
_chemical_formula_structural   Al17BN18
_chemical_formula_sum   'Al34 B2 N36'
_cell_volume   758.82534730
_cell_formula_units_Z   2
loop_
 _symmetry_equiv_pos_site_id
 _symmetry_equiv_pos_as_xyz
  1  'x, y, z'
loop_
 _atom_site_type_symbol
 _atom_site_label
 _atom_site_symmetry_multiplicity
 _atom_site_fract_x
 _atom_site_fract_y
 _atom_site_fract_z
 _atom_site_occupancy
  Al  Al0  1  0.10364893  0.10361678  0.40556846  1
  Al  Al1  1  0.22116799  0.20332958  0.14847408  1
  Al  Al2  1  0.77759490  0.09587129  0.89542685  1
  Al  Al3  1  0.44514719  0.09404293  0.40068416  1
  Al  Al4  1  0.55668488  0.20831350  0.14892684  1
  Al  Al5  1  0.11153701  0.09650170  0.88630239  1
  Al  Al6  1  0.21667371  0.20714071  0.64989128  1
  Al  Al7  1  0.77968200  0.09879933  0.40338148  1
  Al  Al8  1  0.88998637  0.20603231  0.14546663  1
  Al  Al9  1  0.44279837  0.08914563  0.90029330  1
  Al  Al10  1  0.55966319  0.20389853  0.65166324  1
  Al  Al11  1  0.11157886  0.42775916  0.39783872  1
  Al  Al12  1  0.22583524  0.53645157  0.14704449  1
  Al  Al13  1  0.77960756  0.42823462  0.88489417  1
  Al  Al14  1  0.89166929  0.53332988  0.65012804  1
  Al  Al15  1  0.44383702  0.42558767  0.40285937  1
  Al  Al16  1  0.55246052  0.55155728  0.07383348  1
  Al  Al17  1  0.11038550  0.42717863  0.90248325  1
  Al  Al18  1  0.22260332  0.53145154  0.64952196  1
  Al  Al19  1  0.78655819  0.42091148  0.40523909  1
  Al  Al20  1  0.88812028  0.53786536  0.14875626  1
  Al  Al21  1  0.44044657  0.42854808  0.89392324  1
  Al  Al22  1  0.55745381  0.53670145  0.59708782  1
  Al  Al23  1  0.11351066  0.76473704  0.35203415  1
  Al  Al24  1  0.23124895  0.86547825  0.07233926  1
  Al  Al25  1  0.77248216  0.75953984  0.90080491  1
  Al  Al26  1  0.88218279  0.87949364  0.64922091  1
  Al  Al27  1  0.44350097  0.75824474  0.33373164  1
  Al  Al28  1  0.55872714  0.87680784  0.15029306  1
  Al  Al29  1  0.11595980  0.76157420  0.84053916  1
  Al  Al30  1  0.21927723  0.87182724  0.59297876  1
  Al  Al31  1  0.77679627  0.76154511  0.40129625  1
  Al  Al32  1  0.88639262  0.87622279  0.14710363  1
  Al  Al33  1  0.55496716  0.87213628  0.65548639  1
  B  B34  1  0.88979422  0.20607028  0.65433650  1
  B  B35  1  0.44181513  0.75691680  0.82109335  1
  N  N36  1  0.22205034  0.20399307  0.34007112  1
  N  N37  1  0.10790934  0.09864081  0.07981630  1
  N  N38  1  0.88830504  0.20392081  0.81769047  1
  N  N39  1  0.78838364  0.10750808  0.59559890  1
  N  N40  1  0.55753834  0.20631086  0.34061240  1
  N  N41  1  0.44392373  0.09627349  0.09001667  1
  N  N42  1  0.22295127  0.20747059  0.83764037  1
  N  N43  1  0.08264191  0.11122781  0.60068578  1
  N  N44  1  0.88990572  0.20615669  0.33454363  1
  N  N45  1  0.77748751  0.09701046  0.08569571  1
  N  N46  1  0.55516530  0.20312500  0.83989575  1
  N  N47  1  0.44341585  0.09187259  0.59110004  1
  N  N48  1  0.22640505  0.53477904  0.33989058  1
  N  N49  1  0.11128285  0.42714392  0.09156393  1
  N  N50  1  0.89144528  0.53971575  0.83780103  1
  N  N51  1  0.79534901  0.39901491  0.60179091  1
  N  N52  1  0.55699122  0.54526532  0.40019475  1
  N  N53  1  0.44495760  0.42691512  0.08616351  1
  N  N54  1  0.22245423  0.53225172  0.84003217  1
  N  N55  1  0.11005854  0.42634687  0.58633014  1
  N  N56  1  0.88852722  0.53861568  0.34016006  1
  N  N57  1  0.78313409  0.42455439  0.08012456  1
  N  N58  1  0.54120968  0.56727846  0.87590861  1
  N  N59  1  0.44097350  0.42139242  0.59416404  1
  N  N60  1  0.22822712  0.87148070  0.40081058  1
  N  N61  1  0.11293705  0.76408534  0.12294561  1
  N  N62  1  0.88154061  0.87468938  0.84118810  1
  N  N63  1  0.77473542  0.75960137  0.59101350  1
  N  N64  1  0.55903373  0.87613907  0.34172342  1
  N  N65  1  0.44199479  0.76053099  0.14483254  1
  N  N66  1  0.25112824  0.85689613  0.87795382  1
  N  N67  1  0.10895190  0.75980957  0.63051835  1
  N  N68  1  0.88400773  0.87729249  0.34291617  1
  N  N69  1  0.77823341  0.76055487  0.09009989  1
  N  N70  1  0.54576474  0.86228798  0.84589385  1
  N  N71  1  0.43811673  0.75572927  0.66034698  1
