# generated using pymatgen
data_Al17BN18
_symmetry_space_group_name_H-M   'P 1'
_cell_length_a   9.31602159
_cell_length_b   9.32332127
_cell_length_c   10.11131377
_cell_angle_alpha   90.06036031
_cell_angle_beta   90.09024771
_cell_angle_gamma   60.15225201
_symmetry_Int_Tables_number   1
_chemical_formula_structural   Al17BN18
_chemical_formula_sum   'Al34 B2 N36'
_cell_volume   761.73348018
_cell_formula_units_Z   2
loop_
 _symmetry_equiv_pos_site_id
 _symmetry_equiv_pos_as_xyz
  1  'x, y, z'
loop_
 _atom_site_type_symbol
 _atom_site_label
 _atom_site_symmetry_multiplicity
 _atom_site_fract_x
 _atom_site_fract_y
 _atom_site_fract_z
 _atom_site_occupancy
  Al  Al0  1  0.09984828  0.10107479  0.39697390  1
  Al  Al1  1  0.22101000  0.20145497  0.13801660  1
  Al  Al2  1  0.77989827  0.09460716  0.81327273  1
  Al  Al3  1  0.44289683  0.09352269  0.35599521  1
  Al  Al4  1  0.55569625  0.20540814  0.06673311  1
  Al  Al5  1  0.11429710  0.09544621  0.87927550  1
  Al  Al6  1  0.21354165  0.21052796  0.63932953  1
  Al  Al7  1  0.77353297  0.09114262  0.31788881  1
  Al  Al8  1  0.89077307  0.20690550  0.13517044  1
  Al  Al9  1  0.44791536  0.08944505  0.83459098  1
  Al  Al10  1  0.56234267  0.20898962  0.57231303  1
  Al  Al11  1  0.10629434  0.42636148  0.38568189  1
  Al  Al12  1  0.22478332  0.54137985  0.07458148  1
  Al  Al13  1  0.77887149  0.43057352  0.87854615  1
  Al  Al14  1  0.89452318  0.52863918  0.63931503  1
  Al  Al15  1  0.44641603  0.42986686  0.31993791  1
  Al  Al16  1  0.54751722  0.54651334  0.06400415  1
  Al  Al17  1  0.10903531  0.42545803  0.89240076  1
  Al  Al18  1  0.22477699  0.54236198  0.56761244  1
  Al  Al19  1  0.78368120  0.41833163  0.39652274  1
  Al  Al20  1  0.88792431  0.53144628  0.13775327  1
  Al  Al21  1  0.44147797  0.43509310  0.81910125  1
  Al  Al22  1  0.55418760  0.53884440  0.58268354  1
  Al  Al23  1  0.11190500  0.76409876  0.32018689  1
  Al  Al24  1  0.22986630  0.86453235  0.06433478  1
  Al  Al25  1  0.77303181  0.76593348  0.81886886  1
  Al  Al26  1  0.89038810  0.87699706  0.56869543  1
  Al  Al27  1  0.44327979  0.76026537  0.32378431  1
  Al  Al28  1  0.55322936  0.86843414  0.06487570  1
  Al  Al29  1  0.11726200  0.75838877  0.81967009  1
  Al  Al30  1  0.22169956  0.87131827  0.58345584  1
  Al  Al31  1  0.77283734  0.76595766  0.31997595  1
  Al  Al32  1  0.88764092  0.87238551  0.06809207  1
  Al  Al33  1  0.55647239  0.86818200  0.57834482  1
  B  B34  1  0.89317886  0.20848539  0.64730540  1
  B  B35  1  0.44468163  0.75924997  0.81595847  1
  N  N36  1  0.21619301  0.20378703  0.33042422  1
  N  N37  1  0.10693172  0.09656090  0.06982022  1
  N  N38  1  0.89577446  0.21149087  0.80923054  1
  N  N39  1  0.78958844  0.10391862  0.62405840  1
  N  N40  1  0.55565193  0.20888552  0.38245264  1
  N  N41  1  0.44493387  0.09190485  0.10529085  1
  N  N42  1  0.21939916  0.21055349  0.82673661  1
  N  N43  1  0.08297134  0.11059943  0.58972795  1
  N  N44  1  0.88963583  0.20742858  0.32408259  1
  N  N45  1  0.77392253  0.09093752  0.12748570  1
  N  N46  1  0.55997467  0.20905316  0.87595559  1
  N  N47  1  0.44682902  0.09469480  0.61678282  1
  N  N48  1  0.22440742  0.54204723  0.37576115  1
  N  N49  1  0.10849337  0.42407702  0.08286133  1
  N  N50  1  0.89404815  0.53583178  0.82805018  1
  N  N51  1  0.79353392  0.39956785  0.58970396  1
  N  N52  1  0.55117355  0.54271021  0.38997866  1
  N  N53  1  0.44765399  0.42774325  0.13041888  1
  N  N54  1  0.22504273  0.54170244  0.88349942  1
  N  N55  1  0.10908723  0.42599502  0.57523189  1
  N  N56  1  0.88613043  0.53304425  0.32936382  1
  N  N57  1  0.77964937  0.42305479  0.06889539  1
  N  N58  1  0.53945073  0.56707255  0.86972380  1
  N  N59  1  0.44201145  0.42861487  0.63279762  1
  N  N60  1  0.22537215  0.86882624  0.39015948  1
  N  N61  1  0.11078456  0.76429139  0.13039077  1
  N  N62  1  0.89030168  0.87457978  0.87891705  1
  N  N63  1  0.77819575  0.76561916  0.62842602  1
  N  N64  1  0.55583591  0.86729078  0.38750295  1
  N  N65  1  0.44425310  0.76026445  0.13577062  1
  N  N66  1  0.25066516  0.85606974  0.86980270  1
  N  N67  1  0.11017014  0.75965033  0.63268214  1
  N  N68  1  0.88902783  0.87161577  0.37999835  1
  N  N69  1  0.77368891  0.76454624  0.12702186  1
  N  N70  1  0.54556436  0.85670839  0.87203634  1
  N  N71  1  0.44501529  0.76100203  0.65311817  1
