# generated using pymatgen
data_Al17BN18
_symmetry_space_group_name_H-M   'P 1'
_cell_length_a   9.31172523
_cell_length_b   9.31463118
_cell_length_c   10.11811389
_cell_angle_alpha   90.05058233
_cell_angle_beta   90.07663964
_cell_angle_gamma   60.15460647
_symmetry_Int_Tables_number   1
_chemical_formula_structural   Al17BN18
_chemical_formula_sum   'Al34 B2 N36'
_cell_volume   761.20231058
_cell_formula_units_Z   2
loop_
 _symmetry_equiv_pos_site_id
 _symmetry_equiv_pos_as_xyz
  1  'x, y, z'
loop_
 _atom_site_type_symbol
 _atom_site_label
 _atom_site_symmetry_multiplicity
 _atom_site_fract_x
 _atom_site_fract_y
 _atom_site_fract_z
 _atom_site_occupancy
  Al  Al0  1  0.10326061  0.10250973  0.39201146  1
  Al  Al1  1  0.22127321  0.20263335  0.13588579  1
  Al  Al2  1  0.77780862  0.09591245  0.88032734  1
  Al  Al3  1  0.44539039  0.09439506  0.38814292  1
  Al  Al4  1  0.56030678  0.20089503  0.13554233  1
  Al  Al5  1  0.11136807  0.09550610  0.87288599  1
  Al  Al6  1  0.21607535  0.20823911  0.63671453  1
  Al  Al7  1  0.78042238  0.09703556  0.39067817  1
  Al  Al8  1  0.88987413  0.20609965  0.13200063  1
  Al  Al9  1  0.44299754  0.08956971  0.88736134  1
  Al  Al10  1  0.56089468  0.20020592  0.63712556  1
  Al  Al11  1  0.10839701  0.42506247  0.38179268  1
  Al  Al12  1  0.22618552  0.54123723  0.07020431  1
  Al  Al13  1  0.77898326  0.42790226  0.87316480  1
  Al  Al14  1  0.89168519  0.53233354  0.63679078  1
  Al  Al15  1  0.44562494  0.43483970  0.31829883  1
  Al  Al16  1  0.54943319  0.54838116  0.05951263  1
  Al  Al17  1  0.10817956  0.42442181  0.88860030  1
  Al  Al18  1  0.22407679  0.54123023  0.56426626  1
  Al  Al19  1  0.78571901  0.42009522  0.39213798  1
  Al  Al20  1  0.88666864  0.53721726  0.13576568  1
  Al  Al21  1  0.43904427  0.43763315  0.81687405  1
  Al  Al22  1  0.55439306  0.53599596  0.57765029  1
  Al  Al23  1  0.11654477  0.76311840  0.31770795  1
  Al  Al24  1  0.23270287  0.86549174  0.05916493  1
  Al  Al25  1  0.77228746  0.75918547  0.88582249  1
  Al  Al26  1  0.88308542  0.87821752  0.63604410  1
  Al  Al27  1  0.44280444  0.75978359  0.32086057  1
  Al  Al28  1  0.55963476  0.87533970  0.13759347  1
  Al  Al29  1  0.12038257  0.75594824  0.81704514  1
  Al  Al30  1  0.21879631  0.87124888  0.57728555  1
  Al  Al31  1  0.77791222  0.76185322  0.38849833  1
  Al  Al32  1  0.88564803  0.87571348  0.12980582  1
  Al  Al33  1  0.55421292  0.87186594  0.64253823  1
  B  B34  1  0.88930505  0.20668844  0.63994333  1
  B  B35  1  0.44069661  0.75809659  0.80885625  1
  N  N36  1  0.22245595  0.20236244  0.32572228  1
  N  N37  1  0.10787077  0.09800539  0.06594812  1
  N  N38  1  0.88792000  0.20493066  0.80303284  1
  N  N39  1  0.78893715  0.10686111  0.58218839  1
  N  N40  1  0.55970021  0.20181712  0.32905823  1
  N  N41  1  0.44396892  0.09516241  0.07599261  1
  N  N42  1  0.22305450  0.20705930  0.82345603  1
  N  N43  1  0.08258874  0.11069800  0.58637545  1
  N  N44  1  0.88904445  0.20607425  0.32036537  1
  N  N45  1  0.77878206  0.09635476  0.06980381  1
  N  N46  1  0.55587749  0.20063740  0.82794945  1
  N  N47  1  0.44281552  0.09214072  0.57721453  1
  N  N48  1  0.22486669  0.54227180  0.37394293  1
  N  N49  1  0.10878671  0.42464413  0.08029158  1
  N  N50  1  0.89078127  0.53906110  0.82327648  1
  N  N51  1  0.79386825  0.39943928  0.58641294  1
  N  N52  1  0.55350105  0.54361355  0.38733903  1
  N  N53  1  0.44689647  0.43367285  0.12678976  1
  N  N54  1  0.22406325  0.54066223  0.88070250  1
  N  N55  1  0.10817080  0.42481429  0.57264273  1
  N  N56  1  0.88565549  0.53909458  0.32566162  1
  N  N57  1  0.78201500  0.42393227  0.06596742  1
  N  N58  1  0.53964464  0.56711772  0.86642297  1
  N  N59  1  0.43945160  0.43047634  0.62818624  1
  N  N60  1  0.22634462  0.87033269  0.38684348  1
  N  N61  1  0.11785381  0.76257988  0.12582198  1
  N  N62  1  0.88358686  0.87326191  0.82887876  1
  N  N63  1  0.77488236  0.75927301  0.57796160  1
  N  N64  1  0.55938641  0.87585965  0.32851895  1
  N  N65  1  0.44346492  0.75933376  0.13206719  1
  N  N66  1  0.25030852  0.85625845  0.86630228  1
  N  N67  1  0.11331045  0.75643608  0.62840299  1
  N  N68  1  0.88492380  0.87641400  0.32983960  1
  N  N69  1  0.77875461  0.75927084  0.07450014  1
  N  N70  1  0.54460458  0.86232032  0.83198183  1
  N  N71  1  0.43792489  0.75519607  0.64687075  1
