# generated using pymatgen
data_Al17BN18
_symmetry_space_group_name_H-M   'P 1'
_cell_length_a   9.30435426
_cell_length_b   9.30435383
_cell_length_c   10.14016463
_cell_angle_alpha   90.04878094
_cell_angle_beta   90.04880177
_cell_angle_gamma   60.17779252
_symmetry_Int_Tables_number   1
_chemical_formula_structural   Al17BN18
_chemical_formula_sum   'Al34 B2 N36'
_cell_volume   761.59337972
_cell_formula_units_Z   2
loop_
 _symmetry_equiv_pos_site_id
 _symmetry_equiv_pos_as_xyz
  1  'x, y, z'
loop_
 _atom_site_type_symbol
 _atom_site_label
 _atom_site_symmetry_multiplicity
 _atom_site_fract_x
 _atom_site_fract_y
 _atom_site_fract_z
 _atom_site_occupancy
  Al  Al0  1  0.10331412  0.10255489  0.39821590  1
  Al  Al1  1  0.22074120  0.20298646  0.14169353  1
  Al  Al2  1  0.77832606  0.09498866  0.88795363  1
  Al  Al3  1  0.44522279  0.09448605  0.39414541  1
  Al  Al4  1  0.55963087  0.20113622  0.14128154  1
  Al  Al5  1  0.11120232  0.09565655  0.87895923  1
  Al  Al6  1  0.21618070  0.20816904  0.64281540  1
  Al  Al7  1  0.78030067  0.09696275  0.39649865  1
  Al  Al8  1  0.88951421  0.20617753  0.13805875  1
  Al  Al9  1  0.44298594  0.08953700  0.89320051  1
  Al  Al10  1  0.56167574  0.19962407  0.64346003  1
  Al  Al11  1  0.10835821  0.42502070  0.38812633  1
  Al  Al12  1  0.22535347  0.54201536  0.07591685  1
  Al  Al13  1  0.77899606  0.42786368  0.87895933  1
  Al  Al14  1  0.89150623  0.53284373  0.64281537  1
  Al  Al15  1  0.44572158  0.43468124  0.32398824  1
  Al  Al16  1  0.54899096  0.54856549  0.06513637  1
  Al  Al17  1  0.10794109  0.42460394  0.89448837  1
  Al  Al18  1  0.22431470  0.54097763  0.57060036  1
  Al  Al19  1  0.78589417  0.41997575  0.39821613  1
  Al  Al20  1  0.88632403  0.53740536  0.14169390  1
  Al  Al21  1  0.43932538  0.43735410  0.82284094  1
  Al  Al22  1  0.55447251  0.53585063  0.58348200  1
  Al  Al23  1  0.11801975  0.76238336  0.32398774  1
  Al  Al24  1  0.23190340  0.86565153  0.06513621  1
  Al  Al25  1  0.77287367  0.75964901  0.89320087  1
  Al  Al26  1  0.88295869  0.87833990  0.64346017  1
  Al  Al27  1  0.44303080  0.75969261  0.32657938  1
  Al  Al28  1  0.55902042  0.87568491  0.14329055  1
  Al  Al29  1  0.12069053  0.75598759  0.82284056  1
  Al  Al30  1  0.21918731  0.87113427  0.58348227  1
  Al  Al31  1  0.77782290  0.76188647  0.39414521  1
  Al  Al32  1  0.88447212  0.87629522  0.14128185  1
  Al  Al33  1  0.55501565  0.87167872  0.64865075  1
  B  B34  1  0.88954430  0.20620686  0.64565214  1
  B  B35  1  0.44127360  0.75793604  0.81493664  1
  N  N36  1  0.22237323  0.20246854  0.33136037  1
  N  N37  1  0.10733686  0.09835174  0.07159438  1
  N  N38  1  0.88781195  0.20447383  0.80896292  1
  N  N39  1  0.78942416  0.10608803  0.58746281  1
  N  N40  1  0.55974500  0.20158000  0.33451157  1
  N  N41  1  0.44330540  0.09543155  0.08145595  1
  N  N42  1  0.22305719  0.20716130  0.82913678  1
  N  N43  1  0.08266982  0.11065795  0.59224289  1
  N  N44  1  0.88922116  0.20588322  0.32623236  1
  N  N45  1  0.77879544  0.09545954  0.07697072  1
  N  N46  1  0.55665573  0.20013972  0.83413037  1
  N  N47  1  0.44299479  0.09204531  0.58301833  1
  N  N48  1  0.22529564  0.54195765  0.38070600  1
  N  N49  1  0.10825657  0.42491930  0.08575025  1
  N  N50  1  0.89049863  0.53972048  0.82913672  1
  N  N51  1  0.79399596  0.39933238  0.59224310  1
  N  N52  1  0.55355156  0.54351606  0.39342821  1
  N  N53  1  0.44618497  0.43404280  0.13280521  1
  N  N54  1  0.22414053  0.54080292  0.88677100  1
  N  N55  1  0.10804406  0.42470694  0.57855734  1
  N  N56  1  0.88580598  0.53903659  0.33136057  1
  N  N57  1  0.78169057  0.42399974  0.07159447  1
  N  N58  1  0.53968321  0.56713362  0.87246967  1
  N  N59  1  0.43974435  0.43008022  0.63458489  1
  N  N60  1  0.22685437  0.87021275  0.39342836  1
  N  N61  1  0.11737930  0.76284726  0.13280487  1
  N  N62  1  0.88347624  0.87331866  0.83413046  1
  N  N63  1  0.77538166  0.75965788  0.58301813  1
  N  N64  1  0.55941093  0.87607426  0.33391753  1
  N  N65  1  0.44285652  0.75951889  0.13805623  1
  N  N66  1  0.25047130  0.85634442  0.87246947  1
  N  N67  1  0.11341528  0.75640762  0.63458463  1
  N  N68  1  0.88491819  0.87640743  0.33451168  1
  N  N69  1  0.77876747  0.75996964  0.08145629  1
  N  N70  1  0.54542968  0.86209289  0.83788764  1
  N  N71  1  0.43840935  0.75507240  0.65314698  1
