# generated using pymatgen
data_Al17BN18
_symmetry_space_group_name_H-M   'P 1'
_cell_length_a   9.29964128
_cell_length_b   9.29964109
_cell_length_c   9.93925310
_cell_angle_alpha   89.99393743
_cell_angle_beta   89.99394748
_cell_angle_gamma   60.00210600
_symmetry_Int_Tables_number   1
_chemical_formula_structural   Al17BN18
_chemical_formula_sum   'Al34 B2 N36'
_cell_volume   744.43361956
_cell_formula_units_Z   2
loop_
 _symmetry_equiv_pos_site_id
 _symmetry_equiv_pos_as_xyz
  1  'x, y, z'
loop_
 _atom_site_type_symbol
 _atom_site_label
 _atom_site_symmetry_multiplicity
 _atom_site_fract_x
 _atom_site_fract_y
 _atom_site_fract_z
 _atom_site_occupancy
  Al  Al0  1  0.10952668  0.09401006  0.30373775  1
  Al  Al1  1  0.22133361  0.20454972  0.04718795  1
  Al  Al2  1  0.78053800  0.09720610  0.79190651  1
  Al  Al3  1  0.44502594  0.09304538  0.29702215  1
  Al  Al4  1  0.55756060  0.20472053  0.04687272  1
  Al  Al5  1  0.11031008  0.09406977  0.79262021  1
  Al  Al6  1  0.21704609  0.20704384  0.54631582  1
  Al  Al7  1  0.77906211  0.09573042  0.30338167  1
  Al  Al8  1  0.88883139  0.20550064  0.04871341  1
  Al  Al9  1  0.44282549  0.09076323  0.79655761  1
  Al  Al10  1  0.55863182  0.20737752  0.54675596  1
  Al  Al11  1  0.11110415  0.42777286  0.29627341  1
  Al  Al12  1  0.22238381  0.53905282  0.04688197  1
  Al  Al13  1  0.77740098  0.42697835  0.79261997  1
  Al  Al14  1  0.89037440  0.53371506  0.54631571  1
  Al  Al15  1  0.44533269  0.42879536  0.29651250  1
  Al  Al16  1  0.55463666  0.54336447  0.04278681  1
  Al  Al17  1  0.11100639  0.42767438  0.79665251  1
  Al  Al18  1  0.22219427  0.53886419  0.54592863  1
  Al  Al19  1  0.77734080  0.42619580  0.30373793  1
  Al  Al20  1  0.88788074  0.53800292  0.04718794  1
  Al  Al21  1  0.44304264  0.43286829  0.79678164  1
  Al  Al22  1  0.55802979  0.53597668  0.55305933  1
  Al  Al23  1  0.11212616  0.76200207  0.29651261  1
  Al  Al24  1  0.22669594  0.87130486  0.04278677  1
  Al  Al25  1  0.77409445  0.75949375  0.79655767  1
  Al  Al26  1  0.89070726  0.87530193  0.54675595  1
  Al  Al27  1  0.44431265  0.76098239  0.29860178  1
  Al  Al28  1  0.55274369  0.86941268  0.04242434  1
  Al  Al29  1  0.11619877  0.75971176  0.79678152  1
  Al  Al30  1  0.21930671  0.87469987  0.55305947  1
  Al  Al31  1  0.77637552  0.76169557  0.29702214  1
  Al  Al32  1  0.88805143  0.87422976  0.04687280  1
  Al  Al33  1  0.55433245  0.87100102  0.55232062  1
  B  B34  1  0.88892205  0.20559138  0.54353988  1
  B  B35  1  0.44499623  0.76166511  0.79226499  1
  N  N36  1  0.22242259  0.20565466  0.35572872  1
  N  N37  1  0.11052816  0.09295647  0.10958478  1
  N  N38  1  0.88920516  0.20587353  0.85934390  1
  N  N39  1  0.79029318  0.10696280  0.59824892  1
  N  N40  1  0.55464214  0.20624750  0.35586914  1
  N  N41  1  0.44558569  0.09239723  0.10382168  1
  N  N42  1  0.22071929  0.20487029  0.85513511  1
  N  N43  1  0.08596074  0.10722515  0.59950842  1
  N  N44  1  0.88906065  0.20572959  0.37738323  1
  N  N45  1  0.77866423  0.09533324  0.11090513  1
  N  N46  1  0.55734873  0.20455917  0.85394182  1
  N  N47  1  0.44361394  0.09553784  0.60583230  1
  N  N48  1  0.22244616  0.53911540  0.35446784  1
  N  N49  1  0.11094330  0.42761217  0.10532082  1
  N  N50  1  0.88820192  0.53738742  0.85513502  1
  N  N51  1  0.79055550  0.40263000  0.59950818  1
  N  N52  1  0.55419460  0.54074356  0.36137684  1
  N  N53  1  0.44614958  0.42867836  0.10375771  1
  N  N54  1  0.22191348  0.53858246  0.85662494  1
  N  N55  1  0.11134629  0.42801556  0.60591183  1
  N  N56  1  0.88898555  0.53909176  0.35572854  1
  N  N57  1  0.77628786  0.42719707  0.10958495  1
  N  N58  1  0.54539688  0.56279429  0.84710740  1
  N  N59  1  0.44328174  0.42798603  0.60690552  1
  N  N60  1  0.22407408  0.87086408  0.36137695  1
  N  N61  1  0.11200932  0.76281850  0.10375779  1
  N  N62  1  0.88789016  0.87401721  0.85394200  1
  N  N63  1  0.77886894  0.76028271  0.60583239  1
  N  N64  1  0.55473468  0.87140424  0.36008669  1
  N  N65  1  0.44420399  0.76087263  0.10922204  1
  N  N66  1  0.24612546  0.86206553  0.84710735  1
  N  N67  1  0.11131607  0.75995166  0.60690541  1
  N  N68  1  0.88957840  0.87131093  0.35586921  1
  N  N69  1  0.77572815  0.76225487  0.10382170  1
  N  N70  1  0.54296256  0.85963126  0.84842513  1
  N  N71  1  0.44428907  0.76095849  0.62678284  1
