# generated using pymatgen
data_Al17BN18
_symmetry_space_group_name_H-M   'P 1'
_cell_length_a   9.31596822
_cell_length_b   9.32599853
_cell_length_c   10.11438692
_cell_angle_alpha   90.06367036
_cell_angle_beta   90.09044014
_cell_angle_gamma   60.14883347
_symmetry_Int_Tables_number   1
_chemical_formula_structural   Al17BN18
_chemical_formula_sum   'Al34 B2 N36'
_cell_volume   762.15331609
_cell_formula_units_Z   2
loop_
 _symmetry_equiv_pos_site_id
 _symmetry_equiv_pos_as_xyz
  1  'x, y, z'
loop_
 _atom_site_type_symbol
 _atom_site_label
 _atom_site_symmetry_multiplicity
 _atom_site_fract_x
 _atom_site_fract_y
 _atom_site_fract_z
 _atom_site_occupancy
  Al  Al0  1  0.09996319  0.10108687  0.39674351  1
  Al  Al1  1  0.22257474  0.20067765  0.13802143  1
  Al  Al2  1  0.78002957  0.09454980  0.81296275  1
  Al  Al3  1  0.44021984  0.09504375  0.37498986  1
  Al  Al4  1  0.55637987  0.20620605  0.06661638  1
  Al  Al5  1  0.11414303  0.09544515  0.87912686  1
  Al  Al6  1  0.21452482  0.21010108  0.63939570  1
  Al  Al7  1  0.77341821  0.09112737  0.31776688  1
  Al  Al8  1  0.89094076  0.20691325  0.13518808  1
  Al  Al9  1  0.44547109  0.09051153  0.85231886  1
  Al  Al10  1  0.56297772  0.20986265  0.57237259  1
  Al  Al11  1  0.10637158  0.42628105  0.38543311  1
  Al  Al12  1  0.22467653  0.54138280  0.07453336  1
  Al  Al13  1  0.77883526  0.43056371  0.87850194  1
  Al  Al14  1  0.89461854  0.52850664  0.63925179  1
  Al  Al15  1  0.44647886  0.42977428  0.31983398  1
  Al  Al16  1  0.54746052  0.54649436  0.06389922  1
  Al  Al17  1  0.10892357  0.42555248  0.89232075  1
  Al  Al18  1  0.22463202  0.54238573  0.56751366  1
  Al  Al19  1  0.78365118  0.41833593  0.39644305  1
  Al  Al20  1  0.88809874  0.53125006  0.13779881  1
  Al  Al21  1  0.44147405  0.43526849  0.81885008  1
  Al  Al22  1  0.55411440  0.53891101  0.58247290  1
  Al  Al23  1  0.11191956  0.76409347  0.32019062  1
  Al  Al24  1  0.22972255  0.86466798  0.06426829  1
  Al  Al25  1  0.77303842  0.76596492  0.81860802  1
  Al  Al26  1  0.89042787  0.87697409  0.56855150  1
  Al  Al27  1  0.44338330  0.76028378  0.32370937  1
  Al  Al28  1  0.55398485  0.86680862  0.06491010  1
  Al  Al29  1  0.11726896  0.75838570  0.81963847  1
  Al  Al30  1  0.22159148  0.87142735  0.58338820  1
  Al  Al31  1  0.77270885  0.76605601  0.31989333  1
  Al  Al32  1  0.88767187  0.87237400  0.06802379  1
  Al  Al33  1  0.55690657  0.86691567  0.57874758  1
  B  B34  1  0.89341948  0.20850555  0.64720502  1
  B  B35  1  0.44496683  0.75903112  0.81579495  1
  N  N36  1  0.21778118  0.20304112  0.32952995  1
  N  N37  1  0.10697470  0.09668757  0.06975962  1
  N  N38  1  0.89589455  0.21150817  0.80910774  1
  N  N39  1  0.78978279  0.10375425  0.62398435  1
  N  N40  1  0.55621976  0.20939363  0.38166656  1
  N  N41  1  0.44267545  0.09298458  0.09053257  1
  N  N42  1  0.21983932  0.21035346  0.82575159  1
  N  N43  1  0.08298834  0.11074870  0.58962356  1
  N  N44  1  0.88978630  0.20740681  0.32398344  1
  N  N45  1  0.77399698  0.09084283  0.12749303  1
  N  N46  1  0.56076406  0.20992009  0.87504247  1
  N  N47  1  0.44403687  0.09603777  0.60381426  1
  N  N48  1  0.22440090  0.54205170  0.37571523  1
  N  N49  1  0.10859414  0.42386936  0.08281530  1
  N  N50  1  0.89408602  0.53576475  0.82796010  1
  N  N51  1  0.79347330  0.39958685  0.58964254  1
  N  N52  1  0.55113103  0.54270589  0.38989086  1
  N  N53  1  0.44754132  0.42788414  0.13037937  1
  N  N54  1  0.22503993  0.54166318  0.88346392  1
  N  N55  1  0.10901169  0.42593217  0.57509482  1
  N  N56  1  0.88627163  0.53290267  0.32924827  1
  N  N57  1  0.77960428  0.42306681  0.06885225  1
  N  N58  1  0.53942052  0.56701354  0.86970863  1
  N  N59  1  0.44184460  0.42891531  0.63273845  1
  N  N60  1  0.22538649  0.86886116  0.39013866  1
  N  N61  1  0.11078410  0.76428326  0.13037195  1
  N  N62  1  0.89019349  0.87462885  0.87890367  1
  N  N63  1  0.77828429  0.76568041  0.62849738  1
  N  N64  1  0.55653559  0.86602029  0.38688896  1
  N  N65  1  0.44412610  0.76020485  0.13573938  1
  N  N66  1  0.25063896  0.85612511  0.86979485  1
  N  N67  1  0.11015212  0.75966127  0.63268097  1
  N  N68  1  0.88903663  0.87160872  0.37994242  1
  N  N69  1  0.77376821  0.76453084  0.12704359  1
  N  N70  1  0.54614663  0.85517106  0.87121004  1
  N  N71  1  0.44487671  0.76083230  0.65311419  1
