# generated using pymatgen
data_Al17BN18
_symmetry_space_group_name_H-M   'P 1'
_cell_length_a   9.32254641
_cell_length_b   9.32978675
_cell_length_c   10.13021162
_cell_angle_alpha   90.10438505
_cell_angle_beta   90.02676637
_cell_angle_gamma   60.16571154
_symmetry_Int_Tables_number   1
_chemical_formula_structural   Al17BN18
_chemical_formula_sum   'Al34 B2 N36'
_cell_volume   764.32386232
_cell_formula_units_Z   2
loop_
 _symmetry_equiv_pos_site_id
 _symmetry_equiv_pos_as_xyz
  1  'x, y, z'
loop_
 _atom_site_type_symbol
 _atom_site_label
 _atom_site_symmetry_multiplicity
 _atom_site_fract_x
 _atom_site_fract_y
 _atom_site_fract_z
 _atom_site_occupancy
  Al  Al0  1  0.10102428  0.10048691  0.39557608  1
  Al  Al1  1  0.22323594  0.20021763  0.13769710  1
  Al  Al2  1  0.77851392  0.09668495  0.81192320  1
  Al  Al3  1  0.43726046  0.09631436  0.39206962  1
  Al  Al4  1  0.55872907  0.20775572  0.06682541  1
  Al  Al5  1  0.11339508  0.09581136  0.87803650  1
  Al  Al6  1  0.21556243  0.21028969  0.64011996  1
  Al  Al7  1  0.77353012  0.08954734  0.31668534  1
  Al  Al8  1  0.89148178  0.20690818  0.13487252  1
  Al  Al9  1  0.43887383  0.09441882  0.87957283  1
  Al  Al10  1  0.56328112  0.21172311  0.57088588  1
  Al  Al11  1  0.10906916  0.42348442  0.38441131  1
  Al  Al12  1  0.22413341  0.54140155  0.07416849  1
  Al  Al13  1  0.77853152  0.43085232  0.87888943  1
  Al  Al14  1  0.89458723  0.52892728  0.63910166  1
  Al  Al15  1  0.44710857  0.42877846  0.31930940  1
  Al  Al16  1  0.54760429  0.54630350  0.06359492  1
  Al  Al17  1  0.10814826  0.42592661  0.89234796  1
  Al  Al18  1  0.22457136  0.54210637  0.56677792  1
  Al  Al19  1  0.78396264  0.41616391  0.39609005  1
  Al  Al20  1  0.88640969  0.53540199  0.13750961  1
  Al  Al21  1  0.44124740  0.43536825  0.81855180  1
  Al  Al22  1  0.55400303  0.53922341  0.58171209  1
  Al  Al23  1  0.11283942  0.76331877  0.31935855  1
  Al  Al24  1  0.22932955  0.86485461  0.06347661  1
  Al  Al25  1  0.77315489  0.76489198  0.82913779  1
  Al  Al26  1  0.89241335  0.87900465  0.57175433  1
  Al  Al27  1  0.44383062  0.75971928  0.32327599  1
  Al  Al28  1  0.55577414  0.86257223  0.06448965  1
  Al  Al29  1  0.11833529  0.75840922  0.81875924  1
  Al  Al30  1  0.22150591  0.87170533  0.58205280  1
  Al  Al31  1  0.77683092  0.75915796  0.35209680  1
  Al  Al32  1  0.88872664  0.87184738  0.06556833  1
  Al  Al33  1  0.55350682  0.86856721  0.58407404  1
  B  B34  1  0.89339391  0.20996932  0.64660768  1
  B  B35  1  0.44365406  0.76039782  0.81535192  1
  N  N36  1  0.22099621  0.20063179  0.32720811  1
  N  N37  1  0.10718740  0.09681407  0.06884442  1
  N  N38  1  0.89567971  0.21271293  0.80814893  1
  N  N39  1  0.78877976  0.10559026  0.62362852  1
  N  N40  1  0.55705706  0.20878837  0.37963779  1
  N  N41  1  0.43982553  0.09424617  0.07455109  1
  N  N42  1  0.22081779  0.21023011  0.82509092  1
  N  N43  1  0.08315471  0.11127371  0.58883707  1
  N  N44  1  0.89085643  0.20588191  0.32326054  1
  N  N45  1  0.77490222  0.08968180  0.12727308  1
  N  N46  1  0.56061064  0.21129337  0.87518165  1
  N  N47  1  0.43825061  0.10020080  0.58703715  1
  N  N48  1  0.22484176  0.54141597  0.37512694  1
  N  N49  1  0.10872381  0.42319421  0.08309639  1
  N  N50  1  0.89417708  0.53535975  0.82636410  1
  N  N51  1  0.79346485  0.39987235  0.58872406  1
  N  N52  1  0.55173784  0.54192507  0.38919011  1
  N  N53  1  0.44704840  0.42821623  0.13027260  1
  N  N54  1  0.22443174  0.54197111  0.88326534  1
  N  N55  1  0.10892991  0.42561616  0.57412040  1
  N  N56  1  0.88750030  0.53170624  0.32970989  1
  N  N57  1  0.77974492  0.42297184  0.06930936  1
  N  N58  1  0.53914104  0.56733186  0.86975548  1
  N  N59  1  0.44152322  0.42952046  0.63236202  1
  N  N60  1  0.22571666  0.86830035  0.38944098  1
  N  N61  1  0.11092418  0.76435174  0.12999952  1
  N  N62  1  0.89182107  0.87703439  0.87548178  1
  N  N63  1  0.77891575  0.76411090  0.62114213  1
  N  N64  1  0.55426065  0.86538099  0.38860006  1
  N  N65  1  0.44330756  0.76031152  0.13560320  1
  N  N66  1  0.25015319  0.85653310  0.86962034  1
  N  N67  1  0.11177291  0.75908069  0.63242206  1
  N  N68  1  0.89161445  0.87191739  0.38243759  1
  N  N69  1  0.77694323  0.75991808  0.10690325  1
  N  N70  1  0.54254394  0.85687689  0.86786278  1
  N  N71  1  0.44316104  0.76058899  0.65316732  1
