# generated using pymatgen
data_Al17BN18
_symmetry_space_group_name_H-M   'P 1'
_cell_length_a   9.30440386
_cell_length_b   9.30440417
_cell_length_c   10.13996310
_cell_angle_alpha   90.04944135
_cell_angle_beta   90.04943001
_cell_angle_gamma   60.17825549
_symmetry_Int_Tables_number   1
_chemical_formula_structural   Al17BN18
_chemical_formula_sum   'Al34 B2 N36'
_cell_volume   761.58994137
_cell_formula_units_Z   2
loop_
 _symmetry_equiv_pos_site_id
 _symmetry_equiv_pos_as_xyz
  1  'x, y, z'
loop_
 _atom_site_type_symbol
 _atom_site_label
 _atom_site_symmetry_multiplicity
 _atom_site_fract_x
 _atom_site_fract_y
 _atom_site_fract_z
 _atom_site_occupancy
  Al  Al0  1  0.10139283  0.10099630  0.38540109  1
  Al  Al1  1  0.21527732  0.20426277  0.12654889  1
  Al  Al2  1  0.77827915  0.09497003  0.80188931  1
  Al  Al3  1  0.44882433  0.09035469  0.30925748  1
  Al  Al4  1  0.55547284  0.20476271  0.05639436  1
  Al  Al5  1  0.11410930  0.09551115  0.86705131  1
  Al  Al6  1  0.21260435  0.21066213  0.62769518  1
  Al  Al7  1  0.77427547  0.09096639  0.30725126  1
  Al  Al8  1  0.89026489  0.20695487  0.12395289  1
  Al  Al9  1  0.45033436  0.08830978  0.80707930  1
  Al  Al10  1  0.56041996  0.20700092  0.55734044  1
  Al  Al11  1  0.10794368  0.42463300  0.37461454  1
  Al  Al12  1  0.22493743  0.54162562  0.06240953  1
  Al  Al13  1  0.77882304  0.43079936  0.86705081  1
  Al  Al14  1  0.89397136  0.52929729  0.62769513  1
  Al  Al15  1  0.44697268  0.42924486  0.30884418  1
  Al  Al16  1  0.54740457  0.54667184  0.05232005  1
  Al  Al17  1  0.10897982  0.42566924  0.87993324  1
  Al  Al18  1  0.22535447  0.54204460  0.55604873  1
  Al  Al19  1  0.78430590  0.41808301  0.38540130  1
  Al  Al20  1  0.88757427  0.53196673  0.12654885  1
  Al  Al21  1  0.44178906  0.43380536  0.80772367  1
  Al  Al22  1  0.55430174  0.53878427  0.57157839  1
  Al  Al23  1  0.11255436  0.76366277  0.30884424  1
  Al  Al24  1  0.22998260  0.86409207  0.05232009  1
  Al  Al25  1  0.77161931  0.76702622  0.80707972  1
  Al  Al26  1  0.89030929  0.87711233  0.55734016  1
  Al  Al27  1  0.44378148  0.76047207  0.31247473  1
  Al  Al28  1  0.55299581  0.86968566  0.05403568  1
  Al  Al29  1  0.11711486  0.75847858  0.80772341  1
  Al  Al30  1  0.22209422  0.87099112  0.57157811  1
  Al  Al31  1  0.77366523  0.76551309  0.30925756  1
  Al  Al32  1  0.88807294  0.87216223  0.05639470  1
  Al  Al33  1  0.55496984  0.87166036  0.56258106  1
  B  B34  1  0.89202123  0.20871192  0.63560248  1
  B  B35  1  0.44375220  0.76044199  0.80488017  1
  N  N36  1  0.21591899  0.20379941  0.31773496  1
  N  N37  1  0.10644205  0.09643226  0.05710883  1
  N  N38  1  0.89488575  0.21157582  0.79739292  1
  N  N39  1  0.78786451  0.10455634  0.61264907  1
  N  N40  1  0.55452860  0.20668184  0.36908092  1
  N  N41  1  0.44837723  0.09024094  0.11602295  1
  N  N42  1  0.21988023  0.21023955  0.81595408  1
  N  N43  1  0.08282361  0.11030269  0.57807033  1
  N  N44  1  0.89044061  0.20713102  0.31248085  1
  N  N45  1  0.77388434  0.09057409  0.11661898  1
  N  N46  1  0.55791349  0.20699170  0.86751777  1
  N  N47  1  0.44981690  0.09333034  0.61640447  1
  N  N48  1  0.22503951  0.54172957  0.36478266  1
  N  N49  1  0.10800017  0.42468875  0.06983262  1
  N  N50  1  0.89354988  0.53657194  0.81595408  1
  N  N51  1  0.79361281  0.39951473  0.57807068  1
  N  N52  1  0.55160774  0.54265092  0.37893973  1
  N  N53  1  0.44748986  0.42761312  0.11917373  1
  N  N54  1  0.22525010  0.54193970  0.87197541  1
  N  N55  1  0.10915541  0.42584605  0.56376625  1
  N  N56  1  0.88711017  0.53260804  0.31773491  1
  N  N57  1  0.77974431  0.42313143  0.05710833  1
  N  N58  1  0.53930099  0.56731699  0.85829008  1
  N  N59  1  0.44279662  0.42692974  0.62139886  1
  N  N60  1  0.22596033  0.86829811  0.37893951  1
  N  N61  1  0.11092343  0.76417828  0.11917378  1
  N  N62  1  0.89030149  0.87460446  0.86751807  1
  N  N63  1  0.77663921  0.76650928  0.61640487  1
  N  N64  1  0.55450083  0.87119050  0.37356199  1
  N  N65  1  0.44407561  0.76076499  0.12429964  1
  N  N66  1  0.25062731  0.85598960  0.85829011  1
  N  N67  1  0.11023855  0.75948715  0.62139856  1
  N  N68  1  0.88999101  0.87121924  0.36908067  1
  N  N69  1  0.77355124  0.76506657  0.11602296  1
  N  N70  1  0.54387122  0.86056175  0.86307020  1
  N  N71  1  0.44548450  0.76217468  0.64157012  1
