# generated using pymatgen
data_Al17BN18
_symmetry_space_group_name_H-M   'P 1'
_cell_length_a   9.32421607
_cell_length_b   9.33037637
_cell_length_c   10.12950509
_cell_angle_alpha   90.10386690
_cell_angle_beta   90.02738746
_cell_angle_gamma   60.16431061
_symmetry_Int_Tables_number   1
_chemical_formula_structural   Al17BN18
_chemical_formula_sum   'Al34 B2 N36'
_cell_volume   764.44504309
_cell_formula_units_Z   2
loop_
 _symmetry_equiv_pos_site_id
 _symmetry_equiv_pos_as_xyz
  1  'x, y, z'
loop_
 _atom_site_type_symbol
 _atom_site_label
 _atom_site_symmetry_multiplicity
 _atom_site_fract_x
 _atom_site_fract_y
 _atom_site_fract_z
 _atom_site_occupancy
  Al  Al0  1  0.10101189  0.10046542  0.39553911  1
  Al  Al1  1  0.22313384  0.20029441  0.13766483  1
  Al  Al2  1  0.77848006  0.09679185  0.81181623  1
  Al  Al3  1  0.43719592  0.09638501  0.39200544  1
  Al  Al4  1  0.55871904  0.20773610  0.06681360  1
  Al  Al5  1  0.11337413  0.09579961  0.87802090  1
  Al  Al6  1  0.21549371  0.21034051  0.64009255  1
  Al  Al7  1  0.77347498  0.08948904  0.31659017  1
  Al  Al8  1  0.89147182  0.20696013  0.13484894  1
  Al  Al9  1  0.43877432  0.09452755  0.87944522  1
  Al  Al10  1  0.56325827  0.21175438  0.57085734  1
  Al  Al11  1  0.10913153  0.42344758  0.38430487  1
  Al  Al12  1  0.22410208  0.54137293  0.07417898  1
  Al  Al13  1  0.77853431  0.43078074  0.87889343  1
  Al  Al14  1  0.89453185  0.52911309  0.63912952  1
  Al  Al15  1  0.44711193  0.42878833  0.31929558  1
  Al  Al16  1  0.54767995  0.54625618  0.06358689  1
  Al  Al17  1  0.10817266  0.42588946  0.89238760  1
  Al  Al18  1  0.22459386  0.54204337  0.56675683  1
  Al  Al19  1  0.78394394  0.41612110  0.39600983  1
  Al  Al20  1  0.88600000  0.53624466  0.13742212  1
  Al  Al21  1  0.44124541  0.43538414  0.81855793  1
  Al  Al22  1  0.55404299  0.53917605  0.58169384  1
  Al  Al23  1  0.11285285  0.76331700  0.31927460  1
  Al  Al24  1  0.22932214  0.86483680  0.06344740  1
  Al  Al25  1  0.77352636  0.76407822  0.83427111  1
  Al  Al26  1  0.89282154  0.87931252  0.57196716  1
  Al  Al27  1  0.44381593  0.75973946  0.32318877  1
  Al  Al28  1  0.55537269  0.86278122  0.06451440  1
  Al  Al29  1  0.11845680  0.75840672  0.81866589  1
  Al  Al30  1  0.22154566  0.87167200  0.58195838  1
  Al  Al31  1  0.77757744  0.75790949  0.36023194  1
  Al  Al32  1  0.88893845  0.87198076  0.06541545  1
  Al  Al33  1  0.55298434  0.86884440  0.58460133  1
  B  B34  1  0.89339237  0.21006954  0.64657690  1
  B  B35  1  0.44350922  0.76052214  0.81523705  1
  N  N36  1  0.22091455  0.20068295  0.32719852  1
  N  N37  1  0.10717977  0.09678487  0.06883694  1
  N  N38  1  0.89567768  0.21276970  0.80810838  1
  N  N39  1  0.78870154  0.10572055  0.62358141  1
  N  N40  1  0.55704084  0.20879344  0.37962947  1
  N  N41  1  0.43972287  0.09432534  0.07452499  1
  N  N42  1  0.22072116  0.21029006  0.82507443  1
  N  N43  1  0.08316123  0.11124586  0.58881569  1
  N  N44  1  0.89084335  0.20590010  0.32323510  1
  N  N45  1  0.77488498  0.08967781  0.12725173  1
  N  N46  1  0.56061615  0.21127818  0.87516225  1
  N  N47  1  0.43821740  0.10029621  0.58710458  1
  N  N48  1  0.22483850  0.54141573  0.37509671  1
  N  N49  1  0.10865288  0.42321154  0.08316198  1
  N  N50  1  0.89423059  0.53527222  0.82599812  1
  N  N51  1  0.79351946  0.39986307  0.58866939  1
  N  N52  1  0.55176442  0.54194033  0.38916315  1
  N  N53  1  0.44704464  0.42821636  0.13025450  1
  N  N54  1  0.22440615  0.54196847  0.88324106  1
  N  N55  1  0.10893344  0.42557486  0.57404820  1
  N  N56  1  0.88725709  0.53224221  0.32953947  1
  N  N57  1  0.77979616  0.42295552  0.06934317  1
  N  N58  1  0.53916797  0.56734145  0.86973333  1
  N  N59  1  0.44153103  0.42951881  0.63234803  1
  N  N60  1  0.22571134  0.86828966  0.38937913  1
  N  N61  1  0.11096894  0.76433479  0.12997190  1
  N  N62  1  0.89222159  0.87738308  0.87499388  1
  N  N63  1  0.77940721  0.76313068  0.61722194  1
  N  N64  1  0.55364997  0.86576021  0.38836046  1
  N  N65  1  0.44326601  0.76027870  0.13555844  1
  N  N66  1  0.25014405  0.85652958  0.86959497  1
  N  N67  1  0.11196091  0.75899359  0.63238275  1
  N  N68  1  0.89188218  0.87213732  0.38233062  1
  N  N69  1  0.77749662  0.75887417  0.10083818  1
  N  N70  1  0.54190674  0.85724222  0.86727936  1
  N  N71  1  0.44304401  0.76049192  0.65311544  1
