# generated using pymatgen
data_Al17BN18
_symmetry_space_group_name_H-M   'P 1'
_cell_length_a   9.32257893
_cell_length_b   9.32981539
_cell_length_c   10.13023046
_cell_angle_alpha   90.10224559
_cell_angle_beta   90.02744165
_cell_angle_gamma   60.16383970
_symmetry_Int_Tables_number   1
_chemical_formula_structural   Al17BN18
_chemical_formula_sum   'Al34 B2 N36'
_cell_volume   764.31603968
_cell_formula_units_Z   2
loop_
 _symmetry_equiv_pos_site_id
 _symmetry_equiv_pos_as_xyz
  1  'x, y, z'
loop_
 _atom_site_type_symbol
 _atom_site_label
 _atom_site_symmetry_multiplicity
 _atom_site_fract_x
 _atom_site_fract_y
 _atom_site_fract_z
 _atom_site_occupancy
  Al  Al0  1  0.10395240  0.10179413  0.39281694  1
  Al  Al1  1  0.22044007  0.20332857  0.13693341  1
  Al  Al2  1  0.77977444  0.09808350  0.87221385  1
  Al  Al3  1  0.44455411  0.09480193  0.39072798  1
  Al  Al4  1  0.55644576  0.20749495  0.10417042  1
  Al  Al5  1  0.11177517  0.09494494  0.87424068  1
  Al  Al6  1  0.21494716  0.20823608  0.63753319  1
  Al  Al7  1  0.77750754  0.10407700  0.39180528  1
  Al  Al8  1  0.88944919  0.20692766  0.13301956  1
  Al  Al9  1  0.44086794  0.08764199  0.88453946  1
  Al  Al10  1  0.56012509  0.20175836  0.62714154  1
  Al  Al11  1  0.10914959  0.42524596  0.38212431  1
  Al  Al12  1  0.22421007  0.54316487  0.07188257  1
  Al  Al13  1  0.77928055  0.42742544  0.87458365  1
  Al  Al14  1  0.89203469  0.53127796  0.63773913  1
  Al  Al15  1  0.44687305  0.43124534  0.31878025  1
  Al  Al16  1  0.54931769  0.55048632  0.06020115  1
  Al  Al17  1  0.10871268  0.42454221  0.88951418  1
  Al  Al18  1  0.22513182  0.54072070  0.56394434  1
  Al  Al19  1  0.78567902  0.42034510  0.39269755  1
  Al  Al20  1  0.88617277  0.53786960  0.13698205  1
  Al  Al21  1  0.43869402  0.43772385  0.81718732  1
  Al  Al22  1  0.55475095  0.53579621  0.57739910  1
  Al  Al23  1  0.11004491  0.76643245  0.31859212  1
  Al  Al24  1  0.23225583  0.86616010  0.06071420  1
  Al  Al25  1  0.77000092  0.75492482  0.88540752  1
  Al  Al26  1  0.89440682  0.87222535  0.57671631  1
  Al  Al27  1  0.44179756  0.75974358  0.32142251  1
  Al  Al28  1  0.55974897  0.87710098  0.13960876  1
  Al  Al29  1  0.11771648  0.75636125  0.81617135  1
  Al  Al30  1  0.21988492  0.87083491  0.57825662  1
  Al  Al31  1  0.77455226  0.75889270  0.38946595  1
  Al  Al32  1  0.89601651  0.87033564  0.06422358  1
  Al  Al33  1  0.55476738  0.86996065  0.64436968  1
  B  B34  1  0.88962858  0.20625093  0.64094111  1
  B  B35  1  0.43988765  0.75667763  0.80968455  1
  N  N36  1  0.22235490  0.20229686  0.32629274  1
  N  N37  1  0.10756373  0.09834859  0.06685258  1
  N  N38  1  0.89011884  0.20606154  0.80312523  1
  N  N39  1  0.79074040  0.10976873  0.58843258  1
  N  N40  1  0.55633409  0.20673334  0.34940921  1
  N  N41  1  0.44166407  0.09473333  0.07385523  1
  N  N42  1  0.22150603  0.20756871  0.82387000  1
  N  N43  1  0.08313012  0.11011397  0.58667314  1
  N  N44  1  0.88997093  0.20633799  0.32069100  1
  N  N45  1  0.77902108  0.10126953  0.06769189  1
  N  N46  1  0.55436074  0.20254085  0.83515989  1
  N  N47  1  0.44145952  0.08961476  0.58081368  1
  N  N48  1  0.22455757  0.54345265  0.37319562  1
  N  N49  1  0.10843885  0.42523471  0.08116477  1
  N  N50  1  0.89175693  0.53712844  0.82392902  1
  N  N51  1  0.79414290  0.39931621  0.58653599  1
  N  N52  1  0.55353614  0.54367487  0.38698130  1
  N  N53  1  0.44578281  0.43494238  0.12658263  1
  N  N54  1  0.22435284  0.54103125  0.88217327  1
  N  N55  1  0.10884975  0.42467787  0.57302670  1
  N  N56  1  0.88623162  0.53843302  0.32601842  1
  N  N57  1  0.78154456  0.42472529  0.06710393  1
  N  N58  1  0.53981582  0.56677559  0.86756865  1
  N  N59  1  0.43910641  0.43129110  0.62992791  1
  N  N60  1  0.22609139  0.86983374  0.38744842  1
  N  N61  1  0.11228494  0.76601719  0.12908284  1
  N  N62  1  0.89502819  0.86644839  0.86925608  1
  N  N63  1  0.77266952  0.75535530  0.58110880  1
  N  N64  1  0.55837472  0.87696909  0.32902016  1
  N  N65  1  0.44242579  0.76076616  0.13303391  1
  N  N66  1  0.25012453  0.85537549  0.86745377  1
  N  N67  1  0.11246464  0.75641590  0.63120140  1
  N  N68  1  0.89345474  0.87240148  0.38173951  1
  N  N69  1  0.77622133  0.75786338  0.07665465  1
  N  N70  1  0.54449998  0.86105763  0.83266346  1
  N  N71  1  0.43760352  0.75393425  0.64814311  1
