# generated using pymatgen
data_Al17BN18
_symmetry_space_group_name_H-M   'P 1'
_cell_length_a   9.32683182
_cell_length_b   9.32809602
_cell_length_c   10.02771622
_cell_angle_alpha   89.84521469
_cell_angle_beta   89.74541708
_cell_angle_gamma   60.08858774
_symmetry_Int_Tables_number   1
_chemical_formula_structural   Al17BN18
_chemical_formula_sum   'Al34 B2 N36'
_cell_volume   756.21006614
_cell_formula_units_Z   2
loop_
 _symmetry_equiv_pos_site_id
 _symmetry_equiv_pos_as_xyz
  1  'x, y, z'
loop_
 _atom_site_type_symbol
 _atom_site_label
 _atom_site_symmetry_multiplicity
 _atom_site_fract_x
 _atom_site_fract_y
 _atom_site_fract_z
 _atom_site_occupancy
  Al  Al0  1  0.10170753  0.10496301  0.40116246  1
  Al  Al1  1  0.22173275  0.20416664  0.14832197  1
  Al  Al2  1  0.77842406  0.09622270  0.89378326  1
  Al  Al3  1  0.44528818  0.09401789  0.40262113  1
  Al  Al4  1  0.55705564  0.20398536  0.14821413  1
  Al  Al5  1  0.11261880  0.09575018  0.88654982  1
  Al  Al6  1  0.21695986  0.20786463  0.64912652  1
  Al  Al7  1  0.78039541  0.09695605  0.40215396  1
  Al  Al8  1  0.89027004  0.20410239  0.14557506  1
  Al  Al9  1  0.44203148  0.09021493  0.89863800  1
  Al  Al10  1  0.55973291  0.20627300  0.65083581  1
  Al  Al11  1  0.11116365  0.42815899  0.39836354  1
  Al  Al12  1  0.22174868  0.53969383  0.14825273  1
  Al  Al13  1  0.77385050  0.43305020  0.89016368  1
  Al  Al14  1  0.89075460  0.53392641  0.64948797  1
  Al  Al15  1  0.44269909  0.42366333  0.39736075  1
  Al  Al16  1  0.55732570  0.53865643  0.12692279  1
  Al  Al17  1  0.11093249  0.42724282  0.90030747  1
  Al  Al18  1  0.22130360  0.53744657  0.64985742  1
  Al  Al19  1  0.78662106  0.41945091  0.40073282  1
  Al  Al20  1  0.88847809  0.53855893  0.14865084  1
  Al  Al21  1  0.44191900  0.43455719  0.89738599  1
  Al  Al22  1  0.55794958  0.53691806  0.59931229  1
  Al  Al23  1  0.10636574  0.75935702  0.39810842  1
  Al  Al24  1  0.23266069  0.86857244  0.08566661  1
  Al  Al25  1  0.77304469  0.75855732  0.89903412  1
  Al  Al26  1  0.88892217  0.87672550  0.65066115  1
  Al  Al27  1  0.44185899  0.76298127  0.35455505  1
  Al  Al28  1  0.55861097  0.87513565  0.15403324  1
  Al  Al29  1  0.11449704  0.75617950  0.89435214  1
  Al  Al30  1  0.22022824  0.87456689  0.58487813  1
  Al  Al31  1  0.77715960  0.76209442  0.40260150  1
  Al  Al32  1  0.88902688  0.87353719  0.14795767  1
  Al  Al33  1  0.55270022  0.86925932  0.64915282  1
  B  B34  1  0.88939767  0.20651397  0.65253302  1
  B  B35  1  0.44578468  0.75770981  0.85909553  1
  N  N36  1  0.22237094  0.20528036  0.34009347  1
  N  N37  1  0.10780427  0.09949430  0.08064538  1
  N  N38  1  0.88739416  0.20694959  0.81791687  1
  N  N39  1  0.79006293  0.10704698  0.59589140  1
  N  N40  1  0.55784315  0.20304888  0.33978267  1
  N  N41  1  0.44441558  0.09362812  0.08834267  1
  N  N42  1  0.22285050  0.20769490  0.83736565  1
  N  N43  1  0.08276730  0.11217183  0.59943929  1
  N  N44  1  0.88891150  0.20547008  0.33322424  1
  N  N45  1  0.77864293  0.09513787  0.08485970  1
  N  N46  1  0.55461617  0.20628785  0.84038346  1
  N  N47  1  0.44451587  0.09423689  0.59349135  1
  N  N48  1  0.22189413  0.53916415  0.33742681  1
  N  N49  1  0.11132735  0.42737593  0.09016919  1
  N  N50  1  0.89080895  0.53878519  0.83827756  1
  N  N51  1  0.79363788  0.40101241  0.59692492  1
  N  N52  1  0.56186803  0.53114753  0.36568725  1
  N  N53  1  0.44384164  0.42599425  0.08920686  1
  N  N54  1  0.22222989  0.53667422  0.83856040  1
  N  N55  1  0.11092382  0.42765195  0.58763068  1
  N  N56  1  0.88855284  0.53916667  0.34031791  1
  N  N57  1  0.78191625  0.42457275  0.08354250  1
  N  N58  1  0.53956763  0.57162568  0.86548523  1
  N  N59  1  0.44090776  0.42440006  0.58939482  1
  N  N60  1  0.21509880  0.87884641  0.38511083  1
  N  N61  1  0.10933436  0.75985478  0.08668398  1
  N  N62  1  0.88756282  0.87224065  0.83995370  1
  N  N63  1  0.77742143  0.76119895  0.59340900  1
  N  N64  1  0.56081867  0.87758197  0.34338495  1
  N  N65  1  0.44184804  0.76196563  0.15111098  1
  N  N66  1  0.25705648  0.85493456  0.87992389  1
  N  N67  1  0.10712384  0.75658305  0.59221283  1
  N  N68  1  0.88669854  0.87440997  0.33967192  1
  N  N69  1  0.77752317  0.76101670  0.08871413  1
  N  N70  1  0.54137879  0.85770422  0.84460210  1
  N  N71  1  0.44617658  0.76135788  0.59435718  1
