# generated using pymatgen
data_Al17BN18
_symmetry_space_group_name_H-M   'P 1'
_cell_length_a   9.30940122
_cell_length_b   9.31419082
_cell_length_c   9.99061966
_cell_angle_alpha   90.04429732
_cell_angle_beta   89.79517804
_cell_angle_gamma   60.01912184
_symmetry_Int_Tables_number   1
_chemical_formula_structural   Al17BN18
_chemical_formula_sum   'Al34 B2 N36'
_cell_volume   750.35868774
_cell_formula_units_Z   2
loop_
 _symmetry_equiv_pos_site_id
 _symmetry_equiv_pos_as_xyz
  1  'x, y, z'
loop_
 _atom_site_type_symbol
 _atom_site_label
 _atom_site_symmetry_multiplicity
 _atom_site_fract_x
 _atom_site_fract_y
 _atom_site_fract_z
 _atom_site_occupancy
  Al  Al0  1  0.10298685  0.10217295  0.40093606  1
  Al  Al1  1  0.22202838  0.20403542  0.14745447  1
  Al  Al2  1  0.77837808  0.09601257  0.89364622  1
  Al  Al3  1  0.44495308  0.09495871  0.40002767  1
  Al  Al4  1  0.55663528  0.20508541  0.14770840  1
  Al  Al5  1  0.11484625  0.09102818  0.88756762  1
  Al  Al6  1  0.21665265  0.20833359  0.64885834  1
  Al  Al7  1  0.78067297  0.09727004  0.40152029  1
  Al  Al8  1  0.88894827  0.20593328  0.14523889  1
  Al  Al9  1  0.44158689  0.09026260  0.89815058  1
  Al  Al10  1  0.55952559  0.20673557  0.64966068  1
  Al  Al11  1  0.11078745  0.42818254  0.39735650  1
  Al  Al12  1  0.22307624  0.53893133  0.14799676  1
  Al  Al13  1  0.77360124  0.43260072  0.89218927  1
  Al  Al14  1  0.89074787  0.53375714  0.64910393  1
  Al  Al15  1  0.44519749  0.42679988  0.39989605  1
  Al  Al16  1  0.55796177  0.53687561  0.15076076  1
  Al  Al17  1  0.11035362  0.42762644  0.90030827  1
  Al  Al18  1  0.22187281  0.53734761  0.64945814  1
  Al  Al19  1  0.78047070  0.42193557  0.40419035  1
  Al  Al20  1  0.88658296  0.53874480  0.14846683  1
  Al  Al21  1  0.44203462  0.43415076  0.89882284  1
  Al  Al22  1  0.55660475  0.53813300  0.64534075  1
  Al  Al23  1  0.10872852  0.76020882  0.39762796  1
  Al  Al24  1  0.22550656  0.87192700  0.13029830  1
  Al  Al25  1  0.77280998  0.75876789  0.89862635  1
  Al  Al26  1  0.88939042  0.87677187  0.65012282  1
  Al  Al27  1  0.44766111  0.75981977  0.38278733  1
  Al  Al28  1  0.55648121  0.87243334  0.15124239  1
  Al  Al29  1  0.11699173  0.75840056  0.89507383  1
  Al  Al30  1  0.22106922  0.87426884  0.61450302  1
  Al  Al31  1  0.77819669  0.76201799  0.40059803  1
  Al  Al32  1  0.88839643  0.87365843  0.14697340  1
  Al  Al33  1  0.55339082  0.86963404  0.64567991  1
  B  B34  1  0.88775009  0.20672397  0.65281819  1
  B  B35  1  0.44123467  0.76205631  0.85995708  1
  N  N36  1  0.22196478  0.20498420  0.33960700  1
  N  N37  1  0.10900562  0.09639974  0.08073641  1
  N  N38  1  0.88770151  0.20647774  0.81797999  1
  N  N39  1  0.79044429  0.10692555  0.59585327  1
  N  N40  1  0.55756356  0.20460793  0.34052036  1
  N  N41  1  0.44510251  0.09376755  0.08812455  1
  N  N42  1  0.22186064  0.20726005  0.83758389  1
  N  N43  1  0.08394678  0.11070289  0.59701383  1
  N  N44  1  0.88827368  0.20688835  0.33402703  1
  N  N45  1  0.77869752  0.09526083  0.08481943  1
  N  N46  1  0.55428631  0.20609186  0.83964786  1
  N  N47  1  0.44417225  0.09452936  0.59185739  1
  N  N48  1  0.22313877  0.53841485  0.33837277  1
  N  N49  1  0.11068295  0.42764957  0.09059126  1
  N  N50  1  0.88980820  0.53864771  0.83833759  1
  N  N51  1  0.78938894  0.40305128  0.59876383  1
  N  N52  1  0.56170087  0.53072414  0.34286358  1
  N  N53  1  0.44562993  0.42745090  0.08840912  1
  N  N54  1  0.22195805  0.53705858  0.83900679  1
  N  N55  1  0.11117410  0.42778848  0.58749665  1
  N  N56  1  0.88691847  0.53844999  0.34129291  1
  N  N57  1  0.77816412  0.42604094  0.08287326  1
  N  N58  1  0.53988619  0.56847585  0.83954595  1
  N  N59  1  0.44398629  0.42768336  0.59088231  1
  N  N60  1  0.21698472  0.87755048  0.35898706  1
  N  N61  1  0.11082607  0.76068347  0.08677576  1
  N  N62  1  0.88831838  0.87158292  0.83967199  1
  N  N63  1  0.77831824  0.76122821  0.59229310  1
  N  N64  1  0.55972033  0.87580667  0.34170842  1
  N  N65  1  0.44795446  0.75893479  0.11849809  1
  N  N66  1  0.25241388  0.85634655  0.84726660  1
  N  N67  1  0.10914735  0.75773082  0.58984058  1
  N  N68  1  0.88758221  0.87435363  0.33938963  1
  N  N69  1  0.77802091  0.76123133  0.08838912  1
  N  N70  1  0.54001929  0.85727662  0.84066841  1
  N  N71  1  0.45005783  0.75708426  0.57894168  1
