# generated using pymatgen
data_Al17BN18
_symmetry_space_group_name_H-M   'P 1'
_cell_length_a   9.31338935
_cell_length_b   9.31975509
_cell_length_c   10.01604621
_cell_angle_alpha   90.05502495
_cell_angle_beta   89.72253101
_cell_angle_gamma   60.02464488
_symmetry_Int_Tables_number   1
_chemical_formula_structural   Al17BN18
_chemical_formula_sum   'Al34 B2 N36'
_cell_volume   753.07565832
_cell_formula_units_Z   2
loop_
 _symmetry_equiv_pos_site_id
 _symmetry_equiv_pos_as_xyz
  1  'x, y, z'
loop_
 _atom_site_type_symbol
 _atom_site_label
 _atom_site_symmetry_multiplicity
 _atom_site_fract_x
 _atom_site_fract_y
 _atom_site_fract_z
 _atom_site_occupancy
  Al  Al0  1  0.10143567  0.10525246  0.40025485  1
  Al  Al1  1  0.22180214  0.20386014  0.14765158  1
  Al  Al2  1  0.77788118  0.09625375  0.89404244  1
  Al  Al3  1  0.44498956  0.09524806  0.40075496  1
  Al  Al4  1  0.55642104  0.20519256  0.14796728  1
  Al  Al5  1  0.11219113  0.09513821  0.88590838  1
  Al  Al6  1  0.21650743  0.20834648  0.64878329  1
  Al  Al7  1  0.78060477  0.09732375  0.40164582  1
  Al  Al8  1  0.88927749  0.20551661  0.14539972  1
  Al  Al9  1  0.44151983  0.09035555  0.89822033  1
  Al  Al10  1  0.55963441  0.20661498  0.64983647  1
  Al  Al11  1  0.11070093  0.42839325  0.39749542  1
  Al  Al12  1  0.22289300  0.53940135  0.14826563  1
  Al  Al13  1  0.77340467  0.43283881  0.89255211  1
  Al  Al14  1  0.89076652  0.53383957  0.64920306  1
  Al  Al15  1  0.44529874  0.42654772  0.40068702  1
  Al  Al16  1  0.55861270  0.53526227  0.15283091  1
  Al  Al17  1  0.11034674  0.42737498  0.90069093  1
  Al  Al18  1  0.22193050  0.53699813  0.64948918  1
  Al  Al19  1  0.78039080  0.42206207  0.40495317  1
  Al  Al20  1  0.88654152  0.53881198  0.14870946  1
  Al  Al21  1  0.44196537  0.43393919  0.89897679  1
  Al  Al22  1  0.55651348  0.53846863  0.64507733  1
  Al  Al23  1  0.10750442  0.75927768  0.39746105  1
  Al  Al24  1  0.23312381  0.86792947  0.08948889  1
  Al  Al25  1  0.77252219  0.75862783  0.89894227  1
  Al  Al26  1  0.88937066  0.87693698  0.65034672  1
  Al  Al27  1  0.44740805  0.76006260  0.37546340  1
  Al  Al28  1  0.55722032  0.87344287  0.15333310  1
  Al  Al29  1  0.11409085  0.75606900  0.89374763  1
  Al  Al30  1  0.22044482  0.87483841  0.58610782  1
  Al  Al31  1  0.77834647  0.76206086  0.40145614  1
  Al  Al32  1  0.88889643  0.87376038  0.14725652  1
  Al  Al33  1  0.55332071  0.86919755  0.64524334  1
  B  B34  1  0.88822508  0.20699892  0.65275959  1
  B  B35  1  0.44284888  0.76101766  0.85844827  1
  N  N36  1  0.22216680  0.20530557  0.33927129  1
  N  N37  1  0.10772712  0.09884777  0.07972417  1
  N  N38  1  0.88657143  0.20708499  0.81809910  1
  N  N39  1  0.79044383  0.10684451  0.59571190  1
  N  N40  1  0.55743144  0.20472536  0.34043972  1
  N  N41  1  0.44498298  0.09353445  0.08793604  1
  N  N42  1  0.22228408  0.20747880  0.83709347  1
  N  N43  1  0.08260245  0.11267915  0.59887786  1
  N  N44  1  0.88789672  0.20724578  0.33377254  1
  N  N45  1  0.77857691  0.09529587  0.08489719  1
  N  N46  1  0.55422547  0.20604441  0.83972428  1
  N  N47  1  0.44410490  0.09457977  0.59218801  1
  N  N48  1  0.22338520  0.53836414  0.33821039  1
  N  N49  1  0.11081170  0.42761972  0.09065246  1
  N  N50  1  0.88992657  0.53853860  0.83848349  1
  N  N51  1  0.78946859  0.40308127  0.59910991  1
  N  N52  1  0.56263193  0.52878637  0.34406274  1
  N  N53  1  0.44552566  0.42772841  0.08827345  1
  N  N54  1  0.22240087  0.53586879  0.83863034  1
  N  N55  1  0.11125243  0.42760402  0.58723834  1
  N  N56  1  0.88689685  0.53854297  0.34132504  1
  N  N57  1  0.77780059  0.42628834  0.08299815  1
  N  N58  1  0.53975446  0.56871010  0.84011373  1
  N  N59  1  0.44410307  0.42735748  0.59127699  1
  N  N60  1  0.21642381  0.87854777  0.38283727  1
  N  N61  1  0.10987244  0.75978326  0.08595890  1
  N  N62  1  0.88700565  0.87209422  0.83961956  1
  N  N63  1  0.77860617  0.76121844  0.59266421  1
  N  N64  1  0.56084602  0.87694391  0.34295895  1
  N  N65  1  0.44685367  0.75954184  0.13447407  1
  N  N66  1  0.25540589  0.85456481  0.87191211  1
  N  N67  1  0.10837129  0.75640569  0.59207289  1
  N  N68  1  0.88757821  0.87438927  0.33915862  1
  N  N69  1  0.77778856  0.76136528  0.08842546  1
  N  N70  1  0.53982382  0.85692074  0.84114165  1
  N  N71  1  0.45243340  0.75555140  0.58082063  1
