# generated using pymatgen
data_Al17BN18
_symmetry_space_group_name_H-M   'P 1'
_cell_length_a   9.33402555
_cell_length_b   9.32834619
_cell_length_c   10.06012076
_cell_angle_alpha   90.17431542
_cell_angle_beta   90.11830184
_cell_angle_gamma   60.27771821
_symmetry_Int_Tables_number   1
_chemical_formula_structural   Al17BN18
_chemical_formula_sum   'Al34 B2 N36'
_cell_volume   760.70091428
_cell_formula_units_Z   2
loop_
 _symmetry_equiv_pos_site_id
 _symmetry_equiv_pos_as_xyz
  1  'x, y, z'
loop_
 _atom_site_type_symbol
 _atom_site_label
 _atom_site_symmetry_multiplicity
 _atom_site_fract_x
 _atom_site_fract_y
 _atom_site_fract_z
 _atom_site_occupancy
  Al  Al0  1  0.10348649  0.10372296  0.40544385  1
  Al  Al1  1  0.22089857  0.20318555  0.14919224  1
  Al  Al2  1  0.77837355  0.09527811  0.89614674  1
  Al  Al3  1  0.44466691  0.09353391  0.40146316  1
  Al  Al4  1  0.55768841  0.20583779  0.14804866  1
  Al  Al5  1  0.11162802  0.09641721  0.88741704  1
  Al  Al6  1  0.21643344  0.20691139  0.65057922  1
  Al  Al7  1  0.78110680  0.09717281  0.40422431  1
  Al  Al8  1  0.88924718  0.20654665  0.14575466  1
  Al  Al9  1  0.44259833  0.08913773  0.90120777  1
  Al  Al10  1  0.56196808  0.20009310  0.65051711  1
  Al  Al11  1  0.11101613  0.42837574  0.39882508  1
  Al  Al12  1  0.22523166  0.53487020  0.14568043  1
  Al  Al13  1  0.78082292  0.42788492  0.88629553  1
  Al  Al14  1  0.89105428  0.53320471  0.65084531  1
  Al  Al15  1  0.44662736  0.42795854  0.37623182  1
  Al  Al16  1  0.54991936  0.54884797  0.07253186  1
  Al  Al17  1  0.11060524  0.42741692  0.90329446  1
  Al  Al18  1  0.21943492  0.53366796  0.64824964  1
  Al  Al19  1  0.78735714  0.42026917  0.40614796  1
  Al  Al20  1  0.88680876  0.53755231  0.14927901  1
  Al  Al21  1  0.44478823  0.43092131  0.85895456  1
  Al  Al22  1  0.55653259  0.53692780  0.59557152  1
  Al  Al23  1  0.11412918  0.76831268  0.33422263  1
  Al  Al24  1  0.23178559  0.86505485  0.07312826  1
  Al  Al25  1  0.77265998  0.75935512  0.90089119  1
  Al  Al26  1  0.88172059  0.87979029  0.64999654  1
  Al  Al27  1  0.44338720  0.75892627  0.33366310  1
  Al  Al28  1  0.55854300  0.87559982  0.15042098  1
  Al  Al29  1  0.11628787  0.76379115  0.83349770  1
  Al  Al30  1  0.21896166  0.87102122  0.59020763  1
  Al  Al31  1  0.77750830  0.76166860  0.40172466  1
  Al  Al32  1  0.88326623  0.87743568  0.14737439  1
  Al  Al33  1  0.55461497  0.87205044  0.65567943  1
  B  B34  1  0.89005912  0.20580441  0.65428340  1
  B  B35  1  0.44185083  0.75844199  0.82143844  1
  N  N36  1  0.22182201  0.20441544  0.34064039  1
  N  N37  1  0.10744531  0.09834172  0.08071300  1
  N  N38  1  0.88844293  0.20402806  0.81780441  1
  N  N39  1  0.78953907  0.10649693  0.59572555  1
  N  N40  1  0.55952653  0.20245045  0.34251170  1
  N  N41  1  0.44356675  0.09499747  0.09066206  1
  N  N42  1  0.22293401  0.20750352  0.83831228  1
  N  N43  1  0.08274126  0.11088242  0.60027920  1
  N  N44  1  0.88941578  0.20620475  0.33480596  1
  N  N45  1  0.77805064  0.09625888  0.08577222  1
  N  N46  1  0.55755972  0.19880887  0.84050947  1
  N  N47  1  0.44289055  0.09151756  0.59134837  1
  N  N48  1  0.22290984  0.53699880  0.34241587  1
  N  N49  1  0.10981819  0.42682875  0.09210217  1
  N  N50  1  0.89154571  0.53962186  0.83823512  1
  N  N51  1  0.79526296  0.39905707  0.60136533  1
  N  N52  1  0.55643924  0.54537811  0.40140271  1
  N  N53  1  0.44729285  0.42765780  0.10579760  1
  N  N54  1  0.21916110  0.53546489  0.84349290  1
  N  N55  1  0.10942489  0.42613017  0.58711322  1
  N  N56  1  0.88784685  0.53861525  0.34068374  1
  N  N57  1  0.78225866  0.42431757  0.08002035  1
  N  N58  1  0.54213978  0.56808251  0.87633521  1
  N  N59  1  0.44372705  0.42380858  0.61820627  1
  N  N60  1  0.22745062  0.87129922  0.39954320  1
  N  N61  1  0.11354831  0.76661997  0.13557141  1
  N  N62  1  0.88180442  0.87456449  0.84277367  1
  N  N63  1  0.77478801  0.75958962  0.59169073  1
  N  N64  1  0.55931541  0.87563798  0.34228703  1
  N  N65  1  0.44276389  0.75900271  0.14484799  1
  N  N66  1  0.25125405  0.85670053  0.88019809  1
  N  N67  1  0.10905054  0.76228962  0.63776266  1
  N  N68  1  0.88337717  0.87753669  0.34296161  1
  N  N69  1  0.77804772  0.75988449  0.09016507  1
  N  N70  1  0.54545471  0.86219838  0.84612585  1
  N  N71  1  0.43724812  0.75656561  0.66002302  1
