# generated using pymatgen
data_Al17BN18
_symmetry_space_group_name_H-M   'P 1'
_cell_length_a   9.29964034
_cell_length_b   9.29964009
_cell_length_c   9.93925572
_cell_angle_alpha   89.99394254
_cell_angle_beta   89.99395539
_cell_angle_gamma   60.00210118
_symmetry_Int_Tables_number   1
_chemical_formula_structural   Al17BN18
_chemical_formula_sum   'Al34 B2 N36'
_cell_volume   744.43362504
_cell_formula_units_Z   2
loop_
 _symmetry_equiv_pos_site_id
 _symmetry_equiv_pos_as_xyz
  1  'x, y, z'
loop_
 _atom_site_type_symbol
 _atom_site_label
 _atom_site_symmetry_multiplicity
 _atom_site_fract_x
 _atom_site_fract_y
 _atom_site_fract_z
 _atom_site_occupancy
  Al  Al0  1  0.10951350  0.09400893  0.31218211  1
  Al  Al1  1  0.22132043  0.20454856  0.05563279  1
  Al  Al2  1  0.78052483  0.09720504  0.80035084  1
  Al  Al3  1  0.44501271  0.09304427  0.30546704  1
  Al  Al4  1  0.55754735  0.20471943  0.05531755  1
  Al  Al5  1  0.11029681  0.09406878  0.80106435  1
  Al  Al6  1  0.21703279  0.20704286  0.55476072  1
  Al  Al7  1  0.77904886  0.09572929  0.31182619  1
  Al  Al8  1  0.88881819  0.20549956  0.05715765  1
  Al  Al9  1  0.44281229  0.09076216  0.80500242  1
  Al  Al10  1  0.55861861  0.20737644  0.55520081  1
  Al  Al11  1  0.11109093  0.42777177  0.30471853  1
  Al  Al12  1  0.22237059  0.53905171  0.05532710  1
  Al  Al13  1  0.77738787  0.42697720  0.80106411  1
  Al  Al14  1  0.89036129  0.53371390  0.55476062  1
  Al  Al15  1  0.44531943  0.42879427  0.30495737  1
  Al  Al16  1  0.55462343  0.54336341  0.05123098  1
  Al  Al17  1  0.11099316  0.42767327  0.80509777  1
  Al  Al18  1  0.22218099  0.53886303  0.55437386  1
  Al  Al19  1  0.77732753  0.42619476  0.31218229  1
  Al  Al20  1  0.88786746  0.53800186  0.05563278  1
  Al  Al21  1  0.44302943  0.43286715  0.80522651  1
  Al  Al22  1  0.55801659  0.53597551  0.56150374  1
  Al  Al23  1  0.11211294  0.76200094  0.30495749  1
  Al  Al24  1  0.22668276  0.87130375  0.05123094  1
  Al  Al25  1  0.77408126  0.75949266  0.80500250  1
  Al  Al26  1  0.89069404  0.87530084  0.55520081  1
  Al  Al27  1  0.44429941  0.76098128  0.30704604  1
  Al  Al28  1  0.55273044  0.86941155  0.05086863  1
  Al  Al29  1  0.11618551  0.75971067  0.80522639  1
  Al  Al30  1  0.21929340  0.87469881  0.56150386  1
  Al  Al31  1  0.77636228  0.76169448  0.30546702  1
  Al  Al32  1  0.88803820  0.87422863  0.05531764  1
  Al  Al33  1  0.55431927  0.87099997  0.56076501  1
  B  B34  1  0.88890887  0.20559033  0.55198383  1
  B  B35  1  0.44498302  0.76166402  0.80070889  1
  N  N36  1  0.22240924  0.20565358  0.36417409  1
  N  N37  1  0.11051488  0.09295537  0.11802975  1
  N  N38  1  0.88919203  0.20587254  0.86778837  1
  N  N39  1  0.79028007  0.10696182  0.60669386  1
  N  N40  1  0.55462894  0.20624625  0.36431445  1
  N  N41  1  0.44557239  0.09239612  0.11226684  1
  N  N42  1  0.22070609  0.20486904  0.86358028  1
  N  N43  1  0.08594736  0.10722407  0.60795341  1
  N  N44  1  0.88904740  0.20572849  0.38582820  1
  N  N45  1  0.77865112  0.09533224  0.11935017  1
  N  N46  1  0.55733564  0.20455803  0.86238695  1
  N  N47  1  0.44360057  0.09553683  0.61427742  1
  N  N48  1  0.22243294  0.53911430  0.36291344  1
  N  N49  1  0.11093010  0.42761107  0.11376622  1
  N  N50  1  0.88818855  0.53738634  0.86358017  1
  N  N51  1  0.79054229  0.40262875  0.60795317  1
  N  N52  1  0.55418134  0.54074250  0.36982189  1
  N  N53  1  0.44613637  0.42867725  0.11220302  1
  N  N54  1  0.22190035  0.53858145  0.86507036  1
  N  N55  1  0.11133303  0.42801442  0.61435738  1
  N  N56  1  0.88897238  0.53909050  0.36417388  1
  N  N57  1  0.77627465  0.42719593  0.11802989  1
  N  N58  1  0.54538377  0.56279335  0.85555233  1
  N  N59  1  0.44326867  0.42798485  0.61535089  1
  N  N60  1  0.22406092  0.87086291  0.36982202  1
  N  N61  1  0.11199610  0.76281740  0.11220309  1
  N  N62  1  0.88787689  0.87401625  0.86238713  1
  N  N63  1  0.77885578  0.76028146  0.61427752  1
  N  N64  1  0.55472144  0.87140312  0.36853160  1
  N  N65  1  0.44419073  0.76087150  0.11766685  1
  N  N66  1  0.24611239  0.86206455  0.85555230  1
  N  N67  1  0.11130276  0.75995073  0.61535082  1
  N  N68  1  0.88956504  0.87130985  0.36431454  1
  N  N69  1  0.77571492  0.76225369  0.11226686  1
  N  N70  1  0.54294938  0.85963019  0.85687040  1
  N  N71  1  0.44427598  0.76095754  0.63522769  1
