# generated using pymatgen
data_Al17BN18
_symmetry_space_group_name_H-M   'P 1'
_cell_length_a   9.35473269
_cell_length_b   9.35472693
_cell_length_c   10.08049166
_cell_angle_alpha   90.10001571
_cell_angle_beta   90.10199303
_cell_angle_gamma   60.12330764
_symmetry_Int_Tables_number   1
_chemical_formula_structural   Al17BN18
_chemical_formula_sum   'Al34 B2 N36'
_cell_volume   764.91332377
_cell_formula_units_Z   2
loop_
 _symmetry_equiv_pos_site_id
 _symmetry_equiv_pos_as_xyz
  1  'x, y, z'
loop_
 _atom_site_type_symbol
 _atom_site_label
 _atom_site_symmetry_multiplicity
 _atom_site_fract_x
 _atom_site_fract_y
 _atom_site_fract_z
 _atom_site_occupancy
  Al  Al0  1  0.10424778  0.10134778  0.39267620  1
  Al  Al1  1  0.22088901  0.20223714  0.13718991  1
  Al  Al2  1  0.78153853  0.09822744  0.86935256  1
  Al  Al3  1  0.44181400  0.09142689  0.39194253  1
  Al  Al4  1  0.55329995  0.21186113  0.06456935  1
  Al  Al5  1  0.11144533  0.09519440  0.87532327  1
  Al  Al6  1  0.21358537  0.21014207  0.63812220  1
  Al  Al7  1  0.78333348  0.10001879  0.38926239  1
  Al  Al8  1  0.88911251  0.20579518  0.13323389  1
  Al  Al9  1  0.43745175  0.09048158  0.87902461  1
  Al  Al10  1  0.55704228  0.21246410  0.58047420  1
  Al  Al11  1  0.10892199  0.42560393  0.38206702  1
  Al  Al12  1  0.22460041  0.54128325  0.07407487  1
  Al  Al13  1  0.77851179  0.42812920  0.87532426  1
  Al  Al14  1  0.89346002  0.53026914  0.63812269  1
  Al  Al15  1  0.44837358  0.42751227  0.31947988  1
  Al  Al16  1  0.54899527  0.54642331  0.06193689  1
  Al  Al17  1  0.10843110  0.42511374  0.89069260  1
  Al  Al18  1  0.22500585  0.54168830  0.56470926  1
  Al  Al19  1  0.78466389  0.42093225  0.39267604  1
  Al  Al20  1  0.88555588  0.53757297  0.13718993  1
  Al  Al21  1  0.43934768  0.43636291  0.81698552  1
  Al  Al22  1  0.55491725  0.53779618  0.57855167  1
  Al  Al23  1  0.11082773  0.76505755  0.31947989  1
  Al  Al24  1  0.22973982  0.86567604  0.06193686  1
  Al  Al25  1  0.77379693  0.75413724  0.87902504  1
  Al  Al26  1  0.89578176  0.87372382  0.58047450  1
  Al  Al27  1  0.44323499  0.75992138  0.32206174  1
  Al  Al28  1  0.55576051  0.87244373  0.11412594  1
  Al  Al29  1  0.11967714  0.75603318  0.81698622  1
  Al  Al30  1  0.22111279  0.87159851  0.57855246  1
  Al  Al31  1  0.77474407  0.75849761  0.39194190  1
  Al  Al32  1  0.89517650  0.86998600  0.06456887  1
  Al  Al33  1  0.55474264  0.87142603  0.63860468  1
  B  B34  1  0.88985111  0.20653508  0.64163470  1
  B  B35  1  0.44074545  0.75742832  0.81132047  1
  N  N36  1  0.22194089  0.20258866  0.32723531  1
  N  N37  1  0.10736868  0.09745291  0.06855475  1
  N  N38  1  0.89050254  0.20718849  0.80406719  1
  N  N39  1  0.79335537  0.11003710  0.59068955  1
  N  N40  1  0.55419585  0.21090184  0.38237865  1
  N  N41  1  0.43866939  0.09471689  0.07286772  1
  N  N42  1  0.21837758  0.20950628  0.82448801  1
  N  N43  1  0.08374390  0.11067069  0.58703165  1
  N  N44  1  0.89012145  0.20680891  0.32129330  1
  N  N45  1  0.78136641  0.09805139  0.07168625  1
  N  N46  1  0.55095161  0.21223465  0.86648721  1
  N  N47  1  0.43913497  0.09356700  0.58686224  1
  N  N48  1  0.22542807  0.54210944  0.37290261  1
  N  N49  1  0.10804176  0.42472607  0.08283210  1
  N  N50  1  0.89282022  0.53506484  0.82448843  1
  N  N51  1  0.79398979  0.40042686  0.58703114  1
  N  N52  1  0.55295542  0.54242873  0.38647408  1
  N  N53  1  0.44753229  0.42853890  0.12911497  1
  N  N54  1  0.22431700  0.54099893  0.88271986  1
  N  N55  1  0.10919536  0.42588089  0.57359805  1
  N  N56  1  0.88590401  0.53862672  0.32723493  1
  N  N57  1  0.78077205  0.42405309  0.06855460  1
  N  N58  1  0.53925904  0.56677097  0.86819674  1
  N  N59  1  0.44007429  0.43167324  0.63120395  1
  N  N60  1  0.22574482  0.86963970  0.38647396  1
  N  N61  1  0.11185692  0.76421285  0.12911463  1
  N  N62  1  0.89554957  0.86763917  0.86648676  1
  N  N63  1  0.77688131  0.75582077  0.58686199  1
  N  N64  1  0.55654646  0.87323225  0.34296481  1
  N  N65  1  0.44152589  0.75820636  0.13214113  1
  N  N66  1  0.25008712  0.85594312  0.86819610  1
  N  N67  1  0.11499228  0.75675346  0.63120451  1
  N  N68  1  0.89421911  0.87088040  0.38237802  1
  N  N69  1  0.77803149  0.75535635  0.07286754  1
  N  N70  1  0.54401614  0.86070213  0.83740482  1
  N  N71  1  0.43891065  0.75559226  0.64902361  1
