# generated using pymatgen
data_Al17BN18
_symmetry_space_group_name_H-M   'P 1'
_cell_length_a   9.29706948
_cell_length_b   9.29888366
_cell_length_c   9.97385126
_cell_angle_alpha   90.02764176
_cell_angle_beta   89.89053132
_cell_angle_gamma   60.00994994
_symmetry_Int_Tables_number   1
_chemical_formula_structural   Al17BN18
_chemical_formula_sum   'Al34 B2 N36'
_cell_volume   746.81417708
_cell_formula_units_Z   2
loop_
 _symmetry_equiv_pos_site_id
 _symmetry_equiv_pos_as_xyz
  1  'x, y, z'
loop_
 _atom_site_type_symbol
 _atom_site_label
 _atom_site_symmetry_multiplicity
 _atom_site_fract_x
 _atom_site_fract_y
 _atom_site_fract_z
 _atom_site_occupancy
  Al  Al0  1  0.10542743  0.09746103  0.40199585  1
  Al  Al1  1  0.22172070  0.20380860  0.14749576  1
  Al  Al2  1  0.77874777  0.09581258  0.89322524  1
  Al  Al3  1  0.44494084  0.09416262  0.39888504  1
  Al  Al4  1  0.55685217  0.20498336  0.14742083  1
  Al  Al5  1  0.11484493  0.09085673  0.89072873  1
  Al  Al6  1  0.21670322  0.20764852  0.64840548  1
  Al  Al7  1  0.78065301  0.09727408  0.40164430  1
  Al  Al8  1  0.88931007  0.20566206  0.14534881  1
  Al  Al9  1  0.44210058  0.09040476  0.89806921  1
  Al  Al10  1  0.55943053  0.20692782  0.64916575  1
  Al  Al11  1  0.11093646  0.42781871  0.39729279  1
  Al  Al12  1  0.22270484  0.53929918  0.14795235  1
  Al  Al13  1  0.77405585  0.43186688  0.89178607  1
  Al  Al14  1  0.89061111  0.53367217  0.64865808  1
  Al  Al15  1  0.44510792  0.42751656  0.39869599  1
  Al  Al16  1  0.55618391  0.54004513  0.14622931  1
  Al  Al17  1  0.11068407  0.42780700  0.89975774  1
  Al  Al18  1  0.22177828  0.53850742  0.64872935  1
  Al  Al19  1  0.78016877  0.42228318  0.40285200  1
  Al  Al20  1  0.88706381  0.53841509  0.14808684  1
  Al  Al21  1  0.44246796  0.43389137  0.89859996  1
  Al  Al22  1  0.55621030  0.53886100  0.64694321  1
  Al  Al23  1  0.11079694  0.76171458  0.39800767  1
  Al  Al24  1  0.22417038  0.87247636  0.14548171  1
  Al  Al25  1  0.77337883  0.75914703  0.89820193  1
  Al  Al26  1  0.89014581  0.87637893  0.64911010  1
  Al  Al27  1  0.44516249  0.76095876  0.39139164  1
  Al  Al28  1  0.55459910  0.87102189  0.14665061  1
  Al  Al29  1  0.11717283  0.75948811  0.89776767  1
  Al  Al30  1  0.22229325  0.87302607  0.64434549  1
  Al  Al31  1  0.77749466  0.76182412  0.39907854  1
  Al  Al32  1  0.88862657  0.87345503  0.14697100  1
  Al  Al33  1  0.55297145  0.86973251  0.64749890  1
  B  B34  1  0.88818489  0.20549289  0.65237103  1
  B  B35  1  0.44368223  0.76111220  0.87818899  1
  N  N36  1  0.22161793  0.20405389  0.34014058  1
  N  N37  1  0.10986881  0.09444370  0.08218537  1
  N  N38  1  0.88863767  0.20588684  0.81781218  1
  N  N39  1  0.79033325  0.10705655  0.59586288  1
  N  N40  1  0.55767077  0.20449598  0.34035889  1
  N  N41  1  0.44478109  0.09417639  0.08829862  1
  N  N42  1  0.22177104  0.20682702  0.83772228  1
  N  N43  1  0.08628986  0.10631979  0.59696912  1
  N  N44  1  0.88915775  0.20602301  0.33456663  1
  N  N45  1  0.77871219  0.09522002  0.08460390  1
  N  N46  1  0.55432343  0.20621590  0.83928560  1
  N  N47  1  0.44466469  0.09409326  0.59100530  1
  N  N48  1  0.22269393  0.53902449  0.33873847  1
  N  N49  1  0.11083961  0.42752712  0.09040362  1
  N  N50  1  0.88983563  0.53868286  0.83797562  1
  N  N51  1  0.78902358  0.40322704  0.59776637  1
  N  N52  1  0.55915068  0.53557099  0.33950263  1
  N  N53  1  0.44528251  0.42750457  0.08850783  1
  N  N54  1  0.22176420  0.53834507  0.83889702  1
  N  N55  1  0.11121748  0.42798674  0.58756136  1
  N  N56  1  0.88710833  0.53821970  0.34077134  1
  N  N57  1  0.77826338  0.42606967  0.08286821  1
  N  N58  1  0.54097834  0.56685737  0.84039824  1
  N  N59  1  0.44428985  0.42821845  0.58994575  1
  N  N60  1  0.21959208  0.87558101  0.33973292  1
  N  N61  1  0.11147672  0.76158063  0.08797140  1
  N  N62  1  0.88935431  0.87121988  0.83920298  1
  N  N63  1  0.77754057  0.76147487  0.59119005  1
  N  N64  1  0.55693757  0.87332255  0.33823301  1
  N  N65  1  0.44486455  0.76050953  0.08864875  1
  N  N66  1  0.24993350  0.85793763  0.83897493  1
  N  N67  1  0.11147755  0.76061186  0.58926825  1
  N  N68  1  0.88795587  0.87426012  0.33993958  1
  N  N69  1  0.77796251  0.76108320  0.08839948  1
  N  N70  1  0.54120517  0.85818686  0.84162264  1
  N  N71  1  0.44497294  0.76011508  0.58123999  1
