# generated using pymatgen
data_Al17BN18
_symmetry_space_group_name_H-M   'P 1'
_cell_length_a   9.33401330
_cell_length_b   9.32886206
_cell_length_c   10.06179187
_cell_angle_alpha   90.17675164
_cell_angle_beta   90.12297551
_cell_angle_gamma   60.28483434
_symmetry_Int_Tables_number   1
_chemical_formula_structural   Al17BN18
_chemical_formula_sum   'Al34 B2 N36'
_cell_volume   760.92216249
_cell_formula_units_Z   2
loop_
 _symmetry_equiv_pos_site_id
 _symmetry_equiv_pos_as_xyz
  1  'x, y, z'
loop_
 _atom_site_type_symbol
 _atom_site_label
 _atom_site_symmetry_multiplicity
 _atom_site_fract_x
 _atom_site_fract_y
 _atom_site_fract_z
 _atom_site_occupancy
  Al  Al0  1  0.10347303  0.10374182  0.40546236  1
  Al  Al1  1  0.22088001  0.20316474  0.14924109  1
  Al  Al2  1  0.77837396  0.09525204  0.89620643  1
  Al  Al3  1  0.44464194  0.09353904  0.40157102  1
  Al  Al4  1  0.55811503  0.20498964  0.14795563  1
  Al  Al5  1  0.11161233  0.09644284  0.88743192  1
  Al  Al6  1  0.21642029  0.20689259  0.65065889  1
  Al  Al7  1  0.78115091  0.09710435  0.40433014  1
  Al  Al8  1  0.88924388  0.20657753  0.14575656  1
  Al  Al9  1  0.44260206  0.08917042  0.90125390  1
  Al  Al10  1  0.56231648  0.19949252  0.65045915  1
  Al  Al11  1  0.11100888  0.42835708  0.39893194  1
  Al  Al12  1  0.22450419  0.53525595  0.14552627  1
  Al  Al13  1  0.78079734  0.42788443  0.88644477  1
  Al  Al14  1  0.89096644  0.53319845  0.65089366  1
  Al  Al15  1  0.44751953  0.42859210  0.36724940  1
  Al  Al16  1  0.54959381  0.54858168  0.07238463  1
  Al  Al17  1  0.11064352  0.42742748  0.90334134  1
  Al  Al18  1  0.21892777  0.53399438  0.64802866  1
  Al  Al19  1  0.78741433  0.42020165  0.40622943  1
  Al  Al20  1  0.88670130  0.53753463  0.14929226  1
  Al  Al21  1  0.44534110  0.43138136  0.85114086  1
  Al  Al22  1  0.55623520  0.53674894  0.59506391  1
  Al  Al23  1  0.11401207  0.76840873  0.33434965  1
  Al  Al24  1  0.23183929  0.86505841  0.07312581  1
  Al  Al25  1  0.77266555  0.75934489  0.90089743  1
  Al  Al26  1  0.88172884  0.87977558  0.65007056  1
  Al  Al27  1  0.44331606  0.75906537  0.33368161  1
  Al  Al28  1  0.55854020  0.87550445  0.15042195  1
  Al  Al29  1  0.11623882  0.76378987  0.83366330  1
  Al  Al30  1  0.21900761  0.87101280  0.59024550  1
  Al  Al31  1  0.77752650  0.76167196  0.40173641  1
  Al  Al32  1  0.88327872  0.87741925  0.14741457  1
  Al  Al33  1  0.55462444  0.87197868  0.65572767  1
  B  B34  1  0.89004472  0.20582811  0.65429280  1
  B  B35  1  0.44181156  0.75850039  0.82154479  1
  N  N36  1  0.22182048  0.20443004  0.34066608  1
  N  N37  1  0.10744081  0.09833599  0.08072220  1
  N  N38  1  0.88840001  0.20407338  0.81778825  1
  N  N39  1  0.78961485  0.10644063  0.59573268  1
  N  N40  1  0.55987402  0.20172296  0.34291993  1
  N  N41  1  0.44351145  0.09493241  0.09068022  1
  N  N42  1  0.22292858  0.20751434  0.83833432  1
  N  N43  1  0.08273751  0.11088613  0.60027509  1
  N  N44  1  0.88935937  0.20622255  0.33481488  1
  N  N45  1  0.77819481  0.09615242  0.08577626  1
  N  N46  1  0.55775901  0.19838988  0.84100237  1
  N  N47  1  0.44285304  0.09151937  0.59139324  1
  N  N48  1  0.22221109  0.53742696  0.34300694  1
  N  N49  1  0.10975114  0.42674535  0.09213623  1
  N  N50  1  0.89149633  0.53961028  0.83824514  1
  N  N51  1  0.79519666  0.39909501  0.60128047  1
  N  N52  1  0.55612757  0.54519424  0.40165494  1
  N  N53  1  0.44792699  0.42816939  0.11247476  1
  N  N54  1  0.21889141  0.53574708  0.84424632  1
  N  N55  1  0.10941725  0.42605454  0.58717370  1
  N  N56  1  0.88775996  0.53860861  0.34070775  1
  N  N57  1  0.78220588  0.42429477  0.08002445  1
  N  N58  1  0.54198281  0.56800627  0.87688269  1
  N  N59  1  0.44430442  0.42432644  0.62449816  1
  N  N60  1  0.22743518  0.87134773  0.39958231  1
  N  N61  1  0.11349100  0.76673669  0.13559789  1
  N  N62  1  0.88179870  0.87457057  0.84277536  1
  N  N63  1  0.77479550  0.75959397  0.59169639  1
  N  N64  1  0.55931115  0.87560195  0.34233119  1
  N  N65  1  0.44279873  0.75894724  0.14487373  1
  N  N66  1  0.25123106  0.85677468  0.88019646  1
  N  N67  1  0.10900980  0.76236872  0.63780904  1
  N  N68  1  0.88335457  0.87755533  0.34296102  1
  N  N69  1  0.77805636  0.75987926  0.09017990  1
  N  N70  1  0.54542151  0.86215539  0.84614818  1
  N  N71  1  0.43734687  0.75642932  0.66002096  1
