# generated using pymatgen
data_Al17BN18
_symmetry_space_group_name_H-M   'P 1'
_cell_length_a   9.30442611
_cell_length_b   9.30442551
_cell_length_c   10.13985945
_cell_angle_alpha   90.04977648
_cell_angle_beta   90.04981801
_cell_angle_gamma   60.17847761
_symmetry_Int_Tables_number   1
_chemical_formula_structural   Al17BN18
_chemical_formula_sum   'Al34 B2 N36'
_cell_volume   761.58741249
_cell_formula_units_Z   2
loop_
 _symmetry_equiv_pos_site_id
 _symmetry_equiv_pos_as_xyz
  1  'x, y, z'
loop_
 _atom_site_type_symbol
 _atom_site_label
 _atom_site_symmetry_multiplicity
 _atom_site_fract_x
 _atom_site_fract_y
 _atom_site_fract_z
 _atom_site_occupancy
  Al  Al0  1  0.10331168  0.10255272  0.40531312  1
  Al  Al1  1  0.22073858  0.20298402  0.14879049  1
  Al  Al2  1  0.77832428  0.09498794  0.89505253  1
  Al  Al3  1  0.44521996  0.09448440  0.40124307  1
  Al  Al4  1  0.55962814  0.20113378  0.14837716  1
  Al  Al5  1  0.11120131  0.09565486  0.88605471  1
  Al  Al6  1  0.21617868  0.20817015  0.64991236  1
  Al  Al7  1  0.78029844  0.09696160  0.40359668  1
  Al  Al8  1  0.88951149  0.20617589  0.14515680  1
  Al  Al9  1  0.44298413  0.08953532  0.90029692  1
  Al  Al10  1  0.56167387  0.19962393  0.65055752  1
  Al  Al11  1  0.10835595  0.42501955  0.39522083  1
  Al  Al12  1  0.22535076  0.54201378  0.08302243  1
  Al  Al13  1  0.77899326  0.42786379  0.88605484  1
  Al  Al14  1  0.89150624  0.53284280  0.64991234  1
  Al  Al15  1  0.44572058  0.43467736  0.33108904  1
  Al  Al16  1  0.54898926  0.54856259  0.07223437  1
  Al  Al17  1  0.10793956  0.42460348  0.90158744  1
  Al  Al18  1  0.22431304  0.54097712  0.57769960  1
  Al  Al19  1  0.78589086  0.41997442  0.40531334  1
  Al  Al20  1  0.88632050  0.53740386  0.14879086  1
  Al  Al21  1  0.43932209  0.43735246  0.82994293  1
  Al  Al22  1  0.55447276  0.53584734  0.59058407  1
  Al  Al23  1  0.11801478  0.76238348  0.33108853  1
  Al  Al24  1  0.23189936  0.86565092  0.07223421  1
  Al  Al25  1  0.77287092  0.75964828  0.90029728  1
  Al  Al26  1  0.88295742  0.87833915  0.65055769  1
  Al  Al27  1  0.44302735  0.75969030  0.33368029  1
  Al  Al28  1  0.55901547  0.87568107  0.15038704  1
  Al  Al29  1  0.12068784  0.75598538  0.82994257  1
  Al  Al30  1  0.21918290  0.87113562  0.59058436  1
  Al  Al31  1  0.77782015  0.76188475  0.40124288  1
  Al  Al32  1  0.88446853  0.87629362  0.14837747  1
  Al  Al33  1  0.55501326  0.87167742  0.65574269  1
  B  B34  1  0.88954161  0.20620530  0.65275496  1
  B  B35  1  0.44127276  0.75793627  0.82203058  1
  N  N36  1  0.22237060  0.20246668  0.33846196  1
  N  N37  1  0.10733259  0.09834833  0.07869462  1
  N  N38  1  0.88781012  0.20447313  0.81606510  1
  N  N39  1  0.78942164  0.10608664  0.59456537  1
  N  N40  1  0.55974210  0.20157908  0.34161353  1
  N  N41  1  0.44330154  0.09542703  0.08855732  1
  N  N42  1  0.22305521  0.20716146  0.83623889  1
  N  N43  1  0.08266677  0.11065699  0.59934533  1
  N  N44  1  0.88921865  0.20588187  0.33333365  1
  N  N45  1  0.77879167  0.09545693  0.08407316  1
  N  N46  1  0.55665347  0.20014093  0.84123356  1
  N  N47  1  0.44299158  0.09204451  0.59012009  1
  N  N48  1  0.22529310  0.54195620  0.38779790  1
  N  N49  1  0.10825413  0.42491801  0.09285499  1
  N  N50  1  0.89049766  0.53971961  0.83623884  1
  N  N51  1  0.79399392  0.39933043  0.59934552  1
  N  N52  1  0.55355154  0.54351417  0.40052423  1
  N  N53  1  0.44618494  0.43403737  0.13989925  1
  N  N54  1  0.22413817  0.54080159  0.89386875  1
  N  N55  1  0.10804319  0.42470722  0.58565814  1
  N  N56  1  0.88580297  0.53903512  0.33846217  1
  N  N57  1  0.78168608  0.42399660  0.07869473  1
  N  N58  1  0.53968249  0.56713385  0.87956241  1
  N  N59  1  0.43974330  0.43007679  0.64167994  1
  N  N60  1  0.22685138  0.87021385  0.40052439  1
  N  N61  1  0.11737271  0.76284835  0.13989889  1
  N  N62  1  0.88347641  0.87331748  0.84123368  1
  N  N63  1  0.77537972  0.75965581  0.59011991  1
  N  N64  1  0.55940736  0.87607182  0.34102031  1
  N  N65  1  0.44285210  0.75951554  0.14515167  1
  N  N66  1  0.25047044  0.85634481  0.87956220  1
  N  N67  1  0.11341071  0.75640767  0.64167968  1
  N  N68  1  0.88491618  0.87640565  0.34161363  1
  N  N69  1  0.77876181  0.75996693  0.08855767  1
  N  N70  1  0.54542815  0.86209246  0.84498548  1
  N  N71  1  0.43840748  0.75507162  0.66023889  1
