# generated using pymatgen
data_Al17BN18
_symmetry_space_group_name_H-M   'P 1'
_cell_length_a   9.31406182
_cell_length_b   9.31838990
_cell_length_c   10.11273990
_cell_angle_alpha   90.05318162
_cell_angle_beta   90.08412550
_cell_angle_gamma   60.15236567
_symmetry_Int_Tables_number   1
_chemical_formula_structural   Al17BN18
_chemical_formula_sum   'Al34 B2 N36'
_cell_volume   761.27878491
_cell_formula_units_Z   2
loop_
 _symmetry_equiv_pos_site_id
 _symmetry_equiv_pos_as_xyz
  1  'x, y, z'
loop_
 _atom_site_type_symbol
 _atom_site_label
 _atom_site_symmetry_multiplicity
 _atom_site_fract_x
 _atom_site_fract_y
 _atom_site_fract_z
 _atom_site_occupancy
  Al  Al0  1  0.10330707  0.10237148  0.39196679  1
  Al  Al1  1  0.22135056  0.20257203  0.13599206  1
  Al  Al2  1  0.77746718  0.09674734  0.87926956  1
  Al  Al3  1  0.44551092  0.09433185  0.38815885  1
  Al  Al4  1  0.56041817  0.20080346  0.13584747  1
  Al  Al5  1  0.11145233  0.09544269  0.87285438  1
  Al  Al6  1  0.21605179  0.20824595  0.63666226  1
  Al  Al7  1  0.78039394  0.09728811  0.39102323  1
  Al  Al8  1  0.88995038  0.20621442  0.13217061  1
  Al  Al9  1  0.44296032  0.08960503  0.88746130  1
  Al  Al10  1  0.56055901  0.20046813  0.63718177  1
  Al  Al11  1  0.10843075  0.42513830  0.38173019  1
  Al  Al12  1  0.22658872  0.54077834  0.07036238  1
  Al  Al13  1  0.77901595  0.42787680  0.87335802  1
  Al  Al14  1  0.89176420  0.53198009  0.63691749  1
  Al  Al15  1  0.44554264  0.43497495  0.31842888  1
  Al  Al16  1  0.54952578  0.54834518  0.05964841  1
  Al  Al17  1  0.10831384  0.42435366  0.88863171  1
  Al  Al18  1  0.22411946  0.54124558  0.56408829  1
  Al  Al19  1  0.78571919  0.42011799  0.39219131  1
  Al  Al20  1  0.88676605  0.53702889  0.13597564  1
  Al  Al21  1  0.43891803  0.43779605  0.81691871  1
  Al  Al22  1  0.55439044  0.53603918  0.57770696  1
  Al  Al23  1  0.11509483  0.76381907  0.31793197  1
  Al  Al24  1  0.23308044  0.86551160  0.05920179  1
  Al  Al25  1  0.77183302  0.75871243  0.88494366  1
  Al  Al26  1  0.88362105  0.87795359  0.63339501  1
  Al  Al27  1  0.44270223  0.75976262  0.32099162  1
  Al  Al28  1  0.55973431  0.87535716  0.13791139  1
  Al  Al29  1  0.12027634  0.75593875  0.81705624  1
  Al  Al30  1  0.21882356  0.87122907  0.57714596  1
  Al  Al31  1  0.77788310  0.76171406  0.38897228  1
  Al  Al32  1  0.88704681  0.87496755  0.12215539  1
  Al  Al33  1  0.55381719  0.87194931  0.64268320  1
  B  B34  1  0.88905080  0.20698067  0.64009970  1
  B  B35  1  0.44043998  0.75814309  0.80890182  1
  N  N36  1  0.22248529  0.20234822  0.32583122  1
  N  N37  1  0.10792820  0.09791820  0.06605775  1
  N  N38  1  0.88804903  0.20524832  0.80308297  1
  N  N39  1  0.78853968  0.10782838  0.58293350  1
  N  N40  1  0.55968254  0.20194339  0.32921208  1
  N  N41  1  0.44412575  0.09509427  0.07616922  1
  N  N42  1  0.22307824  0.20702691  0.82354321  1
  N  N43  1  0.08259775  0.11065512  0.58642721  1
  N  N44  1  0.88900680  0.20619797  0.32045081  1
  N  N45  1  0.77839815  0.09736235  0.06912211  1
  N  N46  1  0.55548820  0.20086035  0.82790573  1
  N  N47  1  0.44285224  0.09212542  0.57729213  1
  N  N48  1  0.22480641  0.54239058  0.37367721  1
  N  N49  1  0.10886036  0.42459725  0.08043449  1
  N  N50  1  0.89098533  0.53861955  0.82336189  1
  N  N51  1  0.79383670  0.39949167  0.58648778  1
  N  N52  1  0.55354954  0.54361213  0.38735813  1
  N  N53  1  0.44709025  0.43358016  0.12684385  1
  N  N54  1  0.22409768  0.54063838  0.88082572  1
  N  N55  1  0.10821745  0.42486635  0.57270495  1
  N  N56  1  0.88561617  0.53905600  0.32578309  1
  N  N57  1  0.78205953  0.42393531  0.06614682  1
  N  N58  1  0.53967387  0.56710489  0.86649071  1
  N  N59  1  0.43935004  0.43064141  0.62816598  1
  N  N60  1  0.22630303  0.87026309  0.38664293  1
  N  N61  1  0.11792506  0.76250758  0.12559181  1
  N  N62  1  0.88422247  0.87299720  0.83069352  1
  N  N63  1  0.77438355  0.75874317  0.57883789  1
  N  N64  1  0.55940298  0.87575677  0.32870642  1
  N  N65  1  0.44362201  0.75927022  0.13212729  1
  N  N66  1  0.25030120  0.85619277  0.86638617  1
  N  N67  1  0.11357005  0.75628598  0.62863164  1
  N  N68  1  0.88577640  0.87599738  0.33483088  1
  N  N69  1  0.77842321  0.75871354  0.07394658  1
  N  N70  1  0.54417731  0.86248574  0.83207915  1
  N  N71  1  0.43773566  0.75518270  0.64691448  1
