# generated using pymatgen
data_Al17BN18
_symmetry_space_group_name_H-M   'P 1'
_cell_length_a   9.32459422
_cell_length_b   9.32461336
_cell_length_c   10.05299419
_cell_angle_alpha   89.79598793
_cell_angle_beta   89.74988206
_cell_angle_gamma   60.09888216
_symmetry_Int_Tables_number   1
_chemical_formula_structural   Al17BN18
_chemical_formula_sum   'Al34 B2 N36'
_cell_volume   757.72918729
_cell_formula_units_Z   2
loop_
 _symmetry_equiv_pos_site_id
 _symmetry_equiv_pos_as_xyz
  1  'x, y, z'
loop_
 _atom_site_type_symbol
 _atom_site_label
 _atom_site_symmetry_multiplicity
 _atom_site_fract_x
 _atom_site_fract_y
 _atom_site_fract_z
 _atom_site_occupancy
  Al  Al0  1  0.10231697  0.10450017  0.40180716  1
  Al  Al1  1  0.22159864  0.20453449  0.14859359  1
  Al  Al2  1  0.77865769  0.09583360  0.89401390  1
  Al  Al3  1  0.44519967  0.09360020  0.40277954  1
  Al  Al4  1  0.55713946  0.20486064  0.14850971  1
  Al  Al5  1  0.11268732  0.09583070  0.88684091  1
  Al  Al6  1  0.21702295  0.20769723  0.64914516  1
  Al  Al7  1  0.78036550  0.09696058  0.40247286  1
  Al  Al8  1  0.88962059  0.20475191  0.14585406  1
  Al  Al9  1  0.44215073  0.09002366  0.89925449  1
  Al  Al10  1  0.55972924  0.20598935  0.65076600  1
  Al  Al11  1  0.11135854  0.42812645  0.39852433  1
  Al  Al12  1  0.22233996  0.53960244  0.14840211  1
  Al  Al13  1  0.77776141  0.43048986  0.88862265  1
  Al  Al14  1  0.89066804  0.53370957  0.64927877  1
  Al  Al15  1  0.44240766  0.42348659  0.39791192  1
  Al  Al16  1  0.55381563  0.54642495  0.09263535  1
  Al  Al17  1  0.11086529  0.42735756  0.90053652  1
  Al  Al18  1  0.22114497  0.53743849  0.64971559  1
  Al  Al19  1  0.78767565  0.41912474  0.40097765  1
  Al  Al20  1  0.88849280  0.53823940  0.14889992  1
  Al  Al21  1  0.44037058  0.43201016  0.89605176  1
  Al  Al22  1  0.55724237  0.53757520  0.58606585  1
  Al  Al23  1  0.10671926  0.75927755  0.39875972  1
  Al  Al24  1  0.23206291  0.86932253  0.08468158  1
  Al  Al25  1  0.77317891  0.75877202  0.89945929  1
  Al  Al26  1  0.88871510  0.87667509  0.65068349  1
  Al  Al27  1  0.44206011  0.76031359  0.34604766  1
  Al  Al28  1  0.55902854  0.87556872  0.15386094  1
  Al  Al29  1  0.11433763  0.75645376  0.89456263  1
  Al  Al30  1  0.22089935  0.87390981  0.58608127  1
  Al  Al31  1  0.77689260  0.76193519  0.40270723  1
  Al  Al32  1  0.88917493  0.87352360  0.14824892  1
  Al  Al33  1  0.55277358  0.86943766  0.65086117  1
  B  B34  1  0.88950506  0.20690437  0.65229133  1
  B  B35  1  0.44457247  0.75980816  0.85496458  1
  N  N36  1  0.22236507  0.20529984  0.34001342  1
  N  N37  1  0.10761932  0.09988408  0.08096862  1
  N  N38  1  0.88798786  0.20604433  0.81781841  1
  N  N39  1  0.78995227  0.10685653  0.59577130  1
  N  N40  1  0.55787916  0.20318287  0.33970239  1
  N  N41  1  0.44435078  0.09394736  0.08872056  1
  N  N42  1  0.22292449  0.20782180  0.83734796  1
  N  N43  1  0.08295826  0.11178371  0.59936619  1
  N  N44  1  0.88914022  0.20530543  0.33328155  1
  N  N45  1  0.77866834  0.09510287  0.08482437  1
  N  N46  1  0.55503052  0.20525735  0.84008854  1
  N  N47  1  0.44452445  0.09361623  0.59320133  1
  N  N48  1  0.22215097  0.53932477  0.33721479  1
  N  N49  1  0.11136386  0.42765729  0.09009311  1
  N  N50  1  0.89103388  0.53930136  0.83773966  1
  N  N51  1  0.79456028  0.40008141  0.59831396  1
  N  N52  1  0.56049309  0.53488800  0.38368403  1
  N  N53  1  0.44342484  0.42548169  0.08825658  1
  N  N54  1  0.22149437  0.53726071  0.83810517  1
  N  N55  1  0.11077671  0.42759822  0.58739146  1
  N  N56  1  0.88877571  0.53912226  0.34007050  1
  N  N57  1  0.78369278  0.42375926  0.08264821  1
  N  N58  1  0.53936998  0.57282382  0.88144928  1
  N  N59  1  0.44013518  0.42339058  0.59078623  1
  N  N60  1  0.21812473  0.87736313  0.38715840  1
  N  N61  1  0.10934716  0.75993703  0.08673829  1
  N  N62  1  0.88766253  0.87213558  0.83985571  1
  N  N63  1  0.77685549  0.76115379  0.59311990  1
  N  N64  1  0.56000827  0.87669410  0.34340917  1
  N  N65  1  0.44237181  0.76039432  0.15102858  1
  N  N66  1  0.25646275  0.85572564  0.88125950  1
  N  N67  1  0.10654766  0.75668599  0.59196509  1
  N  N68  1  0.88688050  0.87438441  0.33966712  1
  N  N69  1  0.77767189  0.76084274  0.08891621  1
  N  N70  1  0.54228571  0.85869313  0.84592512  1
  N  N71  1  0.44349026  0.75987236  0.61283529  1
