# generated using pymatgen
data_Al17BN18
_symmetry_space_group_name_H-M   'P 1'
_cell_length_a   9.32860804
_cell_length_b   9.32760723
_cell_length_c   10.02832165
_cell_angle_alpha   89.74811662
_cell_angle_beta   89.83837855
_cell_angle_gamma   60.08850831
_symmetry_Int_Tables_number   1
_chemical_formula_structural   Al17BN18
_chemical_formula_sum   'Al34 B2 N36'
_cell_volume   756.35958485
_cell_formula_units_Z   2
loop_
 _symmetry_equiv_pos_site_id
 _symmetry_equiv_pos_as_xyz
  1  'x, y, z'
loop_
 _atom_site_type_symbol
 _atom_site_label
 _atom_site_symmetry_multiplicity
 _atom_site_fract_x
 _atom_site_fract_y
 _atom_site_fract_z
 _atom_site_occupancy
  Al  Al0  1  0.11042375  0.09309904  0.33478766  1
  Al  Al1  1  0.22645005  0.20739940  0.06043837  1
  Al  Al2  1  0.78074943  0.09731350  0.80853210  1
  Al  Al3  1  0.44601737  0.09290583  0.30947905  1
  Al  Al4  1  0.55596064  0.20468281  0.05503178  1
  Al  Al5  1  0.11306995  0.09197806  0.86171837  1
  Al  Al6  1  0.21557921  0.20822514  0.56044268  1
  Al  Al7  1  0.77482206  0.09138311  0.30355304  1
  Al  Al8  1  0.88713524  0.20799709  0.10304990  1
  Al  Al9  1  0.44365072  0.09024755  0.80686801  1
  Al  Al10  1  0.55977696  0.20795536  0.55907433  1
  Al  Al11  1  0.11029508  0.42826151  0.30942848  1
  Al  Al12  1  0.22180805  0.53879258  0.05930595  1
  Al  Al13  1  0.77537053  0.42975254  0.87287334  1
  Al  Al14  1  0.89373509  0.53545105  0.56326830  1
  Al  Al15  1  0.44576454  0.42825147  0.30937599  1
  Al  Al16  1  0.54501949  0.54823765  0.05658027  1
  Al  Al17  1  0.11249442  0.42865588  0.80786452  1
  Al  Al18  1  0.22270375  0.53906120  0.55741707  1
  Al  Al19  1  0.78126489  0.41752490  0.37161661  1
  Al  Al20  1  0.89059211  0.54362223  0.05964224  1
  Al  Al21  1  0.44210739  0.43300439  0.80858845  1
  Al  Al22  1  0.55425486  0.53731525  0.57106955  1
  Al  Al23  1  0.11140544  0.76148084  0.30905114  1
  Al  Al24  1  0.23069819  0.86298160  0.05711717  1
  Al  Al25  1  0.77324167  0.76102746  0.80705516  1
  Al  Al26  1  0.89138777  0.87695212  0.55870015  1
  Al  Al27  1  0.44585970  0.75977492  0.31210647  1
  Al  Al28  1  0.55301523  0.86958824  0.05552950  1
  Al  Al29  1  0.11607101  0.75923423  0.80824038  1
  Al  Al30  1  0.21709743  0.87582703  0.56771287  1
  Al  Al31  1  0.77643044  0.76102818  0.30974366  1
  Al  Al32  1  0.88786535  0.87280399  0.05506902  1
  Al  Al33  1  0.55377213  0.87153015  0.56394102  1
  B  B34  1  0.89210034  0.20426892  0.59814525  1
  B  B35  1  0.44336394  0.76056739  0.80520992  1
  N  N36  1  0.22412821  0.20626172  0.36847384  1
  N  N37  1  0.11860799  0.08814836  0.08937377  1
  N  N38  1  0.88848088  0.20390171  0.86324931  1
  N  N39  1  0.79224785  0.10862288  0.61306281  1
  N  N40  1  0.55638383  0.20557746  0.36935579  1
  N  N41  1  0.44696446  0.09211237  0.11796251  1
  N  N42  1  0.22566789  0.20920981  0.86818848  1
  N  N43  1  0.07802211  0.11053522  0.58977606  1
  N  N44  1  0.88812765  0.20814457  0.30618981  1
  N  N45  1  0.77237695  0.08914512  0.11427236  1
  N  N46  1  0.55574310  0.20544247  0.86418303  1
  N  N47  1  0.44373041  0.09534021  0.61731141  1
  N  N48  1  0.22257382  0.53866972  0.36756073  1
  N  N49  1  0.11079046  0.42811430  0.12031133  1
  N  N50  1  0.89334976  0.54285404  0.86555178  1
  N  N51  1  0.79494318  0.39295942  0.57756913  1
  N  N52  1  0.55042754  0.54221342  0.37696248  1
  N  N53  1  0.44466064  0.42759680  0.11761148  1
  N  N54  1  0.22228823  0.53906241  0.87006327  1
  N  N55  1  0.11319936  0.42782992  0.61914894  1
  N  N56  1  0.89011386  0.54069361  0.37094072  1
  N  N57  1  0.77111065  0.43489388  0.07277656  1
  N  N58  1  0.53782146  0.56716236  0.85831412  1
  N  N59  1  0.44225449  0.42715133  0.62031979  1
  N  N60  1  0.22555322  0.86776606  0.37416322  1
  N  N61  1  0.11077381  0.76136693  0.11743579  1
  N  N62  1  0.88876776  0.87255674  0.86427583  1
  N  N63  1  0.77773965  0.76237877  0.61774091  1
  N  N64  1  0.55483264  0.87135617  0.37286334  1
  N  N65  1  0.44455999  0.76104634  0.12451650  1
  N  N66  1  0.24909741  0.85612024  0.86068105  1
  N  N67  1  0.11113678  0.75916509  0.61945816  1
  N  N68  1  0.88895324  0.87254082  0.36900407  1
  N  N69  1  0.77554459  0.76330681  0.11804802  1
  N  N70  1  0.54291512  0.85991731  0.86181888  1
  N  N71  1  0.44308325  0.76251756  0.63977047  1
