# generated using pymatgen
data_Al17BN18
_symmetry_space_group_name_H-M   'P 1'
_cell_length_a   9.32316780
_cell_length_b   9.33056877
_cell_length_c   10.05379374
_cell_angle_alpha   90.01310394
_cell_angle_beta   90.02909349
_cell_angle_gamma   60.17874794
_symmetry_Int_Tables_number   1
_chemical_formula_structural   Al17BN18
_chemical_formula_sum   'Al34 B2 N36'
_cell_volume   758.77252194
_cell_formula_units_Z   2
loop_
 _symmetry_equiv_pos_site_id
 _symmetry_equiv_pos_as_xyz
  1  'x, y, z'
loop_
 _atom_site_type_symbol
 _atom_site_label
 _atom_site_symmetry_multiplicity
 _atom_site_fract_x
 _atom_site_fract_y
 _atom_site_fract_z
 _atom_site_occupancy
  Al  Al0  1  0.09840782  0.09754011  0.38385367  1
  Al  Al1  1  0.22440960  0.20610801  0.05489833  1
  Al  Al2  1  0.77782272  0.09497449  0.80224044  1
  Al  Al3  1  0.44166092  0.09329400  0.30882321  1
  Al  Al4  1  0.55593846  0.20483764  0.05703931  1
  Al  Al5  1  0.11327551  0.09251610  0.86064760  1
  Al  Al6  1  0.22140016  0.20953903  0.56377986  1
  Al  Al7  1  0.77315389  0.09124979  0.30745299  1
  Al  Al8  1  0.89171121  0.20653156  0.12402544  1
  Al  Al9  1  0.44605462  0.09031183  0.80606022  1
  Al  Al10  1  0.56080377  0.20717944  0.55742635  1
  Al  Al11  1  0.11321499  0.42429558  0.31069068  1
  Al  Al12  1  0.22225344  0.53841853  0.05990724  1
  Al  Al13  1  0.77801388  0.43063196  0.86449099  1
  Al  Al14  1  0.88846235  0.53411081  0.61613610  1
  Al  Al15  1  0.44661921  0.42881214  0.30926931  1
  Al  Al16  1  0.54633841  0.54633422  0.05213886  1
  Al  Al17  1  0.11846585  0.42739556  0.80820176  1
  Al  Al18  1  0.22276497  0.53959110  0.55521419  1
  Al  Al19  1  0.78445736  0.41874586  0.38543148  1
  Al  Al20  1  0.88546785  0.53665427  0.10341975  1
  Al  Al21  1  0.44278162  0.43329915  0.80782507  1
  Al  Al22  1  0.55341426  0.53844717  0.57145670  1
  Al  Al23  1  0.11208763  0.76185315  0.30898927  1
  Al  Al24  1  0.22905402  0.86343274  0.05250133  1
  Al  Al25  1  0.77049203  0.76775459  0.80850000  1
  Al  Al26  1  0.89040830  0.87749462  0.55689970  1
  Al  Al27  1  0.44395558  0.75998285  0.31226723  1
  Al  Al28  1  0.55113395  0.87031792  0.05435647  1
  Al  Al29  1  0.11662579  0.75830907  0.80760118  1
  Al  Al30  1  0.22170237  0.87039341  0.57280820  1
  Al  Al31  1  0.77389979  0.76328112  0.31061153  1
  Al  Al32  1  0.88843945  0.87323975  0.05644790  1
  Al  Al33  1  0.55409102  0.87237676  0.56227675  1
  B  B34  1  0.89302023  0.20814881  0.63666016  1
  B  B35  1  0.44386244  0.76020554  0.80336637  1
  N  N36  1  0.22303816  0.20505604  0.37151064  1
  N  N37  1  0.10470170  0.09300083  0.05756854  1
  N  N38  1  0.89427758  0.21176288  0.79739131  1
  N  N39  1  0.78765293  0.10419029  0.61182339  1
  N  N40  1  0.55369177  0.20606274  0.36770121  1
  N  N41  1  0.44367522  0.09244745  0.11711235  1
  N  N42  1  0.22857204  0.20900884  0.86357993  1
  N  N43  1  0.08265958  0.10879144  0.58180089  1
  N  N44  1  0.88940320  0.20802367  0.31291739  1
  N  N45  1  0.77382676  0.09096742  0.11600190  1
  N  N46  1  0.55808656  0.20656297  0.86661182  1
  N  N47  1  0.44681931  0.09481128  0.61780921  1
  N  N48  1  0.22282032  0.53867380  0.36611758  1
  N  N49  1  0.11506320  0.42364909  0.11783235  1
  N  N50  1  0.89025195  0.54111357  0.82814384  1
  N  N51  1  0.79296198  0.39881884  0.57999456  1
  N  N52  1  0.55131567  0.54206455  0.37792433  1
  N  N53  1  0.44597587  0.42792686  0.11764686  1
  N  N54  1  0.22361660  0.53992036  0.87140640  1
  N  N55  1  0.11769365  0.42752622  0.61781143  1
  N  N56  1  0.88606040  0.53719546  0.33639579  1
  N  N57  1  0.77840236  0.42168614  0.05683836  1
  N  N58  1  0.53868934  0.56735286  0.85698912  1
  N  N59  1  0.44244336  0.42702427  0.62007052  1
  N  N60  1  0.22540906  0.86685827  0.37757424  1
  N  N61  1  0.11135185  0.76145944  0.11756058  1
  N  N62  1  0.89036281  0.87524411  0.86672603  1
  N  N63  1  0.77526388  0.76843159  0.61666817  1
  N  N64  1  0.55300169  0.87247378  0.37198927  1
  N  N65  1  0.44381062  0.76006975  0.12316787  1
  N  N66  1  0.25094050  0.85463670  0.85593355  1
  N  N67  1  0.11023191  0.75853428  0.61990600  1
  N  N68  1  0.88938397  0.87175004  0.36758945  1
  N  N69  1  0.77274324  0.76586251  0.11480951  1
  N  N70  1  0.54245082  0.86159752  0.86212995  1
  N  N71  1  0.44600988  0.76169999  0.64001736  1
