# generated using pymatgen
data_Al17BN18
_symmetry_space_group_name_H-M   'P 1'
_cell_length_a   9.29605553
_cell_length_b   9.29739087
_cell_length_c   9.96525866
_cell_angle_alpha   90.02374685
_cell_angle_beta   89.90836005
_cell_angle_gamma   60.00847371
_symmetry_Int_Tables_number   1
_chemical_formula_structural   Al17BN18
_chemical_formula_sum   'Al34 B2 N36'
_cell_volume   745.95924564
_cell_formula_units_Z   2
loop_
 _symmetry_equiv_pos_site_id
 _symmetry_equiv_pos_as_xyz
  1  'x, y, z'
loop_
 _atom_site_type_symbol
 _atom_site_label
 _atom_site_symmetry_multiplicity
 _atom_site_fract_x
 _atom_site_fract_y
 _atom_site_fract_z
 _atom_site_occupancy
  Al  Al0  1  0.10580324  0.09688638  0.40197955  1
  Al  Al1  1  0.22158043  0.20401795  0.14759261  1
  Al  Al2  1  0.77880273  0.09578424  0.89298811  1
  Al  Al3  1  0.44497148  0.09379548  0.39855306  1
  Al  Al4  1  0.55687929  0.20497472  0.14738488  1
  Al  Al5  1  0.11466994  0.09096657  0.89096345  1
  Al  Al6  1  0.21678029  0.20746864  0.64831576  1
  Al  Al7  1  0.78063812  0.09727010  0.40176666  1
  Al  Al8  1  0.88924804  0.20567157  0.14547264  1
  Al  Al9  1  0.44233076  0.09045250  0.89794577  1
  Al  Al10  1  0.55938130  0.20698370  0.64896096  1
  Al  Al11  1  0.11094728  0.42776079  0.39737475  1
  Al  Al12  1  0.22256696  0.53919624  0.14800651  1
  Al  Al13  1  0.77418724  0.43159931  0.89163188  1
  Al  Al14  1  0.89051000  0.53370870  0.64850094  1
  Al  Al15  1  0.44513121  0.42780561  0.39834473  1
  Al  Al16  1  0.55601626  0.54033686  0.14453045  1
  Al  Al17  1  0.11077349  0.42781386  0.89950440  1
  Al  Al18  1  0.22186888  0.53866173  0.64859027  1
  Al  Al19  1  0.77987216  0.42255068  0.40253452  1
  Al  Al20  1  0.88731283  0.53826868  0.14802143  1
  Al  Al21  1  0.44268268  0.43371477  0.89844719  1
  Al  Al22  1  0.55604458  0.53918639  0.64833665  1
  Al  Al23  1  0.11114085  0.76179783  0.39788854  1
  Al  Al24  1  0.22415286  0.87247021  0.14415865  1
  Al  Al25  1  0.77352620  0.75931390  0.89802924  1
  Al  Al26  1  0.89023900  0.87628067  0.64890593  1
  Al  Al27  1  0.44492324  0.76105176  0.39325623  1
  Al  Al28  1  0.55439757  0.87090881  0.14493718  1
  Al  Al29  1  0.11699695  0.75965380  0.89792324  1
  Al  Al30  1  0.22255560  0.87284487  0.64690875  1
  Al  Al31  1  0.77713361  0.76180532  0.39869306  1
  Al  Al32  1  0.88855054  0.87348370  0.14706606  1
  Al  Al33  1  0.55284435  0.86962333  0.64894029  1
  B  B34  1  0.88824411  0.20531221  0.65232452  1
  B  B35  1  0.44399711  0.76102607  0.88749392  1
  N  N36  1  0.22154946  0.20397401  0.34024667  1
  N  N37  1  0.10977063  0.09469726  0.08250286  1
  N  N38  1  0.88875712  0.20582179  0.81777511  1
  N  N39  1  0.79033264  0.10704726  0.59589238  1
  N  N40  1  0.55768825  0.20446306  0.34036861  1
  N  N41  1  0.44453081  0.09440477  0.08841434  1
  N  N42  1  0.22181166  0.20677351  0.83774636  1
  N  N43  1  0.08657754  0.10576205  0.59703550  1
  N  N44  1  0.88920765  0.20592135  0.33472630  1
  N  N45  1  0.77870618  0.09522038  0.08456202  1
  N  N46  1  0.55432892  0.20624908  0.83918894  1
  N  N47  1  0.44486231  0.09373753  0.59080066  1
  N  N48  1  0.22261290  0.53905192  0.33881638  1
  N  N49  1  0.11086336  0.42751369  0.09033816  1
  N  N50  1  0.88986708  0.53867999  0.83792025  1
  N  N51  1  0.78874286  0.40339539  0.59755638  1
  N  N52  1  0.55840172  0.53698328  0.33805283  1
  N  N53  1  0.44504354  0.42756122  0.08860265  1
  N  N54  1  0.22179280  0.53845329  0.83887420  1
  N  N55  1  0.11125389  0.42800541  0.58761580  1
  N  N56  1  0.88715540  0.53815848  0.34068932  1
  N  N57  1  0.77842734  0.42607526  0.08295869  1
  N  N58  1  0.54152693  0.56595027  0.84153740  1
  N  N59  1  0.44448901  0.42846153  0.58972015  1
  N  N60  1  0.22081657  0.87488032  0.33807270  1
  N  N61  1  0.11139060  0.76143769  0.08825154  1
  N  N62  1  0.88947371  0.87117362  0.83912455  1
  N  N63  1  0.77714883  0.76164833  0.59093631  1
  N  N64  1  0.55615819  0.87259407  0.33677751  1
  N  N65  1  0.44459089  0.76067307  0.07876412  1
  N  N66  1  0.24915099  0.85837517  0.84058773  1
  N  N67  1  0.11179904  0.76097553  0.58926397  1
  N  N68  1  0.88794296  0.87426925  0.34008387  1
  N  N69  1  0.77808035  0.76091258  0.08848451  1
  N  N70  1  0.54177843  0.85863500  0.84276254  1
  N  N71  1  0.44460153  0.76035960  0.58228164  1
