# generated using pymatgen
data_Al17BN18
_symmetry_space_group_name_H-M   'P 1'
_cell_length_a   9.30435894
_cell_length_b   9.30435847
_cell_length_c   10.14015416
_cell_angle_alpha   90.04878163
_cell_angle_beta   90.04880345
_cell_angle_gamma   60.17779576
_symmetry_Int_Tables_number   1
_chemical_formula_structural   Al17BN18
_chemical_formula_sum   'Al34 B2 N36'
_cell_volume   761.59338220
_cell_formula_units_Z   2
loop_
 _symmetry_equiv_pos_site_id
 _symmetry_equiv_pos_as_xyz
  1  'x, y, z'
loop_
 _atom_site_type_symbol
 _atom_site_label
 _atom_site_symmetry_multiplicity
 _atom_site_fract_x
 _atom_site_fract_y
 _atom_site_fract_z
 _atom_site_occupancy
  Al  Al0  1  0.10331378  0.10255488  0.39960788  1
  Al  Al1  1  0.22074049  0.20298641  0.14308440  1
  Al  Al2  1  0.77832548  0.09498830  0.88934486  1
  Al  Al3  1  0.44522256  0.09448566  0.39553436  1
  Al  Al4  1  0.55963036  0.20113569  0.14267226  1
  Al  Al5  1  0.11120182  0.09565633  0.88035026  1
  Al  Al6  1  0.21618062  0.20816835  0.64420579  1
  Al  Al7  1  0.78030034  0.09696266  0.39789072  1
  Al  Al8  1  0.88951376  0.20617726  0.13945097  1
  Al  Al9  1  0.44298537  0.08953731  0.89458992  1
  Al  Al10  1  0.56167519  0.19962363  0.64484904  1
  Al  Al11  1  0.10835808  0.42502081  0.38951878  1
  Al  Al12  1  0.22535278  0.54201487  0.07730739  1
  Al  Al13  1  0.77899564  0.42786339  0.88035032  1
  Al  Al14  1  0.89150527  0.53284390  0.64420572  1
  Al  Al15  1  0.44572095  0.43468147  0.32537829  1
  Al  Al16  1  0.54899036  0.54856501  0.06652714  1
  Al  Al17  1  0.10794063  0.42460370  0.89587812  1
  Al  Al18  1  0.22431431  0.54097747  0.57199294  1
  Al  Al19  1  0.78589390  0.41997565  0.39960808  1
  Al  Al20  1  0.88632375  0.53740486  0.14308478  1
  Al  Al21  1  0.43932520  0.43735342  0.82423074  1
  Al  Al22  1  0.55447205  0.53585054  0.58487304  1
  Al  Al23  1  0.11801974  0.76238296  0.32537778  1
  Al  Al24  1  0.23190271  0.86565111  0.06652700  1
  Al  Al25  1  0.77287377  0.75964864  0.89459027  1
  Al  Al26  1  0.88295800  0.87833959  0.64484919  1
  Al  Al27  1  0.44303077  0.75969283  0.32797142  1
  Al  Al28  1  0.55901940  0.87568415  0.14467854  1
  Al  Al29  1  0.12068963  0.75598763  0.82423036  1
  Al  Al30  1  0.21918696  0.87113405  0.58487332  1
  Al  Al31  1  0.77782223  0.76188653  0.39553416  1
  Al  Al32  1  0.88447133  0.87629493  0.14267256  1
  Al  Al33  1  0.55501518  0.87167853  0.65004241  1
  B  B34  1  0.88954394  0.20620673  0.64704413  1
  B  B35  1  0.44127290  0.75793557  0.81632783  1
  N  N36  1  0.22237241  0.20246888  0.33275183  1
  N  N37  1  0.10733627  0.09835129  0.07298598  1
  N  N38  1  0.88781147  0.20447356  0.81035468  1
  N  N39  1  0.78942381  0.10608790  0.58885427  1
  N  N40  1  0.55974487  0.20158009  0.33590262  1
  N  N41  1  0.44330454  0.09543165  0.08284610  1
  N  N42  1  0.22305669  0.20716082  0.83052731  1
  N  N43  1  0.08266936  0.11065767  0.59363474  1
  N  N44  1  0.88922084  0.20588314  0.32762478  1
  N  N45  1  0.77879499  0.09545932  0.07836236  1
  N  N46  1  0.55665554  0.20013917  0.83552020  1
  N  N47  1  0.44299444  0.09204450  0.58440830  1
  N  N48  1  0.22529545  0.54195772  0.38209807  1
  N  N49  1  0.10825597  0.42491895  0.08714081  1
  N  N50  1  0.89049794  0.53972020  0.83052722  1
  N  N51  1  0.79399543  0.39933218  0.59363493  1
  N  N52  1  0.55355138  0.54351589  0.39481947  1
  N  N53  1  0.44618427  0.43404226  0.13419573  1
  N  N54  1  0.22414008  0.54080269  0.88816106  1
  N  N55  1  0.10804375  0.42470688  0.57994978  1
  N  N56  1  0.88580606  0.53903604  0.33275204  1
  N  N57  1  0.78168995  0.42399933  0.07298604  1
  N  N58  1  0.53968273  0.56713318  0.87386057  1
  N  N59  1  0.43974435  0.43007973  0.63597534  1
  N  N60  1  0.22685395  0.87021280  0.39481962  1
  N  N61  1  0.11737851  0.76284677  0.13419538  1
  N  N62  1  0.88347547  0.87331869  0.83552031  1
  N  N63  1  0.77538056  0.75965782  0.58440809  1
  N  N64  1  0.55941077  0.87607438  0.33530643  1
  N  N65  1  0.44285556  0.75951813  0.13944751  1
  N  N66  1  0.25047063  0.85634414  0.87386039  1
  N  N67  1  0.11341454  0.75640786  0.63597508  1
  N  N68  1  0.88491802  0.87640756  0.33590270  1
  N  N69  1  0.77876733  0.75996900  0.08284645  1
  N  N70  1  0.54542916  0.86209259  0.83927916  1
  N  N71  1  0.43840887  0.75507219  0.65453824  1
