# generated using pymatgen
data_Al17BN18
_symmetry_space_group_name_H-M   'P 1'
_cell_length_a   9.29964248
_cell_length_b   9.29964259
_cell_length_c   9.93924586
_cell_angle_alpha   89.99396913
_cell_angle_beta   89.99395845
_cell_angle_gamma   60.00211372
_symmetry_Int_Tables_number   1
_chemical_formula_structural   Al17BN18
_chemical_formula_sum   'Al34 B2 N36'
_cell_volume   744.43335273
_cell_formula_units_Z   2
loop_
 _symmetry_equiv_pos_site_id
 _symmetry_equiv_pos_as_xyz
  1  'x, y, z'
loop_
 _atom_site_type_symbol
 _atom_site_label
 _atom_site_symmetry_multiplicity
 _atom_site_fract_x
 _atom_site_fract_y
 _atom_site_fract_z
 _atom_site_occupancy
  Al  Al0  1  0.10661741  0.09534250  0.40815199  1
  Al  Al1  1  0.22118711  0.20464567  0.15443009  1
  Al  Al2  1  0.77898181  0.09564608  0.89861895  1
  Al  Al3  1  0.44526190  0.09241888  0.40406980  1
  Al  Al4  1  0.55693807  0.20495246  0.15392014  1
  Al  Al5  1  0.11400643  0.09194833  0.89788040  1
  Al  Al6  1  0.21711449  0.20693643  0.65416094  1
  Al  Al7  1  0.78057028  0.09723503  0.40851541  1
  Al  Al8  1  0.88900046  0.20566567  0.15233707  1
  Al  Al9  1  0.44260567  0.09134588  0.90418692  1
  Al  Al10  1  0.55921857  0.20715374  0.65438512  1
  Al  Al11  1  0.11093026  0.42759496  0.40406193  1
  Al  Al12  1  0.22220973  0.53887473  0.15467030  1
  Al  Al13  1  0.77528295  0.43067150  0.89788035  1
  Al  Al14  1  0.89027090  0.53377984  0.65416091  1
  Al  Al15  1  0.44543279  0.42864507  0.40375494  1
  Al  Al16  1  0.55597283  0.54045125  0.14720236  1
  Al  Al17  1  0.11111946  0.42778378  0.90501489  1
  Al  Al18  1  0.22230769  0.53897350  0.65429150  1
  Al  Al19  1  0.77867730  0.42328309  0.40815190  1
  Al  Al20  1  0.88798080  0.53785247  0.15443019  1
  Al  Al21  1  0.44293930  0.43293307  0.90462670  1
  Al  Al22  1  0.55591336  0.53966842  0.65831839  1
  Al  Al23  1  0.11197979  0.76209823  0.40375502  1
  Al  Al24  1  0.22378719  0.87263683  0.14720213  1
  Al  Al25  1  0.77468066  0.75927040  0.90418677  1
  Al  Al26  1  0.89048748  0.87588489  0.65438501  1
  Al  Al27  1  0.44448196  0.76114780  0.40222577  1
  Al  Al28  1  0.55425218  0.87091657  0.14755937  1
  Al  Al29  1  0.11626747  0.75960453  0.90462669  1
  Al  Al30  1  0.22300398  0.87257779  0.65831868  1
  Al  Al31  1  0.77575281  0.76192797  0.40406988  1
  Al  Al32  1  0.88828751  0.87360310  0.15392017  1
  Al  Al33  1  0.55277591  0.86944115  0.65903334  1
  B  B34  1  0.88831743  0.20498234  0.65867420  1
  B  B35  1  0.44439154  0.76105636  0.90739950  1
  N  N36  1  0.22130415  0.20382962  0.34718461  1
  N  N37  1  0.10923971  0.09578332  0.08956337  1
  N  N38  1  0.88902442  0.20568930  0.82415677  1
  N  N39  1  0.79035065  0.10701643  0.60251525  1
  N  N40  1  0.55758538  0.20439336  0.34712033  1
  N  N41  1  0.44373516  0.09533659  0.09507341  1
  N  N42  1  0.22199728  0.20669658  0.84403686  1
  N  N43  1  0.08718832  0.10458216  0.60383203  1
  N  N44  1  0.88910951  0.20577498  0.34171705  1
  N  N45  1  0.77857858  0.09524344  0.09085348  1
  N  N46  1  0.55444438  0.20636484  0.84511004  1
  N  N47  1  0.44542315  0.09263067  0.59700027  1
  N  N48  1  0.22237047  0.53903574  0.34562249  1
  N  N49  1  0.11086758  0.42753238  0.09647544  1
  N  N50  1  0.89003187  0.53866186  0.84403690  1
  N  N51  1  0.78791738  0.40385318  0.60383194  1
  N  N52  1  0.55702563  0.53945068  0.34135541  1
  N  N53  1  0.44432767  0.42755586  0.09521350  1
  N  N54  1  0.22196733  0.53863241  0.84503151  1
  N  N55  1  0.11140037  0.42806575  0.59431850  1
  N  N56  1  0.88716453  0.53796975  0.34718475  1
  N  N57  1  0.77911885  0.42590460  0.08956327  1
  N  N58  1  0.54275785  0.56401761  0.85143107  1
  N  N59  1  0.44511155  0.42925964  0.59580733  1
  N  N60  1  0.22278526  0.87369087  0.34135529  1
  N  N61  1  0.11089091  0.76099250  0.09521347  1
  N  N62  1  0.88969960  0.87110914  0.84510986  1
  N  N63  1  0.77596525  0.76208858  0.59700027  1
  N  N64  1  0.55464952  0.87131523  0.34003603  1
  N  N65  1  0.44425335  0.76091748  0.07355686  1
  N  N66  1  0.24735258  0.85942283  0.85143133  1
  N  N67  1  0.11259388  0.76177729  0.59580746  1
  N  N68  1  0.88772823  0.87425044  0.34712030  1
  N  N69  1  0.77867192  0.76040009  0.09507323  1
  N  N70  1  0.54301997  0.85968501  0.85269149  1
  N  N71  1  0.44410890  0.76077359  0.59159542  1
