# generated using pymatgen
data_Al17BN18
_symmetry_space_group_name_H-M   'P 1'
_cell_length_a   9.29736982
_cell_length_b   9.29660895
_cell_length_c   9.95113456
_cell_angle_alpha   89.92846531
_cell_angle_beta   90.01576678
_cell_angle_gamma   60.01211860
_symmetry_Int_Tables_number   1
_chemical_formula_structural   Al17BN18
_chemical_formula_sum   'Al34 B2 N36'
_cell_volume   744.97268287
_cell_formula_units_Z   2
loop_
 _symmetry_equiv_pos_site_id
 _symmetry_equiv_pos_as_xyz
  1  'x, y, z'
loop_
 _atom_site_type_symbol
 _atom_site_label
 _atom_site_symmetry_multiplicity
 _atom_site_fract_x
 _atom_site_fract_y
 _atom_site_fract_z
 _atom_site_occupancy
  Al  Al0  1  0.10950167  0.09401339  0.31557259  1
  Al  Al1  1  0.22166974  0.20471783  0.05994107  1
  Al  Al2  1  0.78046012  0.09726542  0.80657320  1
  Al  Al3  1  0.44499960  0.09304989  0.31030396  1
  Al  Al4  1  0.55687433  0.20487478  0.05969293  1
  Al  Al5  1  0.11042056  0.09411755  0.80723141  1
  Al  Al6  1  0.21664902  0.20713593  0.55945098  1
  Al  Al7  1  0.77908450  0.09568127  0.31517472  1
  Al  Al8  1  0.88884948  0.20527899  0.06269811  1
  Al  Al9  1  0.44288070  0.09072251  0.80920902  1
  Al  Al10  1  0.55914772  0.20747021  0.55991771  1
  Al  Al11  1  0.11094127  0.42760993  0.30961609  1
  Al  Al12  1  0.22226372  0.53903683  0.06020461  1
  Al  Al13  1  0.77730759  0.42713967  0.80783676  1
  Al  Al14  1  0.89022548  0.53340269  0.55972798  1
  Al  Al15  1  0.44557852  0.42861075  0.30995441  1
  Al  Al16  1  0.55390693  0.54365608  0.05593987  1
  Al  Al17  1  0.11111254  0.42794263  0.80945827  1
  Al  Al18  1  0.22215356  0.53909584  0.55867107  1
  Al  Al19  1  0.77742699  0.42594536  0.31577927  1
  Al  Al20  1  0.88800179  0.53832995  0.06017563  1
  Al  Al21  1  0.44275260  0.43307006  0.80966761  1
  Al  Al22  1  0.55857691  0.53572036  0.56658838  1
  Al  Al23  1  0.11191666  0.76227126  0.30971167  1
  Al  Al24  1  0.22695553  0.87073168  0.05565221  1
  Al  Al25  1  0.77384203  0.75965199  0.80925140  1
  Al  Al26  1  0.89055406  0.87598562  0.55987883  1
  Al  Al27  1  0.44428467  0.76082145  0.31203967  1
  Al  Al28  1  0.55269001  0.86936298  0.05577963  1
  Al  Al29  1  0.11617438  0.75965911  0.80955411  1
  Al  Al30  1  0.21885884  0.87535596  0.56624405  1
  Al  Al31  1  0.77641610  0.76152776  0.31047691  1
  Al  Al32  1  0.88808435  0.87355329  0.05960739  1
  Al  Al33  1  0.55421588  0.87113546  0.56515011  1
  B  B34  1  0.88897255  0.20568643  0.56026067  1
  B  B35  1  0.44482779  0.76173811  0.80547001  1
  N  N36  1  0.22239065  0.20531452  0.36901083  1
  N  N37  1  0.11134150  0.09244104  0.12167874  1
  N  N38  1  0.88939528  0.20567650  0.87383456  1
  N  N39  1  0.79067277  0.10742630  0.61295668  1
  N  N40  1  0.55511302  0.20585716  0.36917035  1
  N  N41  1  0.44553583  0.09228900  0.11722954  1
  N  N42  1  0.22108447  0.20517096  0.86822285  1
  N  N43  1  0.08528508  0.10770310  0.61418336  1
  N  N44  1  0.88916494  0.20555794  0.38839054  1
  N  N45  1  0.77821714  0.09473237  0.12295507  1
  N  N46  1  0.55685377  0.20482090  0.86710248  1
  N  N47  1  0.44366189  0.09563379  0.61873919  1
  N  N48  1  0.22245640  0.53908923  0.36751902  1
  N  N49  1  0.11090928  0.42746543  0.11875253  1
  N  N50  1  0.88853561  0.53775784  0.86845504  1
  N  N51  1  0.79092913  0.40202759  0.61464550  1
  N  N52  1  0.55472204  0.54041467  0.37490935  1
  N  N53  1  0.44603666  0.42851768  0.11727634  1
  N  N54  1  0.22192379  0.53868695  0.86997286  1
  N  N55  1  0.11141791  0.42812921  0.61895359  1
  N  N56  1  0.88881792  0.53876365  0.36920833  1
  N  N57  1  0.77589749  0.42770526  0.12175123  1
  N  N58  1  0.54488796  0.56304992  0.86057833  1
  N  N59  1  0.44324076  0.42809822  0.62001788  1
  N  N60  1  0.22395813  0.87116037  0.37465628  1
  N  N61  1  0.11188242  0.76276948  0.11703220  1
  N  N62  1  0.88803843  0.87351328  0.86701973  1
  N  N63  1  0.77881247  0.76041050  0.61878647  1
  N  N64  1  0.55473793  0.87129124  0.37323519  1
  N  N65  1  0.44411872  0.76075512  0.12272907  1
  N  N66  1  0.24627235  0.86174578  0.86031612  1
  N  N67  1  0.11127788  0.76007127  0.61991380  1
  N  N68  1  0.88936615  0.87157002  0.36913342  1
  N  N69  1  0.77568178  0.76208797  0.11737438  1
  N  N70  1  0.54292166  0.85966726  0.86174288  1
  N  N71  1  0.44418907  0.76112404  0.64001698  1
