# generated using pymatgen
data_Al17BN18
_symmetry_space_group_name_H-M   'P 1'
_cell_length_a   9.31568911
_cell_length_b   9.32206198
_cell_length_c   10.11111177
_cell_angle_alpha   90.05691538
_cell_angle_beta   90.08958739
_cell_angle_gamma   60.15116504
_symmetry_Int_Tables_number   1
_chemical_formula_structural   Al17BN18
_chemical_formula_sum   'Al34 B2 N36'
_cell_volume   761.57993281
_cell_formula_units_Z   2
loop_
 _symmetry_equiv_pos_site_id
 _symmetry_equiv_pos_as_xyz
  1  'x, y, z'
loop_
 _atom_site_type_symbol
 _atom_site_label
 _atom_site_symmetry_multiplicity
 _atom_site_fract_x
 _atom_site_fract_y
 _atom_site_fract_z
 _atom_site_occupancy
  Al  Al0  1  0.10337929  0.10218342  0.39195367  1
  Al  Al1  1  0.22137437  0.20255009  0.13608377  1
  Al  Al2  1  0.77699960  0.09795961  0.87823732  1
  Al  Al3  1  0.44561897  0.09427444  0.38818352  1
  Al  Al4  1  0.56042712  0.20072417  0.13621053  1
  Al  Al5  1  0.11154530  0.09536463  0.87283011  1
  Al  Al6  1  0.21602758  0.20825390  0.63662449  1
  Al  Al7  1  0.78019978  0.09786200  0.39135688  1
  Al  Al8  1  0.89000414  0.20635303  0.13242874  1
  Al  Al9  1  0.44291179  0.08964007  0.88755191  1
  Al  Al10  1  0.56031001  0.20067118  0.63733837  1
  Al  Al11  1  0.10847518  0.42524002  0.38170983  1
  Al  Al12  1  0.22692202  0.54036822  0.07053153  1
  Al  Al13  1  0.77907166  0.42782638  0.87354007  1
  Al  Al14  1  0.89179656  0.53166000  0.63710578  1
  Al  Al15  1  0.44541293  0.43513789  0.31852191  1
  Al  Al16  1  0.54958282  0.54832242  0.05973833  1
  Al  Al17  1  0.10845366  0.42430072  0.88865793  1
  Al  Al18  1  0.22420287  0.54121808  0.56392447  1
  Al  Al19  1  0.78574971  0.42013109  0.39226125  1
  Al  Al20  1  0.88685381  0.53681639  0.13626368  1
  Al  Al21  1  0.43879991  0.43795512  0.81695595  1
  Al  Al22  1  0.55440148  0.53606874  0.57773406  1
  Al  Al23  1  0.11304210  0.76481661  0.31820999  1
  Al  Al24  1  0.23338169  0.86555985  0.05926684  1
  Al  Al25  1  0.77119957  0.75798081  0.88416026  1
  Al  Al26  1  0.88472991  0.87747161  0.62627424  1
  Al  Al27  1  0.44256485  0.75974742  0.32110021  1
  Al  Al28  1  0.55973352  0.87546997  0.13828816  1
  Al  Al29  1  0.11996570  0.75603273  0.81698654  1
  Al  Al30  1  0.21892888  0.87120267  0.57702556  1
  Al  Al31  1  0.77771520  0.76141938  0.38944379  1
  Al  Al32  1  0.88935968  0.87369655  0.10730938  1
  Al  Al33  1  0.55348271  0.87201531  0.64291605  1
  B  B34  1  0.88871972  0.20728889  0.64026615  1
  B  B35  1  0.44019329  0.75816102  0.80895920  1
  N  N36  1  0.22249386  0.20235360  0.32588703  1
  N  N37  1  0.10791794  0.09784413  0.06611888  1
  N  N38  1  0.88820678  0.20555271  0.80315409  1
  N  N39  1  0.78796044  0.10931583  0.58389085  1
  N  N40  1  0.55962040  0.20206839  0.32926293  1
  N  N41  1  0.44423048  0.09504567  0.07626539  1
  N  N42  1  0.22310155  0.20700475  0.82359732  1
  N  N43  1  0.08261264  0.11059837  0.58647617  1
  N  N44  1  0.88900689  0.20634181  0.32050524  1
  N  N45  1  0.77772916  0.09880028  0.06874310  1
  N  N46  1  0.55516776  0.20100706  0.82787779  1
  N  N47  1  0.44293992  0.09208792  0.57735558  1
  N  N48  1  0.22479827  0.54251315  0.37347105  1
  N  N49  1  0.10887306  0.42459880  0.08050945  1
  N  N50  1  0.89119632  0.53817943  0.82346075  1
  N  N51  1  0.79382854  0.39955456  0.58655181  1
  N  N52  1  0.55361031  0.54359699  0.38738371  1
  N  N53  1  0.44716199  0.43357974  0.12689996  1
  N  N54  1  0.22416499  0.54064290  0.88099825  1
  N  N55  1  0.10823582  0.42492587  0.57277070  1
  N  N56  1  0.88561039  0.53895446  0.32585169  1
  N  N57  1  0.78209402  0.42393888  0.06627613  1
  N  N58  1  0.53972529  0.56708638  0.86656427  1
  N  N59  1  0.43926012  0.43077964  0.62821386  1
  N  N60  1  0.22633854  0.87013735  0.38649422  1
  N  N61  1  0.11747205  0.76268664  0.12568651  1
  N  N62  1  0.88565164  0.87233828  0.83602978  1
  N  N63  1  0.77362625  0.75793934  0.57992718  1
  N  N64  1  0.55937656  0.87570711  0.32878880  1
  N  N65  1  0.44366491  0.75922424  0.13218530  1
  N  N66  1  0.25030774  0.85609438  0.86651761  1
  N  N67  1  0.11385144  0.75611966  0.62923339  1
  N  N68  1  0.88753595  0.87513849  0.34579063  1
  N  N69  1  0.77786177  0.75801384  0.07372996  1
  N  N70  1  0.54380302  0.86266398  0.83219503  1
  N  N71  1  0.43756429  0.75516413  0.64701873  1
