# generated using pymatgen
data_Al17BN18
_symmetry_space_group_name_H-M   'P 1'
_cell_length_a   9.32815629
_cell_length_b   9.32647835
_cell_length_c   10.02408014
_cell_angle_alpha   89.74676241
_cell_angle_beta   89.85344653
_cell_angle_gamma   60.08454935
_symmetry_Int_Tables_number   1
_chemical_formula_structural   Al17BN18
_chemical_formula_sum   'Al34 B2 N36'
_cell_volume   755.88157976
_cell_formula_units_Z   2
loop_
 _symmetry_equiv_pos_site_id
 _symmetry_equiv_pos_as_xyz
  1  'x, y, z'
loop_
 _atom_site_type_symbol
 _atom_site_label
 _atom_site_symmetry_multiplicity
 _atom_site_fract_x
 _atom_site_fract_y
 _atom_site_fract_z
 _atom_site_occupancy
  Al  Al0  1  0.11244240  0.09214578  0.32463163  1
  Al  Al1  1  0.22614995  0.20708411  0.06035885  1
  Al  Al2  1  0.78074092  0.09725899  0.80892590  1
  Al  Al3  1  0.44595732  0.09299823  0.30960656  1
  Al  Al4  1  0.55585169  0.20467808  0.05516820  1
  Al  Al5  1  0.11300919  0.09202727  0.85371002  1
  Al  Al6  1  0.21515802  0.20787259  0.56006743  1
  Al  Al7  1  0.77494282  0.09150842  0.30365551  1
  Al  Al8  1  0.88676780  0.20798406  0.10169182  1
  Al  Al9  1  0.44368195  0.09022777  0.80691566  1
  Al  Al10  1  0.55971945  0.20797806  0.55914447  1
  Al  Al11  1  0.11029903  0.42819259  0.30951769  1
  Al  Al12  1  0.22179031  0.53884785  0.05940978  1
  Al  Al13  1  0.77531574  0.42982960  0.87310477  1
  Al  Al14  1  0.89380845  0.53546043  0.56331339  1
  Al  Al15  1  0.44583243  0.42823490  0.30943656  1
  Al  Al16  1  0.54490196  0.54837586  0.05672071  1
  Al  Al17  1  0.11250518  0.42865390  0.80786818  1
  Al  Al18  1  0.22272051  0.53905049  0.55742135  1
  Al  Al19  1  0.78150884  0.41722707  0.37165751  1
  Al  Al20  1  0.89060770  0.54364731  0.05976202  1
  Al  Al21  1  0.44206817  0.43304735  0.80858608  1
  Al  Al22  1  0.55424849  0.53735728  0.57111042  1
  Al  Al23  1  0.11137470  0.76163201  0.30915381  1
  Al  Al24  1  0.23032647  0.86381094  0.05690788  1
  Al  Al25  1  0.77323418  0.76099269  0.80705202  1
  Al  Al26  1  0.89142787  0.87695181  0.55873366  1
  Al  Al27  1  0.44577855  0.75977347  0.31222947  1
  Al  Al28  1  0.55299931  0.86957926  0.05563391  1
  Al  Al29  1  0.11600903  0.75917518  0.80822725  1
  Al  Al30  1  0.21665402  0.87655737  0.56725201  1
  Al  Al31  1  0.77641144  0.76103361  0.30980830  1
  Al  Al32  1  0.88785762  0.87274747  0.05515454  1
  Al  Al33  1  0.55369500  0.87158605  0.56394437  1
  B  B34  1  0.89233189  0.20420533  0.59844377  1
  B  B35  1  0.44356810  0.76057333  0.80516082  1
  N  N36  1  0.22370228  0.20595373  0.36848911  1
  N  N37  1  0.11948672  0.08785508  0.09621264  1
  N  N38  1  0.88873395  0.20322252  0.86612627  1
  N  N39  1  0.79239898  0.10876788  0.61340481  1
  N  N40  1  0.55636545  0.20555405  0.36943023  1
  N  N41  1  0.44687375  0.09216140  0.11790951  1
  N  N42  1  0.22531040  0.20882429  0.86854283  1
  N  N43  1  0.07865768  0.11033855  0.59584415  1
  N  N44  1  0.88788535  0.20808396  0.30689435  1
  N  N45  1  0.77226605  0.08904163  0.11429801  1
  N  N46  1  0.55565515  0.20548498  0.86420579  1
  N  N47  1  0.44356624  0.09542075  0.61734601  1
  N  N48  1  0.22259790  0.53868759  0.36753110  1
  N  N49  1  0.11085122  0.42805721  0.12023893  1
  N  N50  1  0.89339111  0.54273713  0.86550661  1
  N  N51  1  0.79517000  0.39283517  0.57800782  1
  N  N52  1  0.55050109  0.54220115  0.37707055  1
  N  N53  1  0.44467402  0.42760499  0.11761854  1
  N  N54  1  0.22231192  0.53900658  0.87006266  1
  N  N55  1  0.11334924  0.42765819  0.61911810  1
  N  N56  1  0.89009397  0.54068773  0.37099730  1
  N  N57  1  0.77092992  0.43524299  0.07294584  1
  N  N58  1  0.53775025  0.56721100  0.85831547  1
  N  N59  1  0.44229190  0.42716074  0.62034507  1
  N  N60  1  0.22507513  0.86868224  0.37414527  1
  N  N61  1  0.11080640  0.76151069  0.11734126  1
  N  N62  1  0.88875912  0.87245523  0.86427174  1
  N  N63  1  0.77771775  0.76241689  0.61775370  1
  N  N64  1  0.55482489  0.87135708  0.37286129  1
  N  N65  1  0.44439972  0.76115664  0.12449590  1
  N  N66  1  0.24872852  0.85662398  0.86099915  1
  N  N67  1  0.11124101  0.75922363  0.61939480  1
  N  N68  1  0.88889243  0.87251626  0.36904837  1
  N  N69  1  0.77554195  0.76330708  0.11804481  1
  N  N70  1  0.54290284  0.85987518  0.86181331  1
  N  N71  1  0.44292566  0.76263390  0.63981588  1
