# generated using pymatgen
data_Al17BN18
_symmetry_space_group_name_H-M   'P 1'
_cell_length_a   9.36125624
_cell_length_b   9.36125711
_cell_length_c   10.06855427
_cell_angle_alpha   90.13236835
_cell_angle_beta   90.13229075
_cell_angle_gamma   60.12834290
_symmetry_Int_Tables_number   1
_chemical_formula_structural   Al17BN18
_chemical_formula_sum   'Al34 B2 N36'
_cell_volume   765.11147395
_cell_formula_units_Z   2
loop_
 _symmetry_equiv_pos_site_id
 _symmetry_equiv_pos_as_xyz
  1  'x, y, z'
loop_
 _atom_site_type_symbol
 _atom_site_label
 _atom_site_symmetry_multiplicity
 _atom_site_fract_x
 _atom_site_fract_y
 _atom_site_fract_z
 _atom_site_occupancy
  Al  Al0  1  0.10421006  0.10085850  0.39364558  1
  Al  Al1  1  0.22234251  0.20167211  0.13658318  1
  Al  Al2  1  0.77970356  0.09638801  0.84124563  1
  Al  Al3  1  0.43844069  0.09656975  0.39139801  1
  Al  Al4  1  0.55685493  0.20920549  0.06403800  1
  Al  Al5  1  0.11185500  0.09499024  0.87739998  1
  Al  Al6  1  0.21329392  0.21070780  0.63907170  1
  Al  Al7  1  0.78129834  0.09798572  0.37544057  1
  Al  Al8  1  0.88899179  0.20567620  0.13362555  1
  Al  Al9  1  0.43679761  0.09272683  0.87513333  1
  Al  Al10  1  0.55725746  0.21329837  0.58044469  1
  Al  Al11  1  0.10878206  0.42546647  0.38201988  1
  Al  Al12  1  0.22440056  0.54108259  0.07432835  1
  Al  Al13  1  0.77830877  0.42853785  0.87739957  1
  Al  Al14  1  0.89402330  0.52997972  0.63907127  1
  Al  Al15  1  0.44798958  0.42860586  0.31910406  1
  Al  Al16  1  0.54894602  0.54564687  0.06367321  1
  Al  Al17  1  0.10829007  0.42497328  0.89152122  1
  Al  Al18  1  0.22491483  0.54159707  0.56519899  1
  Al  Al19  1  0.78417341  0.42089622  0.39364546  1
  Al  Al20  1  0.88498971  0.53902637  0.13658329  1
  Al  Al21  1  0.43914259  0.43704288  0.81782953  1
  Al  Al22  1  0.55492753  0.53858218  0.58077770  1
  Al  Al23  1  0.11192055  0.76467351  0.31910397  1
  Al  Al24  1  0.22896394  0.86562738  0.06367331  1
  Al  Al25  1  0.77604283  0.75348204  0.87513274  1
  Al  Al26  1  0.89661500  0.87394078  0.58044353  1
  Al  Al27  1  0.44410675  0.76079297  0.32301244  1
  Al  Al28  1  0.54997028  0.86665236  0.06701022  1
  Al  Al29  1  0.12035935  0.75582525  0.81782920  1
  Al  Al30  1  0.22189811  0.87161059  0.58077713  1
  Al  Al31  1  0.77988245  0.75512757  0.39139739  1
  Al  Al32  1  0.89252209  0.87353895  0.06403770  1
  Al  Al33  1  0.55163038  0.86831682  0.58683983  1
  B  B34  1  0.89160311  0.20828687  0.64336517  1
  B  B35  1  0.44340381  0.76008740  0.81451135  1
  N  N36  1  0.22141013  0.20253331  0.32710373  1
  N  N37  1  0.10771727  0.09724705  0.06992904  1
  N  N38  1  0.89291583  0.20959909  0.80529363  1
  N  N39  1  0.79140489  0.10808873  0.60405004  1
  N  N40  1  0.55424218  0.21149709  0.38303404  1
  N  N41  1  0.43917485  0.09571971  0.07397262  1
  N  N42  1  0.21750490  0.20994273  0.82505381  1
  N  N43  1  0.08359357  0.11077696  0.58761843  1
  N  N44  1  0.89081129  0.20749743  0.32337345  1
  N  N45  1  0.77977752  0.09646187  0.08692264  1
  N  N46  1  0.55246866  0.21201131  0.86625151  1
  N  N47  1  0.43743920  0.09875584  0.59005482  1
  N  N48  1  0.22525752  0.54194158  0.37307539  1
  N  N49  1  0.10797364  0.42465605  0.08345545  1
  N  N50  1  0.89325969  0.53418918  0.82505337  1
  N  N51  1  0.79409324  0.40027803  0.58761848  1
  N  N52  1  0.55256793  0.54251038  0.38742200  1
  N  N53  1  0.44739707  0.42817756  0.12893903  1
  N  N54  1  0.22403281  0.54071574  0.88272035  1
  N  N55  1  0.10908974  0.42577386  0.57357860  1
  N  N56  1  0.88584852  0.53809599  0.32710384  1
  N  N57  1  0.78056517  0.42440079  0.06992862  1
  N  N58  1  0.53931269  0.56606770  0.86914765  1
  N  N59  1  0.43999339  0.43260999  0.63157489  1
  N  N60  1  0.22582426  0.86925300  0.38742157  1
  N  N61  1  0.11149405  0.76407943  0.12893895  1
  N  N62  1  0.89532747  0.86915302  0.86625121  1
  N  N63  1  0.78206979  0.75412504  0.59005435  1
  N  N64  1  0.55180753  0.86849480  0.38471020  1
  N  N65  1  0.44318596  0.75986905  0.13485751  1
  N  N66  1  0.24938462  0.85599481  0.86914775  1
  N  N67  1  0.11592629  0.75667623  0.63157444  1
  N  N68  1  0.89481065  0.87092873  0.38303322  1
  N  N69  1  0.77903701  0.75585824  0.07397222  1
  N  N70  1  0.53975825  0.85644232  0.86559648  1
  N  N71  1  0.44276992  0.75945435  0.65209605  1
