# generated using pymatgen
data_GdAl17N18
_symmetry_space_group_name_H-M   'P 1'
_cell_length_a   9.48771308
_cell_length_b   9.51662001
_cell_length_c   10.41176774
_cell_angle_alpha   89.99963307
_cell_angle_beta   89.68450894
_cell_angle_gamma   59.88434243
_symmetry_Int_Tables_number   1
_chemical_formula_structural   GdAl17N18
_chemical_formula_sum   'Gd2 Al34 N36'
_cell_volume   813.17357916
_cell_formula_units_Z   2
loop_
 _symmetry_equiv_pos_site_id
 _symmetry_equiv_pos_as_xyz
  1  'x, y, z'
loop_
 _atom_site_type_symbol
 _atom_site_label
 _atom_site_symmetry_multiplicity
 _atom_site_fract_x
 _atom_site_fract_y
 _atom_site_fract_z
 _atom_site_occupancy
  Al  Al0  1  0.12331567  0.08179403  0.40692313  1
  Al  Al1  1  0.77741623  0.09106526  0.81764555  1
  Al  Al2  1  0.88475897  0.20260390  0.57933709  1
  Al  Al3  1  0.45315597  0.09009315  0.34602172  1
  Al  Al4  1  0.55929555  0.20557122  0.07101674  1
  Al  Al5  1  0.11405628  0.08659333  0.88042506  1
  Al  Al6  1  0.22089751  0.20621041  0.64362173  1
  Al  Al7  1  0.78189806  0.08890868  0.32061494  1
  Al  Al8  1  0.87762285  0.20441013  0.05269391  1
  Al  Al9  1  0.45124160  0.09105193  0.82733544  1
  Al  Al10  1  0.55683356  0.20700526  0.57409460  1
  Al  Al11  1  0.12332066  0.42822816  0.40692271  1
  Al  Al12  1  0.21381390  0.54765037  0.13904544  1
  Al  Al13  1  0.77535256  0.42899203  0.81515431  1
  Al  Al14  1  0.88476494  0.54595026  0.57933468  1
  Al  Al15  1  0.44438532  0.42652727  0.32104205  1
  Al  Al16  1  0.55265826  0.54033666  0.06250035  1
  Al  Al17  1  0.11406017  0.43268656  0.88042290  1
  Al  Al18  1  0.21769576  0.54506844  0.64332445  1
  Al  Al19  1  0.87762597  0.55127901  0.05269328  1
  Al  Al20  1  0.45024415  0.42501811  0.81976831  1
  Al  Al21  1  0.54773907  0.54279253  0.57251648  1
  Al  Al22  1  0.11773516  0.75780408  0.38875638  1
  Al  Al23  1  0.21380966  0.87185440  0.13904723  1
  Al  Al24  1  0.77741632  0.76485290  0.81764602  1
  Al  Al25  1  0.88232276  0.87549635  0.56712469  1
  Al  Al26  1  0.44437977  0.76243249  0.32104224  1
  Al  Al27  1  0.55929760  0.86846205  0.07101828  1
  Al  Al28  1  0.11625680  0.75854083  0.89383005  1
  Al  Al29  1  0.21769549  0.87055679  0.64332357  1
  Al  Al30  1  0.78190280  0.76252846  0.32061415  1
  Al  Al31  1  0.88101000  0.87614988  0.07210489  1
  Al  Al32  1  0.45024214  0.75808489  0.81976773  1
  Al  Al33  1  0.55683540  0.86948333  0.57409442  1
  Gd  Gd34  1  0.20833128  0.21248416  0.13886542  1
  Gd  Gd35  1  0.78125881  0.42604969  0.31912418  1
  N  N36  1  0.22202974  0.20564058  0.35977217  1
  N  N37  1  0.10308286  0.07255769  0.06142956  1
  N  N38  1  0.88038036  0.20813553  0.86659943  1
  N  N39  1  0.77758710  0.09024324  0.63457756  1
  N  N40  1  0.55777059  0.20869074  0.38709884  1
  N  N41  1  0.47329491  0.08003433  0.13131921  1
  N  N42  1  0.21788545  0.20771081  0.83317839  1
  N  N43  1  0.11884364  0.08860236  0.59144499  1
  N  N44  1  0.89680030  0.17942549  0.39603207  1
  N  N45  1  0.77913178  0.09657778  0.13351307  1
  N  N46  1  0.55541832  0.20735932  0.88328610  1
  N  N47  1  0.45251618  0.09041813  0.63013168  1
  N  N48  1  0.21422670  0.54074068  0.32582699  1
  N  N49  1  0.10308702  0.45770332  0.06143130  1
  N  N50  1  0.88038704  0.54478425  0.86660298  1
  N  N51  1  0.77598797  0.42868002  0.62653617  1
  N  N52  1  0.52321444  0.55504759  0.39171504  1
  N  N53  1  0.45184391  0.42538929  0.13230584  1
  N  N54  1  0.21742673  0.54647710  0.82617261  1
  N  N55  1  0.11884961  0.42590334  0.59144828  1
  N  N56  1  0.89681052  0.55707839  0.39603161  1
  N  N57  1  0.78266381  0.42533983  0.10113957  1
  N  N58  1  0.55202329  0.54064664  0.87840040  1
  N  N59  1  0.45144591  0.42352430  0.63444935  1
  N  N60  1  0.21422183  0.87834843  0.32582579  1
  N  N61  1  0.11528765  0.75902815  0.07920884  1
  N  N62  1  0.88108001  0.87611158  0.88469702  1
  N  N63  1  0.77758721  0.76551322  0.63457768  1
  N  N64  1  0.55777638  0.86684399  0.38709611  1
  N  N65  1  0.45184228  0.75612768  0.13230739  1
  N  N66  1  0.21742692  0.86940320  0.82617103  1
  N  N67  1  0.11769728  0.75782659  0.57451186  1
  N  N68  1  0.88294477  0.87518147  0.38006202  1
  N  N69  1  0.77913378  0.75762789  0.13351494  1
  N  N70  1  0.55541989  0.87053744  0.88328729  1
  N  N71  1  0.45144454  0.75838600  0.63444800  1
