# generated using pymatgen
data_GdAl17N18
_symmetry_space_group_name_H-M   'P 1'
_cell_length_a   9.53898804
_cell_length_b   9.51666115
_cell_length_c   10.26475309
_cell_angle_alpha   90.09362312
_cell_angle_beta   89.84608257
_cell_angle_gamma   59.99865631
_symmetry_Int_Tables_number   1
_chemical_formula_structural   GdAl17N18
_chemical_formula_sum   'Gd2 Al34 N36'
_cell_volume   806.96748341
_cell_formula_units_Z   2
loop_
 _symmetry_equiv_pos_site_id
 _symmetry_equiv_pos_as_xyz
  1  'x, y, z'
loop_
 _atom_site_type_symbol
 _atom_site_label
 _atom_site_symmetry_multiplicity
 _atom_site_fract_x
 _atom_site_fract_y
 _atom_site_fract_z
 _atom_site_occupancy
  Al  Al0  1  0.10822024  0.09075411  0.32137913  1
  Al  Al1  1  0.77721243  0.09142560  0.81018251  1
  Al  Al2  1  0.88823579  0.20153233  0.56584552  1
  Al  Al3  1  0.45311110  0.09026989  0.31577884  1
  Al  Al4  1  0.56109056  0.20358103  0.06178668  1
  Al  Al5  1  0.10934444  0.09405247  0.79937660  1
  Al  Al6  1  0.22373274  0.20677689  0.55901032  1
  Al  Al7  1  0.78080543  0.08828101  0.31024048  1
  Al  Al8  1  0.88519935  0.20073645  0.05032979  1
  Al  Al9  1  0.44624096  0.09345027  0.80243751  1
  Al  Al10  1  0.55737457  0.20624309  0.56018636  1
  Al  Al11  1  0.10868246  0.43346394  0.31926599  1
  Al  Al12  1  0.21706497  0.54866107  0.13402867  1
  Al  Al13  1  0.77625031  0.42846270  0.81131323  1
  Al  Al14  1  0.88954778  0.54402485  0.56566150  1
  Al  Al15  1  0.44827134  0.42519065  0.31446426  1
  Al  Al16  1  0.55113892  0.54064422  0.05075957  1
  Al  Al17  1  0.10626001  0.42723264  0.80127939  1
  Al  Al18  1  0.22106844  0.54529766  0.62818718  1
  Al  Al19  1  0.88510670  0.54548447  0.05007382  1
  Al  Al20  1  0.44837826  0.42425187  0.81118190  1
  Al  Al21  1  0.55306081  0.53987200  0.56533268  1
  Al  Al22  1  0.11563047  0.75617967  0.38279632  1
  Al  Al23  1  0.21792565  0.86611611  0.12464827  1
  Al  Al24  1  0.77621424  0.76499701  0.81033627  1
  Al  Al25  1  0.88053929  0.87668964  0.56055723  1
  Al  Al26  1  0.44751003  0.76057594  0.31624033  1
  Al  Al27  1  0.56090980  0.86787369  0.06176519  1
  Al  Al28  1  0.11691468  0.75912983  0.88079944  1
  Al  Al29  1  0.22489747  0.87104473  0.59527053  1
  Al  Al30  1  0.78089635  0.76442070  0.31018783  1
  Al  Al31  1  0.88051895  0.87541419  0.06154574  1
  Al  Al32  1  0.44345532  0.76361279  0.80933739  1
  Al  Al33  1  0.55869189  0.87075297  0.55993967  1
  Gd  Gd34  1  0.22373260  0.20198547  0.06175926  1
  Gd  Gd35  1  0.78150681  0.42643292  0.30691115  1
  N  N36  1  0.22336786  0.20547671  0.36616061  1
  N  N37  1  0.08697836  0.08855696  0.13441875  1
  N  N38  1  0.89002909  0.20228788  0.86258081  1
  N  N39  1  0.77582695  0.09330008  0.62430237  1
  N  N40  1  0.55900256  0.20585780  0.37298074  1
  N  N41  1  0.47626211  0.07833306  0.13215455  1
  N  N42  1  0.22131497  0.20553417  0.84334145  1
  N  N43  1  0.11071867  0.09744388  0.61196713  1
  N  N44  1  0.89806470  0.17836014  0.38440828  1
  N  N45  1  0.77781353  0.09530601  0.12075953  1
  N  N46  1  0.55416345  0.20462874  0.87194862  1
  N  N47  1  0.44750712  0.09349646  0.61445682  1
  N  N48  1  0.22403987  0.54306236  0.32450005  1
  N  N49  1  0.08776208  0.45307152  0.13020798  1
  N  N50  1  0.88861018  0.54149494  0.86299672  1
  N  N51  1  0.77826770  0.42823739  0.61813726  1
  N  N52  1  0.53156673  0.55056115  0.38213772  1
  N  N53  1  0.45034660  0.42490424  0.12020483  1
  N  N54  1  0.21844131  0.54338441  0.82079321  1
  N  N55  1  0.11019031  0.42719756  0.61384882  1
  N  N56  1  0.89980775  0.55696047  0.38408726  1
  N  N57  1  0.77648357  0.42770675  0.08715862  1
  N  N58  1  0.55124212  0.54187275  0.86477043  1
  N  N59  1  0.45118925  0.42307551  0.62218093  1
  N  N60  1  0.22560105  0.86803308  0.34349310  1
  N  N61  1  0.11242112  0.75836267  0.07106451  1
  N  N62  1  0.88254954  0.87508566  0.87285057  1
  N  N63  1  0.77607783  0.76493114  0.62442429  1
  N  N64  1  0.55979974  0.86854345  0.37299138  1
  N  N65  1  0.44899220  0.75815888  0.12324329  1
  N  N66  1  0.22023008  0.87345222  0.83437282  1
  N  N67  1  0.11230896  0.75956302  0.57000828  1
  N  N68  1  0.88392061  0.87478831  0.37005634  1
  N  N69  1  0.77755145  0.75874830  0.12079605  1
  N  N70  1  0.55362165  0.87420800  0.87167989  1
  N  N71  1  0.45060877  0.76082378  0.62018227  1
