# generated using pymatgen
data_GdAl17N18
_symmetry_space_group_name_H-M   'P 1'
_cell_length_a   9.54941021
_cell_length_b   9.53988776
_cell_length_c   10.27610438
_cell_angle_alpha   89.76658647
_cell_angle_beta   89.28053042
_cell_angle_gamma   59.98758321
_symmetry_Int_Tables_number   1
_chemical_formula_structural   GdAl17N18
_chemical_formula_sum   'Gd2 Al34 N36'
_cell_volume   810.56705656
_cell_formula_units_Z   2
loop_
 _symmetry_equiv_pos_site_id
 _symmetry_equiv_pos_as_xyz
  1  'x, y, z'
loop_
 _atom_site_type_symbol
 _atom_site_label
 _atom_site_symmetry_multiplicity
 _atom_site_fract_x
 _atom_site_fract_y
 _atom_site_fract_z
 _atom_site_occupancy
  Al  Al0  1  0.12320192  0.08200533  0.41703674  1
  Al  Al1  1  0.77981860  0.08840524  0.82896810  1
  Al  Al2  1  0.88974399  0.20340355  0.60314816  1
  Al  Al3  1  0.45028796  0.09188277  0.40783803  1
  Al  Al4  1  0.55208360  0.20709175  0.14786273  1
  Al  Al5  1  0.11503158  0.08642312  0.88926619  1
  Al  Al6  1  0.22699748  0.20418736  0.65439883  1
  Al  Al7  1  0.78717683  0.08584099  0.32785726  1
  Al  Al8  1  0.87780565  0.20056422  0.06968319  1
  Al  Al9  1  0.45070294  0.09033601  0.89727143  1
  Al  Al10  1  0.55102338  0.21023540  0.64910057  1
  Al  Al11  1  0.12621385  0.42755244  0.41706546  1
  Al  Al12  1  0.21708064  0.54387518  0.15011943  1
  Al  Al13  1  0.76925029  0.43258682  0.87495864  1
  Al  Al14  1  0.88903398  0.54763831  0.59052309  1
  Al  Al15  1  0.43981479  0.42920747  0.39751565  1
  Al  Al16  1  0.53940999  0.54577214  0.14213770  1
  Al  Al17  1  0.11476162  0.43058197  0.89094025  1
  Al  Al18  1  0.22503471  0.54252849  0.65167856  1
  Al  Al19  1  0.87819855  0.55244944  0.07015009  1
  Al  Al20  1  0.44181973  0.42714591  0.89855858  1
  Al  Al21  1  0.55537479  0.53985616  0.64894062  1
  Al  Al22  1  0.11768487  0.75845302  0.39724576  1
  Al  Al23  1  0.21683333  0.86970475  0.14964947  1
  Al  Al24  1  0.78102267  0.76267652  0.82740954  1
  Al  Al25  1  0.88402084  0.87703759  0.57668695  1
  Al  Al26  1  0.43930548  0.76472684  0.39762356  1
  Al  Al27  1  0.55378942  0.87067255  0.14931354  1
  Al  Al28  1  0.11751882  0.75735337  0.90175979  1
  Al  Al29  1  0.22528861  0.86620450  0.65123900  1
  Al  Al30  1  0.78713306  0.76244549  0.33129574  1
  Al  Al31  1  0.88183652  0.87375149  0.07999572  1
  Al  Al32  1  0.44207853  0.76335833  0.89853794  1
  Al  Al33  1  0.55096907  0.87350395  0.64894570  1
  Gd  Gd34  1  0.21516430  0.20564222  0.15177507  1
  Gd  Gd35  1  0.78414393  0.42631024  0.35644742  1
  N  N36  1  0.22279247  0.20564057  0.37178478  1
  N  N37  1  0.10073835  0.07431320  0.07422358  1
  N  N38  1  0.88240218  0.20609299  0.87526146  1
  N  N39  1  0.78246343  0.08931386  0.64321330  1
  N  N40  1  0.55026838  0.20846181  0.33881083  1
  N  N41  1  0.47175786  0.07913885  0.08046739  1
  N  N42  1  0.22409404  0.20422321  0.84521604  1
  N  N43  1  0.12051957  0.08852340  0.60578427  1
  N  N44  1  0.90523376  0.17120201  0.39596656  1
  N  N45  1  0.78014652  0.09058322  0.13879583  1
  N  N46  1  0.54805003  0.21050728  0.83766270  1
  N  N47  1  0.45024481  0.09246884  0.59380839  1
  N  N48  1  0.22243853  0.53745462  0.33815016  1
  N  N49  1  0.10210092  0.45315104  0.07746552  1
  N  N50  1  0.88167207  0.54586300  0.88131237  1
  N  N51  1  0.77879748  0.43024108  0.61123950  1
  N  N52  1  0.51922753  0.55717288  0.32704609  1
  N  N53  1  0.43993134  0.42610799  0.08562776  1
  N  N54  1  0.22369646  0.54209206  0.83700707  1
  N  N55  1  0.12130731  0.42560486  0.60560290  1
  N  N56  1  0.90534166  0.56100379  0.40440223  1
  N  N57  1  0.77038420  0.42989630  0.10040347  1
  N  N58  1  0.54736434  0.54268003  0.83901442  1
  N  N59  1  0.44668316  0.42855072  0.58680675  1
  N  N60  1  0.22238396  0.87501403  0.33796994  1
  N  N61  1  0.11461882  0.75804870  0.09125905  1
  N  N62  1  0.88375924  0.87352864  0.89278030  1
  N  N63  1  0.78233330  0.76519572  0.64252053  1
  N  N64  1  0.55051013  0.87480533  0.34025963  1
  N  N65  1  0.44039176  0.76564522  0.08584354  1
  N  N66  1  0.22420060  0.86609850  0.83621144  1
  N  N67  1  0.11784714  0.75854547  0.58658051  1
  N  N68  1  0.88517542  0.87549367  0.38921990  1
  N  N69  1  0.78236230  0.75757066  0.14320358  1
  N  N70  1  0.54866049  0.87339635  0.83717575  1
  N  N71  1  0.44636738  0.76000648  0.58663564  1
