# generated using pymatgen
data_GdAl17N18
_symmetry_space_group_name_H-M   'P 1'
_cell_length_a   9.52811356
_cell_length_b   9.51664763
_cell_length_c   10.26460426
_cell_angle_alpha   89.90703958
_cell_angle_beta   89.75253922
_cell_angle_gamma   60.11547592
_symmetry_Int_Tables_number   1
_chemical_formula_structural   GdAl17N18
_chemical_formula_sum   'Gd2 Al34 N36'
_cell_volume   806.98191005
_cell_formula_units_Z   2
loop_
 _symmetry_equiv_pos_site_id
 _symmetry_equiv_pos_as_xyz
  1  'x, y, z'
loop_
 _atom_site_type_symbol
 _atom_site_label
 _atom_site_symmetry_multiplicity
 _atom_site_fract_x
 _atom_site_fract_y
 _atom_site_fract_z
 _atom_site_occupancy
  Al  Al0  1  0.11466367  0.08605107  0.40836550  1
  Al  Al1  1  0.77495039  0.09608352  0.86361496  1
  Al  Al2  1  0.89050805  0.20349593  0.65930502  1
  Al  Al3  1  0.44871631  0.09189023  0.40793361  1
  Al  Al4  1  0.55238434  0.20818059  0.14246410  1
  Al  Al5  1  0.11162332  0.08987811  0.89284770  1
  Al  Al6  1  0.22361706  0.20481749  0.64738157  1
  Al  Al7  1  0.78191263  0.08420036  0.33429491  1
  Al  Al8  1  0.89163193  0.19907186  0.13733342  1
  Al  Al9  1  0.44680923  0.09304103  0.89336193  1
  Al  Al10  1  0.55642769  0.20716567  0.64934713  1
  Al  Al11  1  0.11475843  0.43070728  0.40861881  1
  Al  Al12  1  0.21897247  0.54542614  0.14849840  1
  Al  Al13  1  0.77613601  0.43061017  0.89968652  1
  Al  Al14  1  0.89360769  0.53359287  0.65741752  1
  Al  Al15  1  0.43895115  0.42890474  0.39692814  1
  Al  Al16  1  0.54675320  0.54348847  0.14291048  1
  Al  Al17  1  0.11032049  0.43368017  0.89302890  1
  Al  Al18  1  0.22365878  0.54131268  0.64835465  1
  Al  Al19  1  0.89118628  0.54225977  0.13941472  1
  Al  Al20  1  0.44117921  0.42954598  0.89874947  1
  Al  Al21  1  0.55362909  0.53979470  0.65625010  1
  Al  Al22  1  0.11934884  0.75604344  0.39714515  1
  Al  Al23  1  0.21905683  0.86919882  0.14844652  1
  Al  Al24  1  0.77879502  0.76647162  0.83051320  1
  Al  Al25  1  0.88296545  0.87612812  0.57791090  1
  Al  Al26  1  0.43876843  0.76478788  0.39690110  1
  Al  Al27  1  0.55159474  0.87357224  0.14422397  1
  Al  Al28  1  0.11932760  0.75733517  0.89812574  1
  Al  Al29  1  0.22265793  0.86874561  0.64850809  1
  Al  Al30  1  0.78280177  0.76584477  0.32465311  1
  Al  Al31  1  0.88424058  0.87192091  0.07589216  1
  Al  Al32  1  0.44249087  0.76372438  0.89850298  1
  Al  Al33  1  0.55149065  0.87273459  0.64751055  1
  Gd  Gd34  1  0.21835940  0.20805095  0.15177220  1
  Gd  Gd35  1  0.77612797  0.42586263  0.39692400  1
  N  N36  1  0.22337839  0.20430116  0.37152944  1
  N  N37  1  0.10178758  0.07654552  0.07429230  1
  N  N38  1  0.88914554  0.20826020  0.84670596  1
  N  N39  1  0.77961981  0.09382370  0.62415943  1
  N  N40  1  0.55088052  0.20725379  0.33545607  1
  N  N41  1  0.46830060  0.08224408  0.07656200  1
  N  N42  1  0.22160205  0.20660696  0.84056142  1
  N  N43  1  0.10983723  0.09242720  0.59611270  1
  N  N44  1  0.91286431  0.17564770  0.32428820  1
  N  N45  1  0.77424523  0.09378895  0.11503075  1
  N  N46  1  0.54927547  0.21152489  0.83849441  1
  N  N47  1  0.44862053  0.09322308  0.59392199  1
  N  N48  1  0.22231798  0.53640729  0.33789524  1
  N  N49  1  0.10005819  0.45688385  0.07460320  1
  N  N50  1  0.88967801  0.53748603  0.84485081  1
  N  N51  1  0.77855034  0.42696207  0.61534265  1
  N  N52  1  0.52359978  0.55470640  0.32653771  1
  N  N53  1  0.44006721  0.42844863  0.08570403  1
  N  N54  1  0.22379667  0.54110663  0.83426778  1
  N  N55  1  0.11125512  0.43021450  0.59569883  1
  N  N56  1  0.91211392  0.54095067  0.32847562  1
  N  N57  1  0.77649949  0.42895524  0.09254176  1
  N  N58  1  0.55236429  0.54110351  0.84423599  1
  N  N59  1  0.44624159  0.42794092  0.58701132  1
  N  N60  1  0.22204763  0.87323337  0.33793209  1
  N  N61  1  0.11594260  0.75882300  0.08863221  1
  N  N62  1  0.88757022  0.87196607  0.88865984  1
  N  N63  1  0.78142282  0.76192930  0.63790550  1
  N  N64  1  0.54952322  0.87535543  0.33848525  1
  N  N65  1  0.44085977  0.76497412  0.08571205  1
  N  N66  1  0.22404295  0.86923174  0.83439106  1
  N  N67  1  0.11732195  0.75774137  0.58584526  1
  N  N68  1  0.88745956  0.87086667  0.38763142  1
  N  N69  1  0.77582280  0.76722309  0.13418285  1
  N  N70  1  0.54867820  0.87436800  0.83651523  1
  N  N71  1  0.44570303  0.75890188  0.58674183  1
