# generated using pymatgen
data_GdAl17N18
_symmetry_space_group_name_H-M   'P 1'
_cell_length_a   9.54146784
_cell_length_b   9.52900968
_cell_length_c   10.19684839
_cell_angle_alpha   89.89656109
_cell_angle_beta   89.81732859
_cell_angle_gamma   59.99146282
_symmetry_Int_Tables_number   1
_chemical_formula_structural   GdAl17N18
_chemical_formula_sum   'Gd2 Al34 N36'
_cell_volume   802.82329391
_cell_formula_units_Z   2
loop_
 _symmetry_equiv_pos_site_id
 _symmetry_equiv_pos_as_xyz
  1  'x, y, z'
loop_
 _atom_site_type_symbol
 _atom_site_label
 _atom_site_symmetry_multiplicity
 _atom_site_fract_x
 _atom_site_fract_y
 _atom_site_fract_z
 _atom_site_occupancy
  Al  Al0  1  0.11143519  0.08498015  0.31575649  1
  Al  Al1  1  0.77657385  0.09219813  0.81105430  1
  Al  Al2  1  0.89068653  0.19846600  0.56677796  1
  Al  Al3  1  0.45257210  0.09015769  0.31666449  1
  Al  Al4  1  0.56083418  0.20482866  0.06220025  1
  Al  Al5  1  0.11230351  0.09059195  0.80297201  1
  Al  Al6  1  0.22328746  0.20333085  0.55999929  1
  Al  Al7  1  0.78035367  0.08896812  0.31082012  1
  Al  Al8  1  0.88679586  0.20055873  0.05183639  1
  Al  Al9  1  0.44655253  0.09331026  0.80334611  1
  Al  Al10  1  0.55831894  0.20436783  0.56060433  1
  Al  Al11  1  0.10808185  0.43412666  0.32255358  1
  Al  Al12  1  0.21786401  0.55030347  0.12880034  1
  Al  Al13  1  0.77742245  0.42716082  0.81204635  1
  Al  Al14  1  0.88830117  0.54402175  0.56688085  1
  Al  Al15  1  0.44807762  0.42545592  0.31709537  1
  Al  Al16  1  0.55219656  0.54014834  0.05184370  1
  Al  Al17  1  0.10974411  0.42778298  0.80016195  1
  Al  Al18  1  0.22374559  0.53951016  0.59994389  1
  Al  Al19  1  0.88533721  0.54708991  0.05136367  1
  Al  Al20  1  0.44467648  0.42570045  0.81004375  1
  Al  Al21  1  0.55155869  0.54155852  0.56647548  1
  Al  Al22  1  0.11168414  0.76062410  0.37944220  1
  Al  Al23  1  0.22320591  0.87277573  0.06400889  1
  Al  Al24  1  0.77589232  0.76423608  0.81104885  1
  Al  Al25  1  0.88076321  0.87581156  0.56250981  1
  Al  Al26  1  0.44117290  0.76374796  0.31183700  1
  Al  Al27  1  0.56049889  0.86923031  0.06200152  1
  Al  Al28  1  0.11315932  0.75421151  0.87890761  1
  Al  Al29  1  0.22774531  0.87327672  0.56208170  1
  Al  Al30  1  0.77879641  0.76489179  0.31094563  1
  Al  Al31  1  0.88048678  0.87655437  0.06391943  1
  Al  Al32  1  0.44269539  0.76353163  0.81138294  1
  Al  Al33  1  0.55695952  0.86990257  0.56083128  1
  Gd  Gd34  1  0.22268895  0.20896117  0.06389776  1
  Gd  Gd35  1  0.78110750  0.42639835  0.31042958  1
  N  N36  1  0.22221056  0.20453543  0.36517613  1
  N  N37  1  0.09393781  0.08265017  0.13009074  1
  N  N38  1  0.89122021  0.20096134  0.86329003  1
  N  N39  1  0.77565597  0.09285812  0.62445927  1
  N  N40  1  0.55939594  0.20531446  0.37306760  1
  N  N41  1  0.47600139  0.07932437  0.13176529  1
  N  N42  1  0.22197957  0.20510183  0.84400573  1
  N  N43  1  0.11292375  0.09171159  0.61720691  1
  N  N44  1  0.90148052  0.17552539  0.38334711  1
  N  N45  1  0.77738071  0.09696472  0.12097149  1
  N  N46  1  0.55416206  0.20518541  0.87163834  1
  N  N47  1  0.44742224  0.09261776  0.61426706  1
  N  N48  1  0.22568650  0.53998343  0.34177689  1
  N  N49  1  0.08690605  0.45840397  0.13473135  1
  N  N50  1  0.89042347  0.54016034  0.86281855  1
  N  N51  1  0.77819918  0.42688820  0.61743915  1
  N  N52  1  0.52970386  0.55341111  0.38166816  1
  N  N53  1  0.44927749  0.42614123  0.12316365  1
  N  N54  1  0.22093014  0.53815042  0.83289536  1
  N  N55  1  0.11083023  0.42512386  0.61195698  1
  N  N56  1  0.89832032  0.55803077  0.38493760  1
  N  N57  1  0.77800800  0.42757236  0.08891994  1
  N  N58  1  0.55169762  0.54042708  0.86450095  1
  N  N59  1  0.45036460  0.42232276  0.62015484  1
  N  N60  1  0.22870680  0.87226754  0.37219119  1
  N  N61  1  0.10936898  0.76153659  0.07607724  1
  N  N62  1  0.88175083  0.87522812  0.87269827  1
  N  N63  1  0.77467899  0.76440904  0.62457794  1
  N  N64  1  0.55776586  0.86806206  0.37237465  1
  N  N65  1  0.44555368  0.76035790  0.12059233  1
  N  N66  1  0.22446521  0.87577671  0.87158285  1
  N  N67  1  0.10995106  0.76194795  0.57436021  1
  N  N68  1  0.88216127  0.87536967  0.36974658  1
  N  N69  1  0.77642745  0.75998104  0.12087697  1
  N  N70  1  0.55400235  0.87378514  0.87159710  1
  N  N71  1  0.44488642  0.76286912  0.62408300  1
