# generated using pymatgen
data_GdAl17N18
_symmetry_space_group_name_H-M   'P 1'
_cell_length_a   9.48561680
_cell_length_b   9.50871139
_cell_length_c   10.40761803
_cell_angle_alpha   90.00000212
_cell_angle_beta   89.52604706
_cell_angle_gamma   59.91942957
_symmetry_Int_Tables_number   1
_chemical_formula_structural   GdAl17N18
_chemical_formula_sum   'Gd2 Al34 N36'
_cell_volume   812.26213105
_cell_formula_units_Z   2
loop_
 _symmetry_equiv_pos_site_id
 _symmetry_equiv_pos_as_xyz
  1  'x, y, z'
loop_
 _atom_site_type_symbol
 _atom_site_label
 _atom_site_symmetry_multiplicity
 _atom_site_fract_x
 _atom_site_fract_y
 _atom_site_fract_z
 _atom_site_occupancy
  Al  Al0  1  0.12374124  0.08071025  0.41044589  1
  Al  Al1  1  0.78120623  0.08920775  0.82033524  1
  Al  Al2  1  0.88792666  0.19859633  0.58318935  1
  Al  Al3  1  0.44735586  0.09301952  0.40024361  1
  Al  Al4  1  0.55489249  0.20739386  0.14099040  1
  Al  Al5  1  0.11488090  0.08715578  0.88412018  1
  Al  Al6  1  0.22554071  0.20392710  0.64816951  1
  Al  Al7  1  0.78574547  0.08569318  0.32308677  1
  Al  Al8  1  0.87458807  0.20811796  0.05794995  1
  Al  Al9  1  0.45149822  0.09094836  0.88956466  1
  Al  Al10  1  0.55003017  0.20937228  0.64245059  1
  Al  Al11  1  0.12374125  0.42894338  0.41044589  1
  Al  Al12  1  0.21672098  0.54501386  0.14158816  1
  Al  Al13  1  0.78017986  0.42660750  0.81790847  1
  Al  Al14  1  0.88792662  0.54687188  0.58318934  1
  Al  Al15  1  0.44007342  0.42888914  0.38977287  1
  Al  Al16  1  0.54179905  0.54579795  0.13530881  1
  Al  Al17  1  0.11488088  0.43135823  0.88412018  1
  Al  Al18  1  0.22429595  0.54211842  0.64498762  1
  Al  Al19  1  0.87458808  0.55068883  0.05794995  1
  Al  Al20  1  0.44441104  0.42790717  0.89080159  1
  Al  Al21  1  0.54884406  0.54227541  0.63957228  1
  Al  Al22  1  0.11740036  0.75799726  0.39053851  1
  Al  Al23  1  0.21672097  0.87166008  0.14158816  1
  Al  Al24  1  0.78120619  0.76298090  0.82033525  1
  Al  Al25  1  0.88345541  0.87496971  0.56954019  1
  Al  Al26  1  0.44007342  0.76443234  0.38977287  1
  Al  Al27  1  0.55489248  0.87110858  0.14099039  1
  Al  Al28  1  0.11725482  0.75807003  0.89527384  1
  Al  Al29  1  0.22429596  0.86698047  0.64498762  1
  Al  Al30  1  0.78574547  0.76195620  0.32308676  1
  Al  Al31  1  0.88146083  0.87596702  0.07351054  1
  Al  Al32  1  0.44441102  0.76107669  0.89080159  1
  Al  Al33  1  0.55003014  0.87399246  0.64245059  1
  Gd  Gd34  1  0.21805829  0.20766832  0.14358164  1
  Gd  Gd35  1  0.79308257  0.42015613  0.33106735  1
  N  N36  1  0.21729514  0.20804987  0.36184779  1
  N  N37  1  0.10163289  0.07732762  0.06719702  1
  N  N38  1  0.88018413  0.20860621  0.87256924  1
  N  N39  1  0.78277220  0.08694300  0.63745011  1
  N  N40  1  0.54773625  0.20860025  0.33013592  1
  N  N41  1  0.47615919  0.07861786  0.07041540  1
  N  N42  1  0.22332234  0.20503628  0.83652912  1
  N  N43  1  0.12136367  0.08725446  0.59652640  1
  N  N44  1  0.89866546  0.17273937  0.40199714  1
  N  N45  1  0.78490477  0.09273103  0.13664263  1
  N  N46  1  0.54747592  0.21151754  0.82833657  1
  N  N47  1  0.44892963  0.09223263  0.58448040  1
  N  N48  1  0.22056511  0.53761757  0.32898368  1
  N  N49  1  0.10163289  0.45443440  0.06719701  1
  N  N50  1  0.88018412  0.54460455  0.87256924  1
  N  N51  1  0.78381006  0.42479239  0.62750698  1
  N  N52  1  0.52343348  0.55498071  0.32149989  1
  N  N53  1  0.44206989  0.42637488  0.07727760  1
  N  N54  1  0.22354524  0.54282671  0.82847404  1
  N  N55  1  0.12136365  0.42477675  0.59652640  1
  N  N56  1  0.89866545  0.56199002  0.40199713  1
  N  N57  1  0.77632086  0.42853700  0.11068184  1
  N  N58  1  0.54748163  0.54295664  0.82723708  1
  N  N59  1  0.44643101  0.42694445  0.57698545  1
  N  N60  1  0.22056512  0.87521219  0.32898368  1
  N  N61  1  0.11579295  0.75880098  0.08244972  1
  N  N62  1  0.88172145  0.87583671  0.88794991  1
  N  N63  1  0.78277216  0.76367967  0.63745011  1
  N  N64  1  0.54773625  0.87705841  0.33013592  1
  N  N65  1  0.44206989  0.76495014  0.07727760  1
  N  N66  1  0.22354522  0.86702294  0.82847404  1
  N  N67  1  0.11875443  0.75732021  0.57803896  1
  N  N68  1  0.88350626  0.87494429  0.38392409  1
  N  N69  1  0.78490476  0.75575908  0.13664262  1
  N  N70  1  0.54747587  0.87440147  0.82833656  1
  N  N71  1  0.44643102  0.76001941  0.57698545  1
