# generated using pymatgen
data_GdAl17N18
_symmetry_space_group_name_H-M   'P 1'
_cell_length_a   9.48565180
_cell_length_b   9.50871210
_cell_length_c   10.40753796
_cell_angle_alpha   89.99973358
_cell_angle_beta   89.52570222
_cell_angle_gamma   59.91978988
_symmetry_Int_Tables_number   1
_chemical_formula_structural   GdAl17N18
_chemical_formula_sum   'Gd2 Al34 N36'
_cell_volume   812.26186425
_cell_formula_units_Z   2
loop_
 _symmetry_equiv_pos_site_id
 _symmetry_equiv_pos_as_xyz
  1  'x, y, z'
loop_
 _atom_site_type_symbol
 _atom_site_label
 _atom_site_symmetry_multiplicity
 _atom_site_fract_x
 _atom_site_fract_y
 _atom_site_fract_z
 _atom_site_occupancy
  Al  Al0  1  0.12372983  0.08071109  0.41615530  1
  Al  Al1  1  0.78119349  0.08920680  0.82604449  1
  Al  Al2  1  0.88791562  0.19859706  0.58890072  1
  Al  Al3  1  0.44734419  0.09301958  0.40595162  1
  Al  Al4  1  0.55488103  0.20739303  0.14670241  1
  Al  Al5  1  0.11486654  0.08715498  0.88982971  1
  Al  Al6  1  0.22553009  0.20392607  0.65388156  1
  Al  Al7  1  0.78573375  0.08569400  0.32880043  1
  Al  Al8  1  0.87457616  0.20811584  0.06366470  1
  Al  Al9  1  0.45148727  0.09094692  0.89527759  1
  Al  Al10  1  0.55001854  0.20937156  0.64815806  1
  Al  Al11  1  0.12373000  0.42894137  0.41615528  1
  Al  Al12  1  0.21670925  0.54501180  0.14729849  1
  Al  Al13  1  0.78016660  0.42660742  0.82362464  1
  Al  Al14  1  0.88791592  0.54687028  0.58890089  1
  Al  Al15  1  0.44006025  0.42889045  0.39548595  1
  Al  Al16  1  0.54178586  0.54579744  0.14101702  1
  Al  Al17  1  0.11486681  0.43135857  0.88983023  1
  Al  Al18  1  0.22428357  0.54211835  0.65069759  1
  Al  Al19  1  0.87457632  0.55068815  0.06366497  1
  Al  Al20  1  0.44439784  0.42790545  0.89651226  1
  Al  Al21  1  0.54883209  0.54227544  0.64528756  1
  Al  Al22  1  0.11738993  0.75799615  0.39624813  1
  Al  Al23  1  0.21670937  0.87165873  0.14729797  1
  Al  Al24  1  0.78119366  0.76298094  0.82604450  1
  Al  Al25  1  0.88344464  0.87496924  0.57524815  1
  Al  Al26  1  0.44006003  0.76443254  0.39548586  1
  Al  Al27  1  0.55488126  0.87110660  0.14670239  1
  Al  Al28  1  0.11724144  0.75806943  0.90098591  1
  Al  Al29  1  0.22428348  0.86698028  0.65069753  1
  Al  Al30  1  0.78573353  0.76195539  0.32880090  1
  Al  Al31  1  0.88144893  0.87596574  0.07922542  1
  Al  Al32  1  0.44439784  0.76107791  0.89651212  1
  Al  Al33  1  0.55001859  0.87399272  0.64815805  1
  Gd  Gd34  1  0.21804553  0.20766644  0.14928926  1
  Gd  Gd35  1  0.79306412  0.42015987  0.33678140  1
  N  N36  1  0.21728625  0.20804857  0.36755639  1
  N  N37  1  0.10161881  0.07732581  0.07290820  1
  N  N38  1  0.88017114  0.20860505  0.87828125  1
  N  N39  1  0.78275965  0.08694273  0.64315762  1
  N  N40  1  0.54772633  0.20860131  0.33584949  1
  N  N41  1  0.47614790  0.07861635  0.07612932  1
  N  N42  1  0.22331092  0.20503518  0.84224265  1
  N  N43  1  0.12135130  0.08725497  0.60223803  1
  N  N44  1  0.89865576  0.17274051  0.40770650  1
  N  N45  1  0.78489139  0.09272966  0.14235513  1
  N  N46  1  0.54746424  0.21151641  0.83404619  1
  N  N47  1  0.44891670  0.09223301  0.59018960  1
  N  N48  1  0.22055443  0.53761650  0.33469525  1
  N  N49  1  0.10161919  0.45443411  0.07290915  1
  N  N50  1  0.88017138  0.54460513  0.87828159  1
  N  N51  1  0.78379677  0.42479272  0.63321924  1
  N  N52  1  0.52341770  0.55498326  0.32721020  1
  N  N53  1  0.44205677  0.42637319  0.08298851  1
  N  N54  1  0.22353297  0.54282629  0.83418553  1
  N  N55  1  0.12135156  0.42477563  0.60223807  1
  N  N56  1  0.89865611  0.56198715  0.40770700  1
  N  N57  1  0.77630722  0.42853596  0.11639374  1
  N  N58  1  0.54746959  0.54295635  0.83295182  1
  N  N59  1  0.44641849  0.42694573  0.58269845  1
  N  N60  1  0.22055414  0.87521262  0.33469488  1
  N  N61  1  0.11578000  0.75879974  0.08816295  1
  N  N62  1  0.88170927  0.87583599  0.89366167  1
  N  N63  1  0.78275976  0.76367951  0.64315767  1
  N  N64  1  0.54772605  0.87705665  0.33584948  1
  N  N65  1  0.44205701  0.76495047  0.08298829  1
  N  N66  1  0.22353301  0.86702203  0.83418533  1
  N  N67  1  0.11874188  0.75732014  0.58374951  1
  N  N68  1  0.88349708  0.87494310  0.38963266  1
  N  N69  1  0.78489166  0.75575800  0.14235555  1
  N  N70  1  0.54746434  0.87440158  0.83404619  1
  N  N71  1  0.44641837  0.76001871  0.58269839  1
