# generated using pymatgen
data_GdAl17N18
_symmetry_space_group_name_H-M   'P 1'
_cell_length_a   9.48781707
_cell_length_b   9.55026328
_cell_length_c   10.48500110
_cell_angle_alpha   90.04375615
_cell_angle_beta   90.06782355
_cell_angle_gamma   59.75958551
_symmetry_Int_Tables_number   1
_chemical_formula_structural   GdAl17N18
_chemical_formula_sum   'Gd2 Al34 N36'
_cell_volume   820.77331707
_cell_formula_units_Z   2
loop_
 _symmetry_equiv_pos_site_id
 _symmetry_equiv_pos_as_xyz
  1  'x, y, z'
loop_
 _atom_site_type_symbol
 _atom_site_label
 _atom_site_symmetry_multiplicity
 _atom_site_fract_x
 _atom_site_fract_y
 _atom_site_fract_z
 _atom_site_occupancy
  Al  Al0  1  0.12085948  0.08250039  0.40654345  1
  Al  Al1  1  0.77882536  0.09070001  0.81531803  1
  Al  Al2  1  0.88519109  0.20263347  0.57766972  1
  Al  Al3  1  0.44089534  0.09559251  0.40296390  1
  Al  Al4  1  0.56618387  0.20441527  0.06419350  1
  Al  Al5  1  0.11462845  0.08655453  0.88132754  1
  Al  Al6  1  0.22516895  0.20354116  0.64620875  1
  Al  Al7  1  0.77762896  0.09000991  0.32063934  1
  Al  Al8  1  0.87832451  0.20542856  0.05223111  1
  Al  Al9  1  0.44645378  0.09155947  0.88394268  1
  Al  Al10  1  0.56201943  0.20220439  0.58061316  1
  Al  Al11  1  0.12124451  0.42927806  0.40638771  1
  Al  Al12  1  0.22251838  0.54351834  0.13877014  1
  Al  Al13  1  0.77610643  0.42840657  0.81407286  1
  Al  Al14  1  0.88668872  0.54454105  0.57827196  1
  Al  Al15  1  0.43350555  0.43213853  0.39701976  1
  Al  Al16  1  0.55542419  0.54665100  0.05817518  1
  Al  Al17  1  0.11459705  0.43106410  0.88118626  1
  Al  Al18  1  0.22194217  0.54185507  0.64422521  1
  Al  Al19  1  0.88025641  0.55013554  0.05297682  1
  Al  Al20  1  0.43758905  0.43283537  0.88263174  1
  Al  Al21  1  0.55113287  0.54664458  0.57403772  1
  Al  Al22  1  0.11719554  0.75856900  0.38750625  1
  Al  Al23  1  0.21235947  0.87290647  0.13927818  1
  Al  Al24  1  0.77841915  0.76348093  0.81601246  1
  Al  Al25  1  0.88375094  0.87367118  0.56511324  1
  Al  Al26  1  0.44454159  0.76477695  0.32025701  1
  Al  Al27  1  0.56344139  0.86006871  0.06540715  1
  Al  Al28  1  0.11502342  0.75964364  0.89385287  1
  Al  Al29  1  0.21467422  0.87195056  0.64269073  1
  Al  Al30  1  0.77902842  0.76453106  0.32037467  1
  Al  Al31  1  0.88137646  0.87549623  0.07156058  1
  Al  Al32  1  0.44974513  0.75821742  0.81566355  1
  Al  Al33  1  0.55974549  0.86320480  0.57405272  1
  Gd  Gd34  1  0.21770309  0.20815342  0.14278866  1
  Gd  Gd35  1  0.78078951  0.42554992  0.31713845  1
  N  N36  1  0.21799520  0.20734413  0.35897781  1
  N  N37  1  0.10455313  0.07503827  0.06255374  1
  N  N38  1  0.88112114  0.20800987  0.86740153  1
  N  N39  1  0.78184775  0.08748338  0.63420671  1
  N  N40  1  0.55986260  0.20377134  0.38497051  1
  N  N41  1  0.46677309  0.08247478  0.07133225  1
  N  N42  1  0.22223088  0.20476353  0.83196722  1
  N  N43  1  0.11870728  0.08923907  0.59076656  1
  N  N44  1  0.89418019  0.17985615  0.39585297  1
  N  N45  1  0.77892063  0.09692988  0.13329361  1
  N  N46  1  0.56028540  0.20593388  0.87074483  1
  N  N47  1  0.44537315  0.09142004  0.59143523  1
  N  N48  1  0.22175016  0.53714490  0.32585827  1
  N  N49  1  0.10586739  0.45435013  0.06332263  1
  N  N50  1  0.88243284  0.54339904  0.86728840  1
  N  N51  1  0.77728283  0.42791853  0.62720650  1
  N  N52  1  0.52858915  0.56052233  0.39179488  1
  N  N53  1  0.44016689  0.43267782  0.07453126  1
  N  N54  1  0.21926358  0.54528966  0.82521832  1
  N  N55  1  0.11946516  0.42466338  0.59172556  1
  N  N56  1  0.89565897  0.55816272  0.39543936  1
  N  N57  1  0.78209100  0.42658175  0.10037281  1
  N  N58  1  0.55489908  0.54380189  0.87316179  1
  N  N59  1  0.43977066  0.42896141  0.58776960  1
  N  N60  1  0.21348038  0.87917760  0.32503101  1
  N  N61  1  0.11536334  0.75840835  0.07968042  1
  N  N62  1  0.88060949  0.87596316  0.88480252  1
  N  N63  1  0.77930306  0.76410478  0.63381823  1
  N  N64  1  0.55754487  0.86667836  0.38503322  1
  N  N65  1  0.45088046  0.75816699  0.13206753  1
  N  N66  1  0.21597608  0.87003653  0.82549439  1
  N  N67  1  0.11795303  0.75656794  0.57366095  1
  N  N68  1  0.88302397  0.87477597  0.37874918  1
  N  N69  1  0.77876928  0.75831821  0.13336009  1
  N  N70  1  0.55963169  0.86161093  0.87770501  1
  N  N71  1  0.44861829  0.76033757  0.63349254  1
