# generated using pymatgen
data_GdAl17N18
_symmetry_space_group_name_H-M   'P 1'
_cell_length_a   9.48566880
_cell_length_b   9.50871061
_cell_length_c   10.40748430
_cell_angle_alpha   90.00035751
_cell_angle_beta   89.52594589
_cell_angle_gamma   59.92002693
_symmetry_Int_Tables_number   1
_chemical_formula_structural   GdAl17N18
_chemical_formula_sum   'Gd2 Al34 N36'
_cell_volume   812.26094083
_cell_formula_units_Z   2
loop_
 _symmetry_equiv_pos_site_id
 _symmetry_equiv_pos_as_xyz
  1  'x, y, z'
loop_
 _atom_site_type_symbol
 _atom_site_label
 _atom_site_symmetry_multiplicity
 _atom_site_fract_x
 _atom_site_fract_y
 _atom_site_fract_z
 _atom_site_occupancy
  Al  Al0  1  0.12529383  0.08270975  0.39474679  1
  Al  Al1  1  0.77558323  0.09128347  0.80770896  1
  Al  Al2  1  0.88499912  0.20204073  0.56857587  1
  Al  Al3  1  0.45808287  0.08760016  0.31738620  1
  Al  Al4  1  0.55980585  0.20451283  0.06292215  1
  Al  Al5  1  0.11195129  0.08653091  0.86950789  1
  Al  Al6  1  0.21969978  0.20679317  0.63478807  1
  Al  Al7  1  0.78316025  0.08838421  0.31110727  1
  Al  Al8  1  0.87613551  0.20446173  0.04225208  1
  Al  Al9  1  0.45103582  0.09112555  0.81312338  1
  Al  Al10  1  0.55546786  0.20549357  0.56189321  1
  Al  Al11  1  0.12529229  0.42528025  0.39474634  1
  Al  Al12  1  0.21412931  0.54771091  0.12961086  1
  Al  Al13  1  0.77433721  0.42947461  0.80452521  1
  Al  Al14  1  0.88499765  0.54624493  0.56857512  1
  Al  Al15  1  0.44498660  0.42600573  0.31170389  1
  Al  Al16  1  0.55251858  0.54038416  0.05245160  1
  Al  Al17  1  0.11194982  0.43480689  0.86950768  1
  Al  Al18  1  0.21867147  0.54419319  0.63236188  1
  Al  Al19  1  0.87613421  0.55269149  0.04225218  1
  Al  Al20  1  0.44984789  0.42402896  0.81024518  1
  Al  Al21  1  0.54837890  0.54245250  0.56313057  1
  Al  Al22  1  0.11841799  0.75743262  0.37918795  1
  Al  Al23  1  0.21412986  0.87144853  0.12961155  1
  Al  Al24  1  0.77558279  0.76642052  0.80770876  1
  Al  Al25  1  0.88262277  0.87533079  0.55742383  1
  Al  Al26  1  0.44498772  0.76229001  0.31170385  1
  Al  Al27  1  0.55980505  0.86896887  0.06292183  1
  Al  Al28  1  0.11642291  0.75843270  0.88315662  1
  Al  Al29  1  0.21867213  0.87042028  0.63236212  1
  Al  Al30  1  0.78315952  0.76173836  0.31110650  1
  Al  Al31  1  0.88247647  0.87540581  0.06215728  1
  Al  Al32  1  0.44984842  0.75940913  0.81024526  1
  Al  Al33  1  0.55546756  0.87232320  0.56189315  1
  Gd  Gd34  1  0.20680243  0.21324474  0.12162490  1
  Gd  Gd35  1  0.78182261  0.42572786  0.30911792  1
  N  N36  1  0.22356299  0.20486037  0.34201477  1
  N  N37  1  0.10120823  0.07141636  0.05070403  1
  N  N38  1  0.87851673  0.20862559  0.85616899  1
  N  N39  1  0.77633134  0.09057517  0.62422101  1
  N  N40  1  0.55781228  0.20702466  0.37541588  1
  N  N41  1  0.47644798  0.07841938  0.13119388  1
  N  N42  1  0.21607157  0.20860882  0.82519365  1
  N  N43  1  0.11969338  0.08879661  0.58013048  1
  N  N44  1  0.89825229  0.17896044  0.38549755  1
  N  N45  1  0.77931144  0.09578589  0.12371080  1
  N  N46  1  0.55344962  0.20645689  0.87570835  1
  N  N47  1  0.45239570  0.09044439  0.62545672  1
  N  N48  1  0.21497682  0.54066798  0.31605710  1
  N  N49  1  0.10120649  0.46066507  0.05070301  1
  N  N50  1  0.87851525  0.54614678  0.85616869  1
  N  N51  1  0.77655429  0.42836455  0.61616304  1
  N  N52  1  0.52372174  0.55478123  0.38227751  1
  N  N53  1  0.45213664  0.42480278  0.12255651  1
  N  N54  1  0.21710813  0.54645780  0.81524942  1
  N  N55  1  0.11969193  0.42479464  0.58012964  1
  N  N56  1  0.89825016  0.55607069  0.38549596  1
  N  N57  1  0.78257518  0.42535607  0.09084941  1
  N  N58  1  0.55094960  0.54116893  0.86821260  1
  N  N59  1  0.45239951  0.42188396  0.62435727  1
  N  N60  1  0.21497806  0.87763767  0.31605787  1
  N  N61  1  0.11636778  0.75846011  0.06877532  1
  N  N62  1  0.88112598  0.87608137  0.87465500  1
  N  N63  1  0.77633116  0.76637776  0.62422062  1
  N  N64  1  0.55781195  0.86844802  0.37541585  1
  N  N65  1  0.45213689  0.75634677  0.12255639  1
  N  N66  1  0.21710867  0.86972210  0.81524977  1
  N  N67  1  0.11815364  0.75756503  0.56475081  1
  N  N68  1  0.88408818  0.87459762  0.37024536  1
  N  N69  1  0.77931053  0.75819119  0.12371012  1
  N  N70  1  0.55344912  0.87338197  0.87570809  1
  N  N71  1  0.45240013  0.75900001  0.62435741  1
