# generated using pymatgen
data_GdAl17N18
_symmetry_space_group_name_H-M   'P 1'
_cell_length_a   9.48830861
_cell_length_b   9.52410958
_cell_length_c   10.42680258
_cell_angle_alpha   89.99987803
_cell_angle_beta   89.72808083
_cell_angle_gamma   59.87837754
_symmetry_Int_Tables_number   1
_chemical_formula_structural   GdAl17N18
_chemical_formula_sum   'Gd2 Al34 N36'
_cell_volume   814.99487717
_cell_formula_units_Z   2
loop_
 _symmetry_equiv_pos_site_id
 _symmetry_equiv_pos_as_xyz
  1  'x, y, z'
loop_
 _atom_site_type_symbol
 _atom_site_label
 _atom_site_symmetry_multiplicity
 _atom_site_fract_x
 _atom_site_fract_y
 _atom_site_fract_z
 _atom_site_occupancy
  Al  Al0  1  0.12163375  0.08285754  0.40573395  1
  Al  Al1  1  0.78257525  0.08818759  0.81534799  1
  Al  Al2  1  0.88563433  0.20069788  0.57800708  1
  Al  Al3  1  0.44739832  0.09296821  0.39631418  1
  Al  Al4  1  0.55549055  0.20693709  0.13807343  1
  Al  Al5  1  0.11467127  0.08795283  0.87931273  1
  Al  Al6  1  0.22446653  0.20443477  0.64342742  1
  Al  Al7  1  0.78641413  0.08572156  0.31971108  1
  Al  Al8  1  0.87748640  0.20416609  0.05146724  1
  Al  Al9  1  0.45227009  0.09053121  0.88667977  1
  Al  Al10  1  0.54962637  0.20749389  0.63976743  1
  Al  Al11  1  0.12163378  0.42883897  0.40573405  1
  Al  Al12  1  0.21875234  0.54432094  0.13812270  1
  Al  Al13  1  0.77593906  0.42869615  0.81489918  1
  Al  Al14  1  0.88563401  0.54700427  0.57800752  1
  Al  Al15  1  0.43901023  0.42568771  0.38905515  1
  Al  Al16  1  0.55398349  0.53967573  0.07220228  1
  Al  Al17  1  0.11467015  0.43070679  0.87931316  1
  Al  Al18  1  0.22187210  0.54234730  0.64159620  1
  Al  Al19  1  0.87748617  0.55168446  0.05146733  1
  Al  Al20  1  0.44097127  0.42438913  0.88403457  1
  Al  Al21  1  0.55208479  0.54062572  0.59867719  1
  Al  Al22  1  0.11953870  0.75689491  0.38680912  1
  Al  Al23  1  0.21875262  0.87026213  0.13812219  1
  Al  Al24  1  0.78257544  0.76256890  0.81534775  1
  Al  Al25  1  0.88370481  0.87481594  0.56475059  1
  Al  Al26  1  0.43901165  0.76863240  0.38905555  1
  Al  Al27  1  0.55548946  0.87090882  0.13807320  1
  Al  Al28  1  0.11754635  0.75789169  0.89184602  1
  Al  Al29  1  0.22187157  0.86911587  0.64159643  1
  Al  Al30  1  0.78641396  0.76119569  0.31971170  1
  Al  Al31  1  0.88218774  0.87557492  0.06993139  1
  Al  Al32  1  0.44097203  0.76797057  0.88403477  1
  Al  Al33  1  0.54962606  0.87621688  0.63976741  1
  Gd  Gd34  1  0.21864700  0.20734666  0.13959078  1
  Gd  Gd35  1  0.78711806  0.42310484  0.31706263  1
  N  N36  1  0.21763534  0.20785033  0.35746080  1
  N  N37  1  0.10351575  0.07594878  0.06246727  1
  N  N38  1  0.88093220  0.20770981  0.86691550  1
  N  N39  1  0.78249726  0.08683446  0.63250570  1
  N  N40  1  0.54834545  0.20751583  0.32645154  1
  N  N41  1  0.47678338  0.07827264  0.06721861  1
  N  N42  1  0.22402856  0.20465422  0.83201407  1
  N  N43  1  0.11886966  0.08914093  0.59192165  1
  N  N44  1  0.89609439  0.17720145  0.39701656  1
  N  N45  1  0.78585577  0.09261530  0.13297319  1
  N  N46  1  0.54886553  0.20891797  0.82434299  1
  N  N47  1  0.44777475  0.09277767  0.58025833  1
  N  N48  1  0.22069828  0.53677259  0.32495038  1
  N  N49  1  0.10351370  0.45386622  0.06246728  1
  N  N50  1  0.88093105  0.54469693  0.86691472  1
  N  N51  1  0.77976261  0.42678369  0.62703377  1
  N  N52  1  0.53073099  0.55130687  0.35986582  1
  N  N53  1  0.44143812  0.42339789  0.07267606  1
  N  N54  1  0.22154522  0.54340126  0.82410063  1
  N  N55  1  0.11886812  0.42531877  0.59192099  1
  N  N56  1  0.89609319  0.56004236  0.39701606  1
  N  N57  1  0.77960375  0.42686345  0.09808738  1
  N  N58  1  0.55066351  0.54133765  0.85471901  1
  N  N59  1  0.44217974  0.42353699  0.57797884  1
  N  N60  1  0.22069862  0.87586482  0.32495084  1
  N  N61  1  0.11716605  0.75808200  0.07855994  1
  N  N62  1  0.88224052  0.87554853  0.88422001  1
  N  N63  1  0.78249700  0.76399776  0.63250530  1
  N  N64  1  0.54834520  0.87747841  0.32645180  1
  N  N65  1  0.44143927  0.76849228  0.07267557  1
  N  N66  1  0.22154520  0.86839008  0.82410076  1
  N  N67  1  0.11911393  0.75710763  0.57403644  1
  N  N68  1  0.88489395  0.87422128  0.37955708  1
  N  N69  1  0.78585447  0.75486013  0.13297317  1
  N  N70  1  0.54886531  0.87555535  0.82434270  1
  N  N71  1  0.44218013  0.76761363  0.57797872  1
