# generated using pymatgen
data_GdAl17N18
_symmetry_space_group_name_H-M   'P 1'
_cell_length_a   9.50893532
_cell_length_b   9.51314764
_cell_length_c   10.12982307
_cell_angle_alpha   89.99999995
_cell_angle_beta   89.92944481
_cell_angle_gamma   59.98534589
_symmetry_Int_Tables_number   1
_chemical_formula_structural   GdAl17N18
_chemical_formula_sum   'Gd2 Al34 N36'
_cell_volume   793.45816483
_cell_formula_units_Z   2
loop_
 _symmetry_equiv_pos_site_id
 _symmetry_equiv_pos_as_xyz
  1  'x, y, z'
loop_
 _atom_site_type_symbol
 _atom_site_label
 _atom_site_symmetry_multiplicity
 _atom_site_fract_x
 _atom_site_fract_y
 _atom_site_fract_z
 _atom_site_occupancy
  Al  Al0  1  0.11318314  0.08690081  0.42216445  1
  Al  Al1  1  0.77656573  0.09321655  0.91362680  1
  Al  Al2  1  0.88731188  0.20405702  0.67142880  1
  Al  Al3  1  0.44715690  0.09308822  0.42191185  1
  Al  Al4  1  0.56071485  0.20330078  0.16219539  1
  Al  Al5  1  0.10964028  0.08914663  0.90742766  1
  Al  Al6  1  0.22203190  0.20565072  0.66308278  1
  Al  Al7  1  0.78032292  0.08801374  0.41232116  1
  Al  Al8  1  0.88911567  0.19507385  0.15747733  1
  Al  Al9  1  0.45101550  0.09115892  0.90768474  1
  Al  Al10  1  0.55708080  0.20651722  0.66307172  1
  Al  Al11  1  0.11318313  0.43324938  0.42216445  1
  Al  Al12  1  0.22033791  0.54446763  0.16300338  1
  Al  Al13  1  0.77755530  0.42788901  0.91415367  1
  Al  Al14  1  0.88731189  0.54196444  0.67142881  1
  Al  Al15  1  0.43819872  0.43001920  0.41196467  1
  Al  Al16  1  0.54744573  0.54294380  0.15717834  1
  Al  Al17  1  0.10964027  0.43454643  0.90742766  1
  Al  Al18  1  0.22298943  0.54120697  0.66334754  1
  Al  Al19  1  0.88911568  0.54914383  0.15747732  1
  Al  Al20  1  0.44308003  0.42692164  0.91328873  1
  Al  Al21  1  0.55290983  0.54021175  0.67125151  1
  Al  Al22  1  0.11060780  0.76136275  0.41149497  1
  Al  Al23  1  0.22033789  0.86852779  0.16300337  1
  Al  Al24  1  0.77656573  0.76355106  0.91362680  1
  Al  Al25  1  0.88945151  0.87194092  0.66272729  1
  Al  Al26  1  0.43819870  0.76511542  0.41196467  1
  Al  Al27  1  0.56071487  0.86931771  0.16219539  1
  Al  Al28  1  0.11149900  0.76091716  0.91363504  1
  Al  Al29  1  0.22298942  0.86913693  0.66334754  1
  Al  Al30  1  0.78032291  0.76499669  0.41232116  1
  Al  Al31  1  0.88881187  0.87226074  0.16230920  1
  Al  Al32  1  0.44308004  0.76333166  0.91328874  1
  Al  Al33  1  0.55708080  0.86973532  0.66307172  1
  Gd  Gd34  1  0.22028385  0.20652473  0.16177831  1
  Gd  Gd35  1  0.77679595  0.42826869  0.40758166  1
  N  N36  1  0.22078319  0.20627507  0.38455230  1
  N  N37  1  0.09931181  0.07644529  0.09122229  1
  N  N38  1  0.88639699  0.20477706  0.85833760  1
  N  N39  1  0.77849703  0.09441677  0.60330146  1
  N  N40  1  0.55547226  0.20547579  0.35490541  1
  N  N41  1  0.47339948  0.07996694  0.09405509  1
  N  N42  1  0.22227019  0.20553158  0.85850761  1
  N  N43  1  0.10864001  0.09299253  0.61172072  1
  N  N44  1  0.90622158  0.17339536  0.34453964  1
  N  N45  1  0.77624680  0.09209415  0.10174923  1
  N  N46  1  0.55677653  0.20707890  0.85128608  1
  N  N47  1  0.44778161  0.09277586  0.61030720  1
  N  N48  1  0.22129105  0.53856810  0.35427883  1
  N  N49  1  0.09931182  0.45757622  0.09122230  1
  N  N50  1  0.88639698  0.54215930  0.85833761  1
  N  N51  1  0.77714985  0.42809175  0.62899260  1
  N  N52  1  0.52253922  0.55539706  0.34249334  1
  N  N53  1  0.44246651  0.42531171  0.10245356  1
  N  N54  1  0.22401267  0.54116883  0.85096681  1
  N  N55  1  0.10864001  0.43170079  0.61172072  1
  N  N56  1  0.90622158  0.55371640  0.34453964  1
  N  N57  1  0.77902139  0.42715597  0.11132358  1
  N  N58  1  0.55291407  0.54020964  0.86085229  1
  N  N59  1  0.44531579  0.42845386  0.60334085  1
  N  N60  1  0.22129104  0.87347417  0.35427883  1
  N  N61  1  0.11094801  0.76119266  0.10419001  1
  N  N62  1  0.88945588  0.87193873  0.85303954  1
  N  N63  1  0.77849703  0.76041954  0.60330146  1
  N  N64  1  0.55547225  0.87238530  0.35490542  1
  N  N65  1  0.44246650  0.76555513  0.10245357  1
  N  N66  1  0.22401268  0.86815183  0.85096681  1
  N  N67  1  0.11069075  0.76132128  0.60186588  1
  N  N68  1  0.88930926  0.87201203  0.35277717  1
  N  N69  1  0.77624681  0.76499241  0.10174923  1
  N  N70  1  0.55677654  0.86947791  0.85128607  1
  N  N71  1  0.44531579  0.75956368  0.60334085  1
