# generated using pymatgen
data_GdAl17N18
_symmetry_space_group_name_H-M   'P 1'
_cell_length_a   9.48870391
_cell_length_b   9.52198711
_cell_length_c   10.42050198
_cell_angle_alpha   89.99989854
_cell_angle_beta   89.71477736
_cell_angle_gamma   59.88036974
_symmetry_Int_Tables_number   1
_chemical_formula_structural   GdAl17N18
_chemical_formula_sum   'Gd2 Al34 N36'
_cell_volume   814.37001151
_cell_formula_units_Z   2
loop_
 _symmetry_equiv_pos_site_id
 _symmetry_equiv_pos_as_xyz
  1  'x, y, z'
loop_
 _atom_site_type_symbol
 _atom_site_label
 _atom_site_symmetry_multiplicity
 _atom_site_fract_x
 _atom_site_fract_y
 _atom_site_fract_z
 _atom_site_occupancy
  Al  Al0  1  0.12253976  0.08164729  0.40713213  1
  Al  Al1  1  0.77793393  0.09102881  0.81723316  1
  Al  Al2  1  0.88501463  0.20268384  0.57933246  1
  Al  Al3  1  0.44821607  0.09255814  0.37205333  1
  Al  Al4  1  0.56008117  0.20672215  0.06988469  1
  Al  Al5  1  0.11420370  0.08644829  0.88065560  1
  Al  Al6  1  0.22243082  0.20544821  0.64353978  1
  Al  Al7  1  0.78148663  0.08894461  0.32037787  1
  Al  Al8  1  0.87810083  0.20450234  0.05287250  1
  Al  Al9  1  0.44940046  0.09196646  0.84342694  1
  Al  Al10  1  0.55819478  0.20831836  0.57469376  1
  Al  Al11  1  0.12254027  0.42914503  0.40713195  1
  Al  Al12  1  0.21359618  0.54762543  0.13885188  1
  Al  Al13  1  0.77541397  0.42895887  0.81520911  1
  Al  Al14  1  0.88501580  0.54562772  0.57933194  1
  Al  Al15  1  0.44432750  0.42659592  0.32058068  1
  Al  Al16  1  0.55254601  0.54039208  0.06240035  1
  Al  Al17  1  0.11420415  0.43267962  0.88065512  1
  Al  Al18  1  0.21741925  0.54518500  0.64328995  1
  Al  Al19  1  0.87810125  0.55072306  0.05287238  1
  Al  Al20  1  0.45022525  0.42568014  0.81916454  1
  Al  Al21  1  0.54765645  0.54283595  0.57212199  1
  Al  Al22  1  0.11769403  0.75781943  0.38868154  1
  Al  Al23  1  0.21359558  0.87210545  0.13885232  1
  Al  Al24  1  0.77793365  0.76436839  0.81723330  1
  Al  Al25  1  0.88233405  0.87549620  0.56689844  1
  Al  Al26  1  0.44432643  0.76240968  0.32058060  1
  Al  Al27  1  0.56008212  0.86652457  0.06988495  1
  Al  Al28  1  0.11618226  0.75857486  0.89388115  1
  Al  Al29  1  0.21741932  0.87072338  0.64328979  1
  Al  Al30  1  0.78148721  0.76290011  0.32037754  1
  Al  Al31  1  0.88043423  0.87644546  0.07193659  1
  Al  Al32  1  0.45022496  0.75742833  0.81916448  1
  Al  Al33  1  0.55819540  0.86681411  0.57469392  1
  Gd  Gd34  1  0.21169115  0.21081610  0.14066021  1
  Gd  Gd35  1  0.78125937  0.42603850  0.31896056  1
  N  N36  1  0.22070500  0.20631049  0.36088948  1
  N  N37  1  0.10357045  0.07304579  0.06153635  1
  N  N38  1  0.88079308  0.20810301  0.86665155  1
  N  N39  1  0.77815673  0.09006129  0.63451851  1
  N  N40  1  0.55823690  0.20963900  0.38675503  1
  N  N41  1  0.47085879  0.08124010  0.11150754  1
  N  N42  1  0.21890739  0.20720891  0.83207710  1
  N  N43  1  0.11882910  0.08863426  0.59157645  1
  N  N44  1  0.89642185  0.17952045  0.39608598  1
  N  N45  1  0.77920332  0.09670160  0.13360668  1
  N  N46  1  0.55685154  0.20888364  0.88143716  1
  N  N47  1  0.45072095  0.09130697  0.61590986  1
  N  N48  1  0.21409482  0.54074116  0.32570998  1
  N  N49  1  0.10357137  0.45671701  0.06153680  1
  N  N50  1  0.88079454  0.54442717  0.86665229  1
  N  N51  1  0.77588999  0.42872186  0.62656134  1
  N  N52  1  0.52316288  0.55508101  0.39146473  1
  N  N53  1  0.45167723  0.42570509  0.13218890  1
  N  N54  1  0.21739503  0.54653432  0.82611519  1
  N  N55  1  0.11883028  0.42587090  0.59157721  1
  N  N56  1  0.89642382  0.55738188  0.39608592  1
  N  N57  1  0.78233850  0.42549707  0.10111809  1
  N  N58  1  0.55209004  0.54061816  0.87836069  1
  N  N59  1  0.45113860  0.42422775  0.63431830  1
  N  N60  1  0.21409375  0.87849075  0.32570973  1
  N  N61  1  0.11504798  0.75914261  0.07912666  1
  N  N62  1  0.88086795  0.87622815  0.88459115  1
  N  N63  1  0.77815670  0.76511495  0.63451855  1
  N  N64  1  0.55823804  0.86544839  0.38675447  1
  N  N65  1  0.45167695  0.75595386  0.13218922  1
  N  N66  1  0.21739499  0.86939555  0.82611491  1
  N  N67  1  0.11764223  0.75784603  0.57440244  1
  N  N68  1  0.88273440  0.87529534  0.38004708  1
  N  N69  1  0.77920366  0.75742683  0.13360719  1
  N  N70  1  0.55685186  0.86759122  0.88143722  1
  N  N71  1  0.45113840  0.75796890  0.63431799  1
