# generated using pymatgen
data_GdAl17N18
_symmetry_space_group_name_H-M   'P 1'
_cell_length_a   9.53365944
_cell_length_b   9.51239515
_cell_length_c   10.28717152
_cell_angle_alpha   90.06843834
_cell_angle_beta   89.82278628
_cell_angle_gamma   60.02133015
_symmetry_Int_Tables_number   1
_chemical_formula_structural   GdAl17N18
_chemical_formula_sum   'Gd2 Al34 N36'
_cell_volume   808.10014596
_cell_formula_units_Z   2
loop_
 _symmetry_equiv_pos_site_id
 _symmetry_equiv_pos_as_xyz
  1  'x, y, z'
loop_
 _atom_site_type_symbol
 _atom_site_label
 _atom_site_symmetry_multiplicity
 _atom_site_fract_x
 _atom_site_fract_y
 _atom_site_fract_z
 _atom_site_occupancy
  Al  Al0  1  0.10803492  0.09107515  0.32093524  1
  Al  Al1  1  0.77691451  0.09148595  0.80992228  1
  Al  Al2  1  0.88857146  0.20130286  0.56545465  1
  Al  Al3  1  0.45330363  0.09015225  0.31563991  1
  Al  Al4  1  0.56122393  0.20356633  0.06190587  1
  Al  Al5  1  0.10685494  0.09832325  0.79951032  1
  Al  Al6  1  0.22363619  0.20602308  0.55858181  1
  Al  Al7  1  0.78098857  0.08798647  0.31016558  1
  Al  Al8  1  0.88504672  0.20125439  0.05036223  1
  Al  Al9  1  0.44623798  0.09356304  0.80224915  1
  Al  Al10  1  0.55746557  0.20610119  0.56004701  1
  Al  Al11  1  0.10856027  0.43378817  0.31906584  1
  Al  Al12  1  0.21686603  0.54956488  0.13394999  1
  Al  Al13  1  0.77596121  0.42868499  0.81102289  1
  Al  Al14  1  0.88942300  0.54389323  0.56547804  1
  Al  Al15  1  0.44806009  0.42526896  0.31429959  1
  Al  Al16  1  0.55088639  0.54114224  0.05095349  1
  Al  Al17  1  0.10610523  0.42744345  0.80106249  1
  Al  Al18  1  0.22114628  0.54471227  0.62753394  1
  Al  Al19  1  0.88502548  0.54566130  0.05008272  1
  Al  Al20  1  0.44830268  0.42409648  0.81085723  1
  Al  Al21  1  0.55285328  0.54018689  0.56499766  1
  Al  Al22  1  0.11724278  0.75695569  0.38392948  1
  Al  Al23  1  0.21669018  0.86547028  0.13525893  1
  Al  Al24  1  0.77646930  0.76503498  0.81002957  1
  Al  Al25  1  0.88076633  0.87655755  0.56012205  1
  Al  Al26  1  0.44810791  0.76012539  0.31580250  1
  Al  Al27  1  0.56115999  0.86767787  0.06212816  1
  Al  Al28  1  0.11699788  0.75886064  0.88069360  1
  Al  Al29  1  0.22226335  0.86899475  0.61959697  1
  Al  Al30  1  0.78127012  0.76436012  0.31014850  1
  Al  Al31  1  0.88119115  0.87550411  0.06121012  1
  Al  Al32  1  0.44684372  0.76190844  0.80946908  1
  Al  Al33  1  0.55822861  0.87061383  0.55980849  1
  Gd  Gd34  1  0.22413997  0.20249291  0.06219087  1
  Gd  Gd35  1  0.78147829  0.42627350  0.30640892  1
  N  N36  1  0.22345072  0.20523139  0.36608157  1
  N  N37  1  0.08656484  0.09001868  0.13275798  1
  N  N38  1  0.88928151  0.20267618  0.86286446  1
  N  N39  1  0.77599520  0.09311611  0.62433762  1
  N  N40  1  0.55906179  0.20585976  0.37308940  1
  N  N41  1  0.47673801  0.07809408  0.13247868  1
  N  N42  1  0.22134198  0.20560855  0.84402498  1
  N  N43  1  0.11023459  0.09788139  0.61221536  1
  N  N44  1  0.89831072  0.17815265  0.38433792  1
  N  N45  1  0.77799424  0.09526765  0.12082504  1
  N  N46  1  0.55403765  0.20465538  0.87205606  1
  N  N47  1  0.44737488  0.09347858  0.61461834  1
  N  N48  1  0.22371963  0.54363337  0.32443650  1
  N  N49  1  0.08758095  0.45379308  0.13034233  1
  N  N50  1  0.88849756  0.54157513  0.86305080  1
  N  N51  1  0.77818230  0.42807969  0.61825620  1
  N  N52  1  0.53151877  0.55059819  0.38218333  1
  N  N53  1  0.45031994  0.42488883  0.12034400  1
  N  N54  1  0.21834423  0.54348476  0.82016429  1
  N  N55  1  0.11018587  0.42673139  0.61390654  1
  N  N56  1  0.89965156  0.55674812  0.38414720  1
  N  N57  1  0.77624447  0.42805685  0.08706892  1
  N  N58  1  0.55107162  0.54162269  0.86514667  1
  N  N59  1  0.45133796  0.42288170  0.62221131  1
  N  N60  1  0.22409601  0.86613767  0.32970053  1
  N  N61  1  0.11408722  0.75913908  0.06885626  1
  N  N62  1  0.88261645  0.87522172  0.87274216  1
  N  N63  1  0.77618178  0.76490474  0.62441103  1
  N  N64  1  0.55964532  0.86854157  0.37309018  1
  N  N65  1  0.44971142  0.75805375  0.12197340  1
  N  N66  1  0.21853211  0.87177019  0.81986757  1
  N  N67  1  0.11333949  0.75968528  0.56958627  1
  N  N68  1  0.88445148  0.87453852  0.37033258  1
  N  N69  1  0.77813495  0.75893230  0.12084287  1
  N  N70  1  0.55354445  0.87451798  0.87200160  1
  N  N71  1  0.45172138  0.76004044  0.62063766  1
