# generated using pymatgen
data_GdAl17N18
_symmetry_space_group_name_H-M   'P 1'
_cell_length_a   9.48856456
_cell_length_b   9.52052349
_cell_length_c   10.41769982
_cell_angle_alpha   89.99980594
_cell_angle_beta   89.70709509
_cell_angle_gamma   59.88137138
_symmetry_Int_Tables_number   1
_chemical_formula_structural   GdAl17N18
_chemical_formula_sum   'Gd2 Al34 N36'
_cell_volume   814.02144772
_cell_formula_units_Z   2
loop_
 _symmetry_equiv_pos_site_id
 _symmetry_equiv_pos_as_xyz
  1  'x, y, z'
loop_
 _atom_site_type_symbol
 _atom_site_label
 _atom_site_symmetry_multiplicity
 _atom_site_fract_x
 _atom_site_fract_y
 _atom_site_fract_z
 _atom_site_occupancy
  Al  Al0  1  0.12270472  0.08165157  0.40711095  1
  Al  Al1  1  0.77781061  0.09104248  0.81736252  1
  Al  Al2  1  0.88492958  0.20267119  0.57934909  1
  Al  Al3  1  0.44959806  0.09186957  0.36388490  1
  Al  Al4  1  0.55979627  0.20633742  0.07011414  1
  Al  Al5  1  0.11419221  0.08650057  0.88062087  1
  Al  Al6  1  0.22184864  0.20573822  0.64355405  1
  Al  Al7  1  0.78164768  0.08890528  0.32039925  1
  Al  Al8  1  0.87799156  0.20447506  0.05283484  1
  Al  Al9  1  0.45011280  0.09161286  0.83693076  1
  Al  Al10  1  0.55778227  0.20791481  0.57464407  1
  Al  Al11  1  0.12270694  0.42897817  0.40711041  1
  Al  Al12  1  0.21366171  0.54762164  0.13887590  1
  Al  Al13  1  0.77540959  0.42896174  0.81521062  1
  Al  Al14  1  0.88493245  0.54572115  0.57934807  1
  Al  Al15  1  0.44431981  0.42662607  0.32067493  1
  Al  Al16  1  0.55258154  0.54037343  0.06243330  1
  Al  Al17  1  0.11419393  0.43264072  0.88062025  1
  Al  Al18  1  0.21749281  0.54516104  0.64331149  1
  Al  Al19  1  0.87799423  0.55085426  0.05283455  1
  Al  Al20  1  0.45023179  0.42549889  0.81934360  1
  Al  Al21  1  0.54768226  0.54282181  0.57223498  1
  Al  Al22  1  0.11770267  0.75781614  0.38869906  1
  Al  Al23  1  0.21365862  0.87204094  0.13887600  1
  Al  Al24  1  0.77781091  0.76447914  0.81736264  1
  Al  Al25  1  0.88233509  0.87549415  0.56697286  1
  Al  Al26  1  0.44431802  0.76238970  0.32067556  1
  Al  Al27  1  0.55979712  0.86719641  0.07011514  1
  Al  Al28  1  0.11619728  0.75856794  0.89387232  1
  Al  Al29  1  0.21749244  0.87067150  0.64331097  1
  Al  Al30  1  0.78164996  0.76277974  0.32039903  1
  Al  Al31  1  0.88055980  0.87638066  0.07198849  1
  Al  Al32  1  0.45023127  0.75760638  0.81934341  1
  Al  Al33  1  0.55778343  0.86762851  0.57464457  1
  Gd  Gd34  1  0.21082321  0.21124767  0.14016664  1
  Gd  Gd35  1  0.78126556  0.42603836  0.31897593  1
  N  N36  1  0.22103604  0.20614243  0.36081559  1
  N  N37  1  0.10344879  0.07290094  0.06151597  1
  N  N38  1  0.88068520  0.20810988  0.86663932  1
  N  N39  1  0.77802466  0.09010666  0.63452988  1
  N  N40  1  0.55809261  0.20938228  0.38702490  1
  N  N41  1  0.47162376  0.08085947  0.11770333  1
  N  N42  1  0.21849749  0.20741097  0.83241192  1
  N  N43  1  0.11881449  0.08861413  0.59152819  1
  N  N44  1  0.89649797  0.17950479  0.39606762  1
  N  N45  1  0.77919560  0.09669718  0.13358760  1
  N  N46  1  0.55641419  0.20839973  0.88194542  1
  N  N47  1  0.45140840  0.09096545  0.62143001  1
  N  N48  1  0.21413110  0.54073228  0.32574590  1
  N  N49  1  0.10344947  0.45698606  0.06151661  1
  N  N50  1  0.88068763  0.54452180  0.86664090  1
  N  N51  1  0.77591742  0.42871039  0.62655053  1
  N  N52  1  0.52319139  0.55506518  0.39152460  1
  N  N53  1  0.45173924  0.42561322  0.13222884  1
  N  N54  1  0.21740232  0.54652034  0.82613061  1
  N  N55  1  0.11881664  0.42591007  0.59152980  1
  N  N56  1  0.89650132  0.55731644  0.39606733  1
  N  N57  1  0.78241699  0.42545975  0.10111986  1
  N  N58  1  0.55207651  0.54062395  0.87837010  1
  N  N59  1  0.45121870  0.42405200  0.63434657  1
  N  N60  1  0.21412967  0.87846013  0.32574495  1
  N  N61  1  0.11510372  0.75911759  0.07915844  1
  N  N62  1  0.88093002  0.87619396  0.88461747  1
  N  N63  1  0.77802421  0.76520496  0.63452998  1
  N  N64  1  0.55809515  0.86584272  0.38702351  1
  N  N65  1  0.45173842  0.75599152  0.13222970  1
  N  N66  1  0.21740273  0.86939722  0.82613001  1
  N  N67  1  0.11765485  0.75784238  0.57442141  1
  N  N68  1  0.88277566  0.87527184  0.38005151  1
  N  N69  1  0.77919559  0.75744100  0.13358867  1
  N  N70  1  0.55641486  0.86850833  0.88194596  1
  N  N71  1  0.45121809  0.75807110  0.63434610  1
