# generated using pymatgen
data_GdAl17N18
_symmetry_space_group_name_H-M   'P 1'
_cell_length_a   9.50899319
_cell_length_b   9.51303408
_cell_length_c   10.12981872
_cell_angle_alpha   90.00000091
_cell_angle_beta   89.92961730
_cell_angle_gamma   59.98594214
_symmetry_Int_Tables_number   1
_chemical_formula_structural   GdAl17N18
_chemical_formula_sum   'Gd2 Al34 N36'
_cell_volume   793.45795512
_cell_formula_units_Z   2
loop_
 _symmetry_equiv_pos_site_id
 _symmetry_equiv_pos_as_xyz
  1  'x, y, z'
loop_
 _atom_site_type_symbol
 _atom_site_label
 _atom_site_symmetry_multiplicity
 _atom_site_fract_x
 _atom_site_fract_y
 _atom_site_fract_z
 _atom_site_occupancy
  Al  Al0  1  0.11073933  0.08428395  0.30136294  1
  Al  Al1  1  0.77688691  0.09219249  0.79549442  1
  Al  Al2  1  0.89020986  0.19887305  0.55140982  1
  Al  Al3  1  0.45243797  0.09044768  0.30167218  1
  Al  Al4  1  0.56169293  0.20337198  0.04688030  1
  Al  Al5  1  0.11255320  0.09144156  0.78740896  1
  Al  Al6  1  0.22231363  0.20550985  0.54469398  1
  Al  Al7  1  0.77953185  0.08893747  0.29583457  1
  Al  Al8  1  0.88669796  0.20015752  0.03667624  1
  Al  Al9  1  0.44697519  0.09317909  0.78758414  1
  Al  Al10  1  0.55678574  0.20648434  0.54555311  1
  Al  Al11  1  0.11073938  0.43830999  0.30136292  1
  Al  Al12  1  0.21954411  0.54537890  0.04652175  1
  Al  Al13  1  0.77782320  0.42775506  0.79576037  1
  Al  Al14  1  0.89020988  0.54425037  0.55140982  1
  Al  Al15  1  0.43912588  0.43010723  0.29664968  1
  Al  Al16  1  0.55269870  0.54031734  0.03692369  1
  Al  Al17  1  0.11255322  0.42933859  0.78740897  1
  Al  Al18  1  0.22328131  0.54018824  0.54521123  1
  Al  Al19  1  0.88669800  0.54647781  0.03667623  1
  Al  Al20  1  0.44277819  0.42688010  0.79577287  1
  Al  Al21  1  0.54881521  0.54225907  0.55116996  1
  Al  Al22  1  0.11104465  0.76114432  0.29652949  1
  Al  Al23  1  0.21954409  0.86841031  0.04652175  1
  Al  Al24  1  0.77688693  0.76425393  0.79549442  1
  Al  Al25  1  0.88835969  0.87248681  0.54520788  1
  Al  Al26  1  0.43912587  0.76410024  0.29664968  1
  Al  Al27  1  0.56169298  0.86826844  0.04688030  1
  Al  Al28  1  0.11041903  0.76145717  0.79611441  1
  Al  Al29  1  0.22328131  0.86986379  0.54521123  1
  Al  Al30  1  0.77953189  0.76486395  0.29583457  1
  Al  Al31  1  0.88927023  0.87203156  0.04734265  1
  Al  Al32  1  0.44277819  0.76367510  0.79577288  1
  Al  Al33  1  0.55678575  0.87006327  0.54555310  1
  Gd  Gd34  1  0.22312335  0.20510495  0.05124960  1
  Gd  Gd35  1  0.77951476  0.42690927  0.29705944  1
  N  N36  1  0.22086363  0.20623483  0.34752483  1
  N  N37  1  0.09365983  0.07969709  0.11429857  1
  N  N38  1  0.89123122  0.20170341  0.84712094  1
  N  N39  1  0.77585157  0.09223630  0.60787370  1
  N  N40  1  0.55740570  0.20809504  0.35638986  1
  N  N41  1  0.47737196  0.07798069  0.11636168  1
  N  N42  1  0.22273430  0.20529953  0.82983734  1
  N  N43  1  0.11345209  0.09125478  0.60049970  1
  N  N44  1  0.90054137  0.17585315  0.36761079  1
  N  N45  1  0.77859954  0.09482671  0.10456136  1
  N  N46  1  0.55456261  0.20494123  0.85550438  1
  N  N47  1  0.44695858  0.09318738  0.59798515  1
  N  N48  1  0.22359265  0.54130958  0.35708895  1
  N  N49  1  0.09365989  0.45997632  0.11429854  1
  N  N50  1  0.89123123  0.54039869  0.84712093  1
  N  N51  1  0.77756436  0.42788447  0.60033645  1
  N  N52  1  0.52640916  0.55346210  0.36480333  1
  N  N53  1  0.44439413  0.42792052  0.10393912  1
  N  N54  1  0.22136629  0.53898047  0.85554342  1
  N  N55  1  0.11345211  0.42862645  0.60049970  1
  N  N56  1  0.90054140  0.55693874  0.36761079  1
  N  N57  1  0.77906906  0.42713214  0.07428517  1
  N  N58  1  0.55207194  0.54063073  0.84853224  1
  N  N59  1  0.44306526  0.42632499  0.60756046  1
  N  N60  1  0.22359264  0.86843109  0.35708895  1
  N  N61  1  0.11056391  0.76138471  0.10606408  1
  N  N62  1  0.88918388  0.87207473  0.85697384  1
  N  N63  1  0.77585158  0.76524543  0.60787369  1
  N  N64  1  0.55740573  0.86783258  0.35638985  1
  N  N65  1  0.44439411  0.76101874  0.10393911  1
  N  N66  1  0.22136629  0.87298663  0.85554342  1
  N  N67  1  0.11040117  0.76146609  0.60580178  1
  N  N68  1  0.88891302  0.87221014  0.35465215  1
  N  N69  1  0.77859957  0.75990705  0.10456136  1
  N  N70  1  0.55456262  0.87382955  0.85550438  1
  N  N71  1  0.44306525  0.76394312  0.60756046  1
