# generated using pymatgen
data_GdAl17N18
_symmetry_space_group_name_H-M   'P 1'
_cell_length_a   9.54003132
_cell_length_b   9.53589809
_cell_length_c   10.27778048
_cell_angle_alpha   90.33216985
_cell_angle_beta   89.59181521
_cell_angle_gamma   60.10019458
_symmetry_Int_Tables_number   1
_chemical_formula_structural   GdAl17N18
_chemical_formula_sum   'Gd2 Al34 N36'
_cell_volume   810.48071197
_cell_formula_units_Z   2
loop_
 _symmetry_equiv_pos_site_id
 _symmetry_equiv_pos_as_xyz
  1  'x, y, z'
loop_
 _atom_site_type_symbol
 _atom_site_label
 _atom_site_symmetry_multiplicity
 _atom_site_fract_x
 _atom_site_fract_y
 _atom_site_fract_z
 _atom_site_occupancy
  Al  Al0  1  0.11393205  0.08431197  0.34109204  1
  Al  Al1  1  0.77531337  0.09148913  0.80886312  1
  Al  Al2  1  0.88737021  0.20023347  0.56848618  1
  Al  Al3  1  0.45979071  0.08515026  0.31643260  1
  Al  Al4  1  0.56105412  0.20425989  0.06138074  1
  Al  Al5  1  0.10681002  0.10208998  0.80574438  1
  Al  Al6  1  0.23041997  0.19891369  0.56982999  1
  Al  Al7  1  0.78280658  0.08610475  0.30901873  1
  Al  Al8  1  0.88312534  0.20288883  0.04579976  1
  Al  Al9  1  0.44425227  0.09544543  0.80796220  1
  Al  Al10  1  0.55776666  0.20538613  0.56054102  1
  Al  Al11  1  0.12073117  0.43133937  0.38772371  1
  Al  Al12  1  0.21245675  0.54994026  0.12753959  1
  Al  Al13  1  0.77285834  0.43077805  0.80619466  1
  Al  Al14  1  0.88525316  0.54467755  0.56803116  1
  Al  Al15  1  0.44629676  0.42418906  0.30945466  1
  Al  Al16  1  0.54957547  0.54210699  0.05067859  1
  Al  Al17  1  0.10964971  0.43860768  0.86750425  1
  Al  Al18  1  0.21865765  0.54265186  0.63139684  1
  Al  Al19  1  0.87357428  0.55359094  0.04230811  1
  Al  Al20  1  0.44865308  0.42470711  0.80963127  1
  Al  Al21  1  0.55024787  0.53999543  0.56178189  1
  Al  Al22  1  0.11822561  0.75431814  0.38062026  1
  Al  Al23  1  0.21449513  0.86941985  0.13474780  1
  Al  Al24  1  0.77456597  0.76778494  0.80708391  1
  Al  Al25  1  0.88184844  0.87537346  0.55765428  1
  Al  Al26  1  0.44994308  0.75739361  0.31252044  1
  Al  Al27  1  0.56086696  0.86873782  0.06177569  1
  Al  Al28  1  0.11596141  0.76238032  0.88155383  1
  Al  Al29  1  0.22127332  0.86582523  0.62714744  1
  Al  Al30  1  0.78276347  0.76100243  0.30879439  1
  Al  Al31  1  0.88173825  0.87640399  0.06142660  1
  Al  Al32  1  0.44785633  0.76197073  0.81017910  1
  Al  Al33  1  0.55813396  0.86890364  0.56007498  1
  Gd  Gd34  1  0.22210944  0.20554627  0.08349656  1
  Gd  Gd35  1  0.78580151  0.41935188  0.30549844  1
  N  N36  1  0.23019813  0.19794192  0.36577526  1
  N  N37  1  0.08371079  0.08880396  0.12273738  1
  N  N38  1  0.88487791  0.20597024  0.85795555  1
  N  N39  1  0.77570023  0.09097914  0.62365456  1
  N  N40  1  0.55950846  0.20585624  0.37311292  1
  N  N41  1  0.48157938  0.07620445  0.13325453  1
  N  N42  1  0.22073264  0.20851404  0.85185813  1
  N  N43  1  0.11168758  0.09534310  0.61166723  1
  N  N44  1  0.90007121  0.17378885  0.38752735  1
  N  N45  1  0.77688605  0.09757404  0.11999592  1
  N  N46  1  0.55322714  0.20660283  0.87204086  1
  N  N47  1  0.45062347  0.09054271  0.61894886  1
  N  N48  1  0.21758340  0.53951442  0.31549991  1
  N  N49  1  0.09411409  0.46656974  0.05534401  1
  N  N50  1  0.87849186  0.54718253  0.85344124  1
  N  N51  1  0.77598797  0.42755135  0.61495366  1
  N  N52  1  0.53072799  0.54868543  0.37836249  1
  N  N53  1  0.44889301  0.42577209  0.11845511  1
  N  N54  1  0.21744709  0.54788452  0.81637680  1
  N  N55  1  0.11817846  0.42680314  0.57695172  1
  N  N56  1  0.89702162  0.55511045  0.38108133  1
  N  N57  1  0.77562615  0.42963849  0.08596743  1
  N  N58  1  0.54937550  0.54283039  0.86478807  1
  N  N59  1  0.45090355  0.42217812  0.62158338  1
  N  N60  1  0.22501799  0.86274967  0.32557217  1
  N  N61  1  0.11449238  0.76203142  0.06870588  1
  N  N62  1  0.88203455  0.87623514  0.87222862  1
  N  N63  1  0.77598333  0.76567943  0.62184603  1
  N  N64  1  0.56068796  0.86580015  0.37323843  1
  N  N65  1  0.44937944  0.75929259  0.12017025  1
  N  N66  1  0.21738421  0.87347099  0.81791035  1
  N  N67  1  0.11518817  0.75659754  0.56713602  1
  N  N68  1  0.88555493  0.87253808  0.36790553  1
  N  N69  1  0.77764157  0.75997733  0.12076793  1
  N  N70  1  0.55293823  0.87585930  0.87210724  1
  N  N71  1  0.45177348  0.75838380  0.62092690  1
