# generated using pymatgen
data_GdAl17N18
_symmetry_space_group_name_H-M   'P 1'
_cell_length_a   9.52491615
_cell_length_b   9.51675866
_cell_length_c   10.25974734
_cell_angle_alpha   89.90612427
_cell_angle_beta   89.75508583
_cell_angle_gamma   60.12872114
_symmetry_Int_Tables_number   1
_chemical_formula_structural   GdAl17N18
_chemical_formula_sum   'Gd2 Al34 N36'
_cell_volume   806.44607362
_cell_formula_units_Z   2
loop_
 _symmetry_equiv_pos_site_id
 _symmetry_equiv_pos_as_xyz
  1  'x, y, z'
loop_
 _atom_site_type_symbol
 _atom_site_label
 _atom_site_symmetry_multiplicity
 _atom_site_fract_x
 _atom_site_fract_y
 _atom_site_fract_z
 _atom_site_occupancy
  Al  Al0  1  0.11464790  0.08585752  0.40823079  1
  Al  Al1  1  0.77317058  0.09914069  0.88317189  1
  Al  Al2  1  0.88917127  0.20267757  0.65919929  1
  Al  Al3  1  0.44846441  0.09167370  0.40793093  1
  Al  Al4  1  0.55388171  0.20751109  0.14259517  1
  Al  Al5  1  0.11133841  0.08989002  0.89257606  1
  Al  Al6  1  0.22348665  0.20484076  0.64736920  1
  Al  Al7  1  0.78054753  0.08707278  0.35283371  1
  Al  Al8  1  0.89093988  0.19842580  0.13753065  1
  Al  Al9  1  0.44706607  0.09302706  0.89307539  1
  Al  Al10  1  0.55799789  0.20646022  0.64934961  1
  Al  Al11  1  0.11469179  0.43073874  0.40862062  1
  Al  Al12  1  0.21919378  0.54525316  0.14838145  1
  Al  Al13  1  0.77625856  0.43046325  0.89931461  1
  Al  Al14  1  0.89353765  0.53348673  0.65746598  1
  Al  Al15  1  0.43896958  0.42908938  0.39702863  1
  Al  Al16  1  0.54685154  0.54340905  0.14275272  1
  Al  Al17  1  0.11026880  0.43377050  0.89296521  1
  Al  Al18  1  0.22384462  0.54110400  0.64833872  1
  Al  Al19  1  0.89111276  0.54215523  0.13924485  1
  Al  Al20  1  0.44130783  0.42934828  0.89851017  1
  Al  Al21  1  0.55363760  0.53976777  0.65620409  1
  Al  Al22  1  0.11974286  0.75562821  0.39693277  1
  Al  Al23  1  0.21906199  0.86930613  0.14834983  1
  Al  Al24  1  0.77892363  0.76677002  0.83037973  1
  Al  Al25  1  0.88362034  0.87500877  0.57812794  1
  Al  Al26  1  0.43880894  0.76478529  0.39695072  1
  Al  Al27  1  0.55144074  0.87369942  0.14408488  1
  Al  Al28  1  0.11915695  0.75739731  0.89775594  1
  Al  Al29  1  0.22263393  0.86885854  0.64849662  1
  Al  Al30  1  0.78271561  0.76571913  0.32434799  1
  Al  Al31  1  0.88507859  0.87068856  0.07617948  1
  Al  Al32  1  0.44251922  0.76371838  0.89845427  1
  Al  Al33  1  0.55138678  0.87283182  0.64750411  1
  Gd  Gd34  1  0.21836721  0.20815255  0.15138890  1
  Gd  Gd35  1  0.77631231  0.42578654  0.39698429  1
  N  N36  1  0.22317307  0.20433978  0.37134286  1
  N  N37  1  0.10161282  0.07667346  0.07431243  1
  N  N38  1  0.88847047  0.20754597  0.84575467  1
  N  N39  1  0.77827791  0.09669379  0.60964839  1
  N  N40  1  0.55185374  0.20664023  0.33462005  1
  N  N41  1  0.46846161  0.08232420  0.07659753  1
  N  N42  1  0.22160259  0.20664833  0.84061089  1
  N  N43  1  0.10949339  0.09254311  0.59600882  1
  N  N44  1  0.91191929  0.17479012  0.32327665  1
  N  N45  1  0.77278143  0.09698158  0.10000288  1
  N  N46  1  0.55109505  0.21061592  0.83777106  1
  N  N47  1  0.44859096  0.09335110  0.59390003  1
  N  N48  1  0.22260528  0.53604272  0.33784563  1
  N  N49  1  0.09998047  0.45704359  0.07457873  1
  N  N50  1  0.88965523  0.53754305  0.84485041  1
  N  N51  1  0.77850118  0.42700781  0.61539522  1
  N  N52  1  0.52379912  0.55467316  0.32660309  1
  N  N53  1  0.44012401  0.42826246  0.08575188  1
  N  N54  1  0.22398279  0.54092264  0.83425066  1
  N  N55  1  0.11120101  0.43022820  0.59565260  1
  N  N56  1  0.91204859  0.54080559  0.32839063  1
  N  N57  1  0.77663087  0.42883688  0.09253771  1
  N  N58  1  0.55232252  0.54114920  0.84425637  1
  N  N59  1  0.44617488  0.42788846  0.58698259  1
  N  N60  1  0.22209369  0.87320602  0.33789996  1
  N  N61  1  0.11611238  0.75873360  0.08873577  1
  N  N62  1  0.88812117  0.87154922  0.88765421  1
  N  N63  1  0.78130240  0.76191978  0.63777808  1
  N  N64  1  0.54949698  0.87539474  0.33846030  1
  N  N65  1  0.44086905  0.76495072  0.08574453  1
  N  N66  1  0.22416925  0.86920765  0.83437736  1
  N  N67  1  0.11748032  0.75760076  0.58584728  1
  N  N68  1  0.88870626  0.86886524  0.38660200  1
  N  N69  1  0.77568539  0.76726519  0.13416167  1
  N  N70  1  0.54870121  0.87435534  0.83650551  1
  N  N71  1  0.44566578  0.75893341  0.58671571  1
