# generated using pymatgen
data_GdAl17N18
_symmetry_space_group_name_H-M   'P 1'
_cell_length_a   9.52737474
_cell_length_b   9.51211096
_cell_length_c   10.28721485
_cell_angle_alpha   89.93266472
_cell_angle_beta   89.75443490
_cell_angle_gamma   60.09708392
_symmetry_Int_Tables_number   1
_chemical_formula_structural   GdAl17N18
_chemical_formula_sum   'Gd2 Al34 N36'
_cell_volume   808.16190140
_cell_formula_units_Z   2
loop_
 _symmetry_equiv_pos_site_id
 _symmetry_equiv_pos_as_xyz
  1  'x, y, z'
loop_
 _atom_site_type_symbol
 _atom_site_label
 _atom_site_symmetry_multiplicity
 _atom_site_fract_x
 _atom_site_fract_y
 _atom_site_fract_z
 _atom_site_occupancy
  Al  Al0  1  0.11481245  0.08642961  0.40833297  1
  Al  Al1  1  0.77761362  0.09134670  0.83898996  1
  Al  Al2  1  0.89302565  0.20529357  0.65916791  1
  Al  Al3  1  0.44897317  0.09213783  0.40773597  1
  Al  Al4  1  0.55176921  0.20833304  0.14291041  1
  Al  Al5  1  0.11128025  0.08998958  0.89324217  1
  Al  Al6  1  0.22391318  0.20474699  0.64767447  1
  Al  Al7  1  0.78316875  0.08228665  0.32345767  1
  Al  Al8  1  0.89182658  0.19921918  0.13778546  1
  Al  Al9  1  0.44702017  0.09314849  0.89369883  1
  Al  Al10  1  0.55300829  0.20886214  0.64921046  1
  Al  Al11  1  0.11484070  0.43080433  0.40860730  1
  Al  Al12  1  0.21859593  0.54573924  0.14853812  1
  Al  Al13  1  0.77622982  0.42975575  0.90011849  1
  Al  Al14  1  0.89376754  0.53364808  0.65763537  1
  Al  Al15  1  0.43869607  0.42895856  0.39656136  1
  Al  Al16  1  0.54655448  0.54356472  0.14305083  1
  Al  Al17  1  0.11044482  0.43342225  0.89321416  1
  Al  Al18  1  0.22340078  0.54160857  0.64866363  1
  Al  Al19  1  0.89131639  0.54245763  0.13961738  1
  Al  Al20  1  0.44164485  0.42893894  0.89887906  1
  Al  Al21  1  0.55363362  0.53990265  0.65643942  1
  Al  Al22  1  0.11866336  0.75682063  0.39748367  1
  Al  Al23  1  0.21887065  0.86908583  0.14852208  1
  Al  Al24  1  0.77871230  0.76596305  0.83117601  1
  Al  Al25  1  0.88287764  0.87594851  0.57800931  1
  Al  Al26  1  0.43862618  0.76491081  0.39677903  1
  Al  Al27  1  0.55181722  0.87342961  0.14439030  1
  Al  Al28  1  0.11909445  0.75743552  0.89856691  1
  Al  Al29  1  0.22295997  0.86850447  0.64876951  1
  Al  Al30  1  0.78300357  0.76655699  0.32473568  1
  Al  Al31  1  0.88261624  0.87432834  0.07475427  1
  Al  Al32  1  0.44239452  0.76367539  0.89864225  1
  Al  Al33  1  0.55157226  0.87249580  0.64783764  1
  Gd  Gd34  1  0.21840336  0.20784536  0.15227542  1
  Gd  Gd35  1  0.77570447  0.42680190  0.39648696  1
  N  N36  1  0.22363037  0.20440341  0.37161749  1
  N  N37  1  0.10152885  0.07659419  0.07436434  1
  N  N38  1  0.88963904  0.20820778  0.84646170  1
  N  N39  1  0.78133321  0.09041203  0.63884768  1
  N  N40  1  0.55015258  0.20786846  0.33674058  1
  N  N41  1  0.46835393  0.08223415  0.07651461  1
  N  N42  1  0.22169525  0.20635295  0.84044445  1
  N  N43  1  0.11058910  0.09207269  0.59582939  1
  N  N44  1  0.91328695  0.17671302  0.32597411  1
  N  N45  1  0.77577182  0.09034396  0.12905876  1
  N  N46  1  0.54815573  0.21184966  0.83803857  1
  N  N47  1  0.44878833  0.09280269  0.59354351  1
  N  N48  1  0.22173214  0.53717838  0.33784885  1
  N  N49  1  0.10021422  0.45651145  0.07454607  1
  N  N50  1  0.88968917  0.53700371  0.84479470  1
  N  N51  1  0.77851874  0.42707289  0.61465377  1
  N  N52  1  0.52311723  0.55493872  0.32620997  1
  N  N53  1  0.44021783  0.42829691  0.08560189  1
  N  N54  1  0.22369384  0.54117976  0.83428360  1
  N  N55  1  0.11136501  0.43018756  0.59564563  1
  N  N56  1  0.91230642  0.54148700  0.32834092  1
  N  N57  1  0.77640578  0.42880189  0.09262151  1
  N  N58  1  0.55250193  0.54094425  0.84407334  1
  N  N59  1  0.44631335  0.42818234  0.58668970  1
  N  N60  1  0.22186643  0.87337591  0.33786666  1
  N  N61  1  0.11540148  0.75911321  0.08835429  1
  N  N62  1  0.88652789  0.87313095  0.88909840  1
  N  N63  1  0.78151713  0.76194213  0.63854168  1
  N  N64  1  0.54955898  0.87529833  0.33834505  1
  N  N65  1  0.44079067  0.76504699  0.08560326  1
  N  N66  1  0.22387610  0.86921033  0.83435750  1
  N  N67  1  0.11724621  0.75795636  0.58595482  1
  N  N68  1  0.88577689  0.87333811  0.38985754  1
  N  N69  1  0.77614363  0.76747909  0.13424676  1
  N  N70  1  0.54853474  0.87431142  0.83648541  1
  N  N71  1  0.44582459  0.75880757  0.58663444  1
