# generated using pymatgen
data_GdAl17N18
_symmetry_space_group_name_H-M   'P 1'
_cell_length_a   9.50897631
_cell_length_b   9.51312013
_cell_length_c   10.12981003
_cell_angle_alpha   89.99999435
_cell_angle_beta   89.92923724
_cell_angle_gamma   59.98558107
_symmetry_Int_Tables_number   1
_chemical_formula_structural   GdAl17N18
_chemical_formula_sum   'Gd2 Al34 N36'
_cell_volume   793.46014653
_cell_formula_units_Z   2
loop_
 _symmetry_equiv_pos_site_id
 _symmetry_equiv_pos_as_xyz
  1  'x, y, z'
loop_
 _atom_site_type_symbol
 _atom_site_label
 _atom_site_symmetry_multiplicity
 _atom_site_fract_x
 _atom_site_fract_y
 _atom_site_fract_z
 _atom_site_occupancy
  Al  Al0  1  0.11319798  0.08691303  0.41058843  1
  Al  Al1  1  0.77660277  0.09321247  0.90205784  1
  Al  Al2  1  0.88734826  0.20405525  0.65985705  1
  Al  Al3  1  0.44718678  0.09308749  0.41034174  1
  Al  Al4  1  0.56073615  0.20330564  0.15062443  1
  Al  Al5  1  0.10967627  0.08914871  0.89584921  1
  Al  Al6  1  0.22207305  0.20564436  0.65150134  1
  Al  Al7  1  0.78034773  0.08802071  0.40074937  1
  Al  Al8  1  0.88913072  0.19509052  0.14589342  1
  Al  Al9  1  0.45105675  0.09115251  0.89610675  1
  Al  Al10  1  0.55712135  0.20651379  0.65150125  1
  Al  Al11  1  0.11319799  0.43325073  0.41058842  1
  Al  Al12  1  0.22034470  0.54447502  0.15143246  1
  Al  Al13  1  0.77757827  0.42789174  0.90256914  1
  Al  Al14  1  0.88734828  0.54195826  0.65985705  1
  Al  Al15  1  0.43820961  0.43002637  0.40039265  1
  Al  Al16  1  0.54744710  0.54295733  0.14560018  1
  Al  Al17  1  0.10967629  0.43453675  0.89584922  1
  Al  Al18  1  0.22302145  0.54120274  0.65177653  1
  Al  Al19  1  0.88913075  0.54914052  0.14589341  1
  Al  Al20  1  0.44310663  0.42691858  0.90171895  1
  Al  Al21  1  0.55293519  0.54021328  0.65968212  1
  Al  Al22  1  0.11062700  0.76136736  0.39993030  1
  Al  Al23  1  0.22034468  0.86854203  0.15143245  1
  Al  Al24  1  0.77660277  0.76354652  0.90205784  1
  Al  Al25  1  0.88948731  0.87193724  0.65115768  1
  Al  Al26  1  0.43820958  0.76512579  0.40039265  1
  Al  Al27  1  0.56073617  0.86931997  0.15062443  1
  Al  Al28  1  0.11152998  0.76091588  0.90206415  1
  Al  Al29  1  0.22302144  0.86913756  0.65177653  1
  Al  Al30  1  0.78034773  0.76499334  0.40074938  1
  Al  Al31  1  0.88882834  0.87226671  0.15074518  1
  Al  Al32  1  0.44310663  0.76333655  0.90171896  1
  Al  Al33  1  0.55712135  0.86972661  0.65150125  1
  Gd  Gd34  1  0.22031799  0.20652185  0.15020601  1
  Gd  Gd35  1  0.77679469  0.42828354  0.39600935  1
  N  N36  1  0.22081421  0.20627377  0.37298370  1
  N  N37  1  0.09932998  0.07645983  0.07964654  1
  N  N38  1  0.88643175  0.20477497  0.84676355  1
  N  N39  1  0.77853535  0.09441383  0.59172792  1
  N  N40  1  0.55549542  0.20548077  0.34333563  1
  N  N41  1  0.47342975  0.07996602  0.08248054  1
  N  N42  1  0.22231399  0.20552388  0.84692531  1
  N  N43  1  0.10867264  0.09299187  0.60014442  1
  N  N44  1  0.90623682  0.17341260  0.33296102  1
  N  N45  1  0.77626892  0.09209910  0.09018069  1
  N  N46  1  0.55681757  0.20707589  0.83971282  1
  N  N47  1  0.44782609  0.09276784  0.59873428  1
  N  N48  1  0.22130190  0.53857421  0.34270904  1
  N  N49  1  0.09933001  0.45757191  0.07964655  1
  N  N50  1  0.88643175  0.54215504  0.84676356  1
  N  N51  1  0.77717710  0.42809235  0.61742314  1
  N  N52  1  0.52254002  0.55541087  0.33091667  1
  N  N53  1  0.44247421  0.42531708  0.09088343  1
  N  N54  1  0.22404340  0.54116661  0.83939375  1
  N  N55  1  0.10867265  0.43169725  0.60014442  1
  N  N56  1  0.90623682  0.55371234  0.33296102  1
  N  N57  1  0.77902212  0.42716983  0.09974014  1
  N  N58  1  0.55293598  0.54021289  0.84928012  1
  N  N59  1  0.44534694  0.42845131  0.59176733  1
  N  N60  1  0.22130188  0.87348565  0.34270903  1
  N  N61  1  0.11096082  0.76120047  0.09262044  1
  N  N62  1  0.88949066  0.87193555  0.84146723  1
  N  N63  1  0.77853535  0.76041259  0.59172792  1
  N  N64  1  0.55549542  0.87238558  0.34333563  1
  N  N65  1  0.44247420  0.76557049  0.09088344  1
  N  N66  1  0.22404340  0.86815173  0.83939375  1
  N  N67  1  0.11072456  0.76131859  0.59029774  1
  N  N68  1  0.88932873  0.87201652  0.34121304  1
  N  N69  1  0.77626893  0.76499375  0.09018069  1
  N  N70  1  0.55681757  0.86946830  0.83971283  1
  N  N71  1  0.44534693  0.75956351  0.59176733  1
