# generated using pymatgen
data_GdAl17N18
_symmetry_space_group_name_H-M   'P 1'
_cell_length_a   9.48931483
_cell_length_b   9.54401735
_cell_length_c   10.47373308
_cell_angle_alpha   90.06163565
_cell_angle_beta   90.04871682
_cell_angle_gamma   59.82744220
_symmetry_Int_Tables_number   1
_chemical_formula_structural   GdAl17N18
_chemical_formula_sum   'Gd2 Al34 N36'
_cell_volume   820.04964830
_cell_formula_units_Z   2
loop_
 _symmetry_equiv_pos_site_id
 _symmetry_equiv_pos_as_xyz
  1  'x, y, z'
loop_
 _atom_site_type_symbol
 _atom_site_label
 _atom_site_symmetry_multiplicity
 _atom_site_fract_x
 _atom_site_fract_y
 _atom_site_fract_z
 _atom_site_occupancy
  Al  Al0  1  0.12075530  0.08272092  0.40657448  1
  Al  Al1  1  0.78005148  0.08964969  0.81528242  1
  Al  Al2  1  0.88543282  0.20271296  0.57798971  1
  Al  Al3  1  0.44085911  0.09586775  0.40230191  1
  Al  Al4  1  0.56537134  0.20649087  0.06456880  1
  Al  Al5  1  0.11529910  0.08633788  0.88119041  1
  Al  Al6  1  0.22602649  0.20322051  0.64618402  1
  Al  Al7  1  0.77769933  0.09027782  0.32053811  1
  Al  Al8  1  0.87850121  0.20548204  0.05201708  1
  Al  Al9  1  0.44732277  0.09081963  0.88545470  1
  Al  Al10  1  0.56224052  0.20242697  0.58037366  1
  Al  Al11  1  0.12001134  0.42923726  0.40634765  1
  Al  Al12  1  0.22267463  0.54352108  0.13881427  1
  Al  Al13  1  0.77735458  0.42802756  0.81412400  1
  Al  Al14  1  0.88611286  0.54446229  0.57842361  1
  Al  Al15  1  0.43267302  0.43277451  0.39524207  1
  Al  Al16  1  0.55418254  0.54546879  0.05773050  1
  Al  Al17  1  0.11545640  0.43070850  0.88157574  1
  Al  Al18  1  0.22025496  0.54277518  0.64346622  1
  Al  Al19  1  0.88022955  0.54999915  0.05291653  1
  Al  Al20  1  0.44042534  0.43108702  0.87266242  1
  Al  Al21  1  0.55092358  0.54682842  0.57490874  1
  Al  Al22  1  0.11612495  0.75951083  0.38765725  1
  Al  Al23  1  0.21184902  0.87318087  0.13895607  1
  Al  Al24  1  0.77851525  0.76325028  0.81616609  1
  Al  Al25  1  0.88314908  0.87402054  0.56543424  1
  Al  Al26  1  0.44369471  0.76483763  0.31944841  1
  Al  Al27  1  0.56367588  0.85983579  0.06676546  1
  Al  Al28  1  0.11573081  0.75893897  0.89422225  1
  Al  Al29  1  0.21508364  0.87189841  0.64303431  1
  Al  Al30  1  0.77897994  0.76420641  0.32030887  1
  Al  Al31  1  0.88109687  0.87574346  0.07147998  1
  Al  Al32  1  0.45030849  0.75846206  0.81609020  1
  Al  Al33  1  0.55958727  0.86325754  0.57307128  1
  Gd  Gd34  1  0.21783533  0.20836310  0.14270856  1
  Gd  Gd35  1  0.77883157  0.42589480  0.31678026  1
  N  N36  1  0.21805530  0.20737761  0.35888094  1
  N  N37  1  0.10455214  0.07529660  0.06241918  1
  N  N38  1  0.88203759  0.20753003  0.86691814  1
  N  N39  1  0.78179197  0.08759708  0.63416708  1
  N  N40  1  0.55972297  0.20492606  0.38551016  1
  N  N41  1  0.46757386  0.08249348  0.07259586  1
  N  N42  1  0.22368693  0.20420975  0.83226682  1
  N  N43  1  0.11888910  0.08922429  0.59109680  1
  N  N44  1  0.89425603  0.18025460  0.39591991  1
  N  N45  1  0.77884292  0.09717914  0.13315511  1
  N  N46  1  0.56161106  0.20478810  0.87093296  1
  N  N47  1  0.44562366  0.09140140  0.59052263  1
  N  N48  1  0.21999755  0.53799392  0.32678392  1
  N  N49  1  0.10563271  0.45453533  0.06355764  1
  N  N50  1  0.88344702  0.54304766  0.86702282  1
  N  N51  1  0.77716513  0.42792344  0.62733582  1
  N  N52  1  0.52687388  0.56144681  0.39286637  1
  N  N53  1  0.44064365  0.43241825  0.07798773  1
  N  N54  1  0.21905991  0.54532505  0.82459238  1
  N  N55  1  0.11885965  0.42456015  0.59154839  1
  N  N56  1  0.89453392  0.55774371  0.39533556  1
  N  N57  1  0.78151203  0.42680927  0.09971571  1
  N  N58  1  0.55580257  0.54326450  0.87234121  1
  N  N59  1  0.44078135  0.42871485  0.59292058  1
  N  N60  1  0.21281430  0.87957145  0.32477211  1
  N  N61  1  0.11489575  0.75847693  0.07986303  1
  N  N62  1  0.88140064  0.87529643  0.88457026  1
  N  N63  1  0.77866382  0.76421841  0.63371658  1
  N  N64  1  0.55708033  0.86681062  0.38390727  1
  N  N65  1  0.45053999  0.75763241  0.13183953  1
  N  N66  1  0.21681480  0.86948332  0.82599954  1
  N  N67  1  0.11729400  0.75737851  0.57379117  1
  N  N68  1  0.88213522  0.87525243  0.37907553  1
  N  N69  1  0.77910711  0.75801349  0.13354881  1
  N  N70  1  0.56043061  0.86102363  0.87904494  1
  N  N71  1  0.44876987  0.76079624  0.63385768  1
