# generated using pymatgen
data_GdAl17N18
_symmetry_space_group_name_H-M   'P 1'
_cell_length_a   9.50897501
_cell_length_b   9.51311837
_cell_length_c   10.12980865
_cell_angle_alpha   89.99999569
_cell_angle_beta   89.92923819
_cell_angle_gamma   59.98558393
_symmetry_Int_Tables_number   1
_chemical_formula_structural   GdAl17N18
_chemical_formula_sum   'Gd2 Al34 N36'
_cell_volume   793.45980593
_cell_formula_units_Z   2
loop_
 _symmetry_equiv_pos_site_id
 _symmetry_equiv_pos_as_xyz
  1  'x, y, z'
loop_
 _atom_site_type_symbol
 _atom_site_label
 _atom_site_symmetry_multiplicity
 _atom_site_fract_x
 _atom_site_fract_y
 _atom_site_fract_z
 _atom_site_occupancy
  Al  Al0  1  0.11320094  0.08691377  0.40909268  1
  Al  Al1  1  0.77660568  0.09321298  0.90056099  1
  Al  Al2  1  0.88735099  0.20405580  0.65836019  1
  Al  Al3  1  0.44718923  0.09308811  0.40884546  1
  Al  Al4  1  0.56073903  0.20330597  0.14912709  1
  Al  Al5  1  0.10967907  0.08914892  0.89435316  1
  Al  Al6  1  0.22207594  0.20564475  0.65000624  1
  Al  Al7  1  0.78035055  0.08802102  0.39925163  1
  Al  Al8  1  0.88913373  0.19509081  0.14439724  1
  Al  Al9  1  0.45106007  0.09115269  0.89460993  1
  Al  Al10  1  0.55712434  0.20651430  0.65000387  1
  Al  Al11  1  0.11320094  0.43325072  0.40909267  1
  Al  Al12  1  0.22034764  0.54447515  0.14993606  1
  Al  Al13  1  0.77758114  0.42789215  0.90107279  1
  Al  Al14  1  0.88735100  0.54195867  0.65836019  1
  Al  Al15  1  0.43821234  0.43002664  0.39889490  1
  Al  Al16  1  0.54744983  0.54295781  0.14410372  1
  Al  Al17  1  0.10967908  0.43453743  0.89435316  1
  Al  Al18  1  0.22302429  0.54120348  0.65027939  1
  Al  Al19  1  0.88913375  0.54914090  0.14439724  1
  Al  Al20  1  0.44310953  0.42691904  0.90022209  1
  Al  Al21  1  0.55293816  0.54021364  0.65818508  1
  Al  Al22  1  0.11062968  0.76136787  0.39843120  1
  Al  Al23  1  0.22034762  0.86854264  0.14993605  1
  Al  Al24  1  0.77660568  0.76354678  0.90056099  1
  Al  Al25  1  0.88949043  0.87193751  0.64966007  1
  Al  Al26  1  0.43821232  0.76512648  0.39889490  1
  Al  Al27  1  0.56073906  0.86932045  0.14912709  1
  Al  Al28  1  0.11153300  0.76091621  0.90056797  1
  Al  Al29  1  0.22302428  0.86913766  0.65027939  1
  Al  Al30  1  0.78035054  0.76499388  0.39925163  1
  Al  Al31  1  0.88883103  0.87226721  0.14924717  1
  Al  Al32  1  0.44310953  0.76333687  0.90022209  1
  Al  Al33  1  0.55712434  0.86972680  0.65000387  1
  Gd  Gd34  1  0.22032125  0.20652207  0.14870846  1
  Gd  Gd35  1  0.77679724  0.42828410  0.39451153  1
  N  N36  1  0.22081699  0.20627422  0.37148604  1
  N  N37  1  0.09933266  0.07646019  0.07814987  1
  N  N38  1  0.88643466  0.20477551  0.84526676  1
  N  N39  1  0.77853828  0.09441420  0.59023019  1
  N  N40  1  0.55549813  0.20548106  0.34183804  1
  N  N41  1  0.47343310  0.07996619  0.08098300  1
  N  N42  1  0.22231693  0.20552426  0.84542925  1
  N  N43  1  0.10867568  0.09299239  0.59864813  1
  N  N44  1  0.90624000  0.17341286  0.33146409  1
  N  N45  1  0.77627188  0.09209971  0.08868348  1
  N  N46  1  0.55682054  0.20707639  0.83821556  1
  N  N47  1  0.44782869  0.09276838  0.59723755  1
  N  N48  1  0.22130459  0.53857423  0.34121184  1
  N  N49  1  0.09933269  0.45757256  0.07814988  1
  N  N50  1  0.88643466  0.54215528  0.84526677  1
  N  N51  1  0.77718001  0.42809274  0.61592521  1
  N  N52  1  0.52254233  0.55541156  0.32941931  1
  N  N53  1  0.44247707  0.42531752  0.08938629  1
  N  N54  1  0.22404625  0.54116717  0.83789686  1
  N  N55  1  0.10867570  0.43169737  0.59864814  1
  N  N56  1  0.90624000  0.55371258  0.33146409  1
  N  N57  1  0.77902498  0.42717024  0.09824336  1
  N  N58  1  0.55293901  0.54021322  0.84778297  1
  N  N59  1  0.44534979  0.42845174  0.59026964  1
  N  N60  1  0.22130458  0.87348662  0.34121184  1
  N  N61  1  0.11096396  0.76120074  0.09112384  1
  N  N62  1  0.88949371  0.87193587  0.83997003  1
  N  N63  1  0.77853828  0.76041298  0.59023019  1
  N  N64  1  0.55549813  0.87238627  0.34183804  1
  N  N65  1  0.44247706  0.76557087  0.08938629  1
  N  N66  1  0.22404625  0.86815201  0.83789686  1
  N  N67  1  0.11072740  0.76131902  0.58879920  1
  N  N68  1  0.88933130  0.87201707  0.33971459  1
  N  N69  1  0.77627189  0.76499387  0.08868348  1
  N  N70  1  0.55682054  0.86946852  0.83821556  1
  N  N71  1  0.44534978  0.75956392  0.59026964  1
