# generated using pymatgen
data_GdAl17N18
_symmetry_space_group_name_H-M   'P 1'
_cell_length_a   9.49113329
_cell_length_b   9.54241506
_cell_length_c   10.46879593
_cell_angle_alpha   89.94001475
_cell_angle_beta   89.99792591
_cell_angle_gamma   59.82187485
_symmetry_Int_Tables_number   1
_chemical_formula_structural   GdAl17N18
_chemical_formula_sum   'Gd2 Al34 N36'
_cell_volume   819.63616735
_cell_formula_units_Z   2
loop_
 _symmetry_equiv_pos_site_id
 _symmetry_equiv_pos_as_xyz
  1  'x, y, z'
loop_
 _atom_site_type_symbol
 _atom_site_label
 _atom_site_symmetry_multiplicity
 _atom_site_fract_x
 _atom_site_fract_y
 _atom_site_fract_z
 _atom_site_occupancy
  Al  Al0  1  0.12136431  0.08402309  0.40647280  1
  Al  Al1  1  0.78471643  0.08714868  0.81552845  1
  Al  Al2  1  0.88449284  0.20175620  0.57733044  1
  Al  Al3  1  0.44666903  0.09769277  0.40090719  1
  Al  Al4  1  0.55633062  0.20842523  0.13909977  1
  Al  Al5  1  0.11442747  0.08828869  0.88057247  1
  Al  Al6  1  0.22202062  0.20586082  0.64431811  1
  Al  Al7  1  0.78787117  0.08511542  0.31969212  1
  Al  Al8  1  0.87918642  0.20356678  0.05210567  1
  Al  Al9  1  0.44900689  0.09754628  0.88322577  1
  Al  Al10  1  0.54954881  0.20904574  0.64239832  1
  Al  Al11  1  0.11970390  0.43017543  0.40561873  1
  Al  Al12  1  0.22094847  0.54318860  0.13836272  1
  Al  Al13  1  0.77380325  0.42931026  0.81236241  1
  Al  Al14  1  0.88422652  0.54640169  0.57669329  1
  Al  Al15  1  0.43617126  0.42353227  0.39171911  1
  Al  Al16  1  0.55916415  0.53663231  0.05607299  1
  Al  Al17  1  0.11393450  0.43044516  0.88019834  1
  Al  Al18  1  0.22124424  0.54190050  0.64238452  1
  Al  Al19  1  0.88023726  0.54889317  0.05225641  1
  Al  Al20  1  0.44025417  0.42292504  0.88540150  1
  Al  Al21  1  0.55244214  0.53828562  0.57293096  1
  Al  Al22  1  0.11889273  0.75689738  0.38705589  1
  Al  Al23  1  0.22213326  0.86818251  0.13827458  1
  Al  Al24  1  0.78085401  0.76252968  0.81553660  1
  Al  Al25  1  0.88389821  0.87479652  0.56406122  1
  Al  Al26  1  0.43533773  0.77267170  0.39415006  1
  Al  Al27  1  0.56682560  0.86565934  0.06745511  1
  Al  Al28  1  0.11688870  0.75721115  0.89313361  1
  Al  Al29  1  0.21934503  0.86985729  0.64326745  1
  Al  Al30  1  0.77696520  0.76636323  0.31976645  1
  Al  Al31  1  0.88406739  0.87569079  0.07088617  1
  Al  Al32  1  0.43761213  0.76496766  0.87816507  1
  Al  Al33  1  0.55738148  0.87256658  0.59712141  1
  Gd  Gd34  1  0.22162435  0.20447578  0.14214936  1
  Gd  Gd35  1  0.78168731  0.42650632  0.31602513  1
  N  N36  1  0.21845506  0.20835624  0.35922618  1
  N  N37  1  0.10570901  0.07471960  0.06279978  1
  N  N38  1  0.88099508  0.20821926  0.86751394  1
  N  N39  1  0.78294023  0.08637434  0.63250675  1
  N  N40  1  0.54921424  0.20814388  0.32678822  1
  N  N41  1  0.47358396  0.08772291  0.06489359  1
  N  N42  1  0.22258670  0.20527690  0.83117123  1
  N  N43  1  0.11768531  0.08965494  0.59174405  1
  N  N44  1  0.89527365  0.17997807  0.39611972  1
  N  N45  1  0.78710677  0.09238381  0.13374520  1
  N  N46  1  0.55109305  0.20971310  0.82467512  1
  N  N47  1  0.44405808  0.09886249  0.58649088  1
  N  N48  1  0.22074960  0.53718139  0.32502631  1
  N  N49  1  0.10567832  0.45189695  0.06334672  1
  N  N50  1  0.88113900  0.54329346  0.86720063  1
  N  N51  1  0.77604977  0.42809869  0.62626962  1
  N  N52  1  0.53195508  0.55053126  0.38613965  1
  N  N53  1  0.44283576  0.42386972  0.07466658  1
  N  N54  1  0.22116209  0.54297943  0.82489586  1
  N  N55  1  0.11623535  0.42672706  0.59159257  1
  N  N56  1  0.89432112  0.56021730  0.39487878  1
  N  N57  1  0.78174254  0.42554053  0.09974269  1
  N  N58  1  0.55420987  0.53720728  0.86799507  1
  N  N59  1  0.43929049  0.42159088  0.57956351  1
  N  N60  1  0.22116188  0.87595147  0.32555709  1
  N  N61  1  0.11802743  0.75736703  0.07948607  1
  N  N62  1  0.88274774  0.87486661  0.88485627  1
  N  N63  1  0.78155105  0.76407930  0.63420255  1
  N  N64  1  0.55791784  0.87378538  0.37431381  1
  N  N65  1  0.44026744  0.76495699  0.07227234  1
  N  N66  1  0.21800830  0.86951006  0.82443238  1
  N  N67  1  0.11831250  0.75678322  0.57402577  1
  N  N68  1  0.88506115  0.87338583  0.37858712  1
  N  N69  1  0.78098238  0.75745328  0.13120677  1
  N  N70  1  0.55777627  0.87042665  0.85977399  1
  N  N71  1  0.43806099  0.76671177  0.58767498  1
