# generated using pymatgen
data_GdAl17N18
_symmetry_space_group_name_H-M   'P 1'
_cell_length_a   9.52764932
_cell_length_b   9.52958219
_cell_length_c   10.14661863
_cell_angle_alpha   90.01289457
_cell_angle_beta   89.90906321
_cell_angle_gamma   59.99471882
_symmetry_Int_Tables_number   1
_chemical_formula_structural   GdAl17N18
_chemical_formula_sum   'Gd2 Al34 N36'
_cell_volume   797.78824197
_cell_formula_units_Z   2
loop_
 _symmetry_equiv_pos_site_id
 _symmetry_equiv_pos_as_xyz
  1  'x, y, z'
loop_
 _atom_site_type_symbol
 _atom_site_label
 _atom_site_symmetry_multiplicity
 _atom_site_fract_x
 _atom_site_fract_y
 _atom_site_fract_z
 _atom_site_occupancy
  Al  Al0  1  0.11313653  0.08703480  0.40551866  1
  Al  Al1  1  0.77487525  0.09664838  0.89454492  1
  Al  Al2  1  0.88764278  0.20481189  0.65540929  1
  Al  Al3  1  0.44706329  0.09317126  0.40532830  1
  Al  Al4  1  0.55931070  0.20428575  0.14608063  1
  Al  Al5  1  0.10956828  0.08913593  0.89114032  1
  Al  Al6  1  0.22214231  0.20556097  0.64661900  1
  Al  Al7  1  0.77854529  0.09163429  0.39391623  1
  Al  Al8  1  0.88902336  0.19618827  0.14136347  1
  Al  Al9  1  0.45091760  0.09118428  0.89131561  1
  Al  Al10  1  0.55623324  0.20727709  0.64699635  1
  Al  Al11  1  0.11323342  0.43326924  0.40548904  1
  Al  Al12  1  0.22076925  0.54370082  0.14691436  1
  Al  Al13  1  0.77744418  0.42793243  0.89795514  1
  Al  Al14  1  0.88766534  0.54084318  0.65541478  1
  Al  Al15  1  0.43841271  0.42996152  0.39571506  1
  Al  Al16  1  0.54730562  0.54305825  0.14098863  1
  Al  Al17  1  0.10963479  0.43455102  0.89107560  1
  Al  Al18  1  0.22429206  0.53973635  0.64735744  1
  Al  Al19  1  0.88912279  0.54819649  0.14120579  1
  Al  Al20  1  0.44316720  0.42692308  0.89725994  1
  Al  Al21  1  0.55307476  0.54010721  0.65483445  1
  Al  Al22  1  0.11455484  0.75945139  0.39392714  1
  Al  Al23  1  0.22071902  0.86896264  0.14691683  1
  Al  Al24  1  0.77488269  0.76180136  0.89452601  1
  Al  Al25  1  0.88984717  0.87170856  0.61037902  1
  Al  Al26  1  0.43834305  0.76512706  0.39568551  1
  Al  Al27  1  0.55929116  0.86980031  0.14601280  1
  Al  Al28  1  0.11506537  0.75911011  0.89428591  1
  Al  Al29  1  0.22427389  0.86928980  0.64736411  1
  Al  Al30  1  0.77862151  0.76334043  0.39371131  1
  Al  Al31  1  0.88891003  0.87226204  0.10717511  1
  Al  Al32  1  0.44314977  0.76322186  0.89722979  1
  Al  Al33  1  0.55627727  0.86974537  0.64693722  1
  Gd  Gd34  1  0.21986985  0.20677349  0.14512820  1
  Gd  Gd35  1  0.77661066  0.42862241  0.39184256  1
  N  N36  1  0.22090627  0.20625890  0.36774731  1
  N  N37  1  0.09887791  0.07645734  0.07482632  1
  N  N38  1  0.88691087  0.20567773  0.84161325  1
  N  N39  1  0.77586177  0.10019895  0.58701280  1
  N  N40  1  0.55446103  0.20619773  0.33791539  1
  N  N41  1  0.47319920  0.08008854  0.07765338  1
  N  N42  1  0.22226639  0.20548711  0.84209538  1
  N  N43  1  0.10874649  0.09286890  0.59503048  1
  N  N44  1  0.90639224  0.17463740  0.32748855  1
  N  N45  1  0.77309695  0.09795487  0.08453204  1
  N  N46  1  0.55543812  0.20795232  0.83455374  1
  N  N47  1  0.44802057  0.09261938  0.59362827  1
  N  N48  1  0.22227561  0.53734794  0.33740785  1
  N  N49  1  0.09898970  0.45799354  0.07473148  1
  N  N50  1  0.88693188  0.54070376  0.84161208  1
  N  N51  1  0.77714911  0.42806811  0.61273560  1
  N  N52  1  0.52268737  0.55538796  0.32629780  1
  N  N53  1  0.44225180  0.42559057  0.08609932  1
  N  N54  1  0.22519601  0.53954124  0.83424537  1
  N  N55  1  0.10875815  0.43166441  0.59502061  1
  N  N56  1  0.90662414  0.55250900  0.32727838  1
  N  N57  1  0.77867168  0.42738121  0.09460447  1
  N  N58  1  0.55288767  0.54020141  0.84447086  1
  N  N59  1  0.44562783  0.42826370  0.58675194  1
  N  N60  1  0.22218889  0.87389841  0.33740634  1
  N  N61  1  0.11600578  0.75867799  0.08694848  1
  N  N62  1  0.88977639  0.87176706  0.85744397  1
  N  N63  1  0.77589762  0.75716339  0.58686156  1
  N  N64  1  0.55447573  0.87274991  0.33784496  1
  N  N65  1  0.44220024  0.76555844  0.08607168  1
  N  N66  1  0.22515991  0.86857457  0.83426371  1
  N  N67  1  0.11727842  0.75800150  0.58594397  1
  N  N68  1  0.89053625  0.87153680  0.36256852  1
  N  N69  1  0.77309650  0.76236582  0.08449106  1
  N  N70  1  0.55546103  0.86987391  0.83451185  1
  N  N71  1  0.44561560  0.75939789  0.58672736  1
