# generated using pymatgen
data_GdAl17N18
_symmetry_space_group_name_H-M   'P 1'
_cell_length_a   9.52524527
_cell_length_b   9.51346969
_cell_length_c   10.33294474
_cell_angle_alpha   90.41404648
_cell_angle_beta   89.79551952
_cell_angle_gamma   60.10001591
_symmetry_Int_Tables_number   1
_chemical_formula_structural   GdAl17N18
_chemical_formula_sum   'Gd2 Al34 N36'
_cell_volume   811.67179805
_cell_formula_units_Z   2
loop_
 _symmetry_equiv_pos_site_id
 _symmetry_equiv_pos_as_xyz
  1  'x, y, z'
loop_
 _atom_site_type_symbol
 _atom_site_label
 _atom_site_symmetry_multiplicity
 _atom_site_fract_x
 _atom_site_fract_y
 _atom_site_fract_z
 _atom_site_occupancy
  Al  Al0  1  0.10792353  0.08786203  0.32148464  1
  Al  Al1  1  0.77651385  0.09216533  0.80953320  1
  Al  Al2  1  0.88943982  0.19920628  0.56601843  1
  Al  Al3  1  0.45717501  0.08622637  0.31606809  1
  Al  Al4  1  0.56184132  0.20478960  0.06147303  1
  Al  Al5  1  0.10628736  0.10353174  0.80258022  1
  Al  Al6  1  0.22928324  0.19584142  0.56303401  1
  Al  Al7  1  0.78128257  0.08666184  0.31005156  1
  Al  Al8  1  0.88403189  0.20318719  0.04946593  1
  Al  Al9  1  0.44442905  0.09573552  0.80548212  1
  Al  Al10  1  0.55761934  0.20520839  0.56064365  1
  Al  Al11  1  0.11984433  0.43074889  0.38593067  1
  Al  Al12  1  0.21286924  0.54964058  0.12810107  1
  Al  Al13  1  0.77422649  0.42964700  0.80702934  1
  Al  Al14  1  0.88606494  0.54365038  0.56730006  1
  Al  Al15  1  0.44493670  0.42485074  0.31027123  1
  Al  Al16  1  0.55024372  0.54229689  0.05069676  1
  Al  Al17  1  0.10970129  0.43908342  0.86744840  1
  Al  Al18  1  0.21858563  0.54121479  0.63103327  1
  Al  Al19  1  0.87547392  0.55233270  0.04362603  1
  Al  Al20  1  0.44886469  0.42479471  0.80934018  1
  Al  Al21  1  0.55016082  0.53979523  0.56313380  1
  Al  Al22  1  0.11808418  0.75497186  0.38187335  1
  Al  Al23  1  0.21613746  0.86647734  0.13549397  1
  Al  Al24  1  0.77466587  0.76761375  0.80717637  1
  Al  Al25  1  0.88198919  0.87538411  0.55846524  1
  Al  Al26  1  0.44832087  0.75865014  0.31404343  1
  Al  Al27  1  0.56259963  0.86844854  0.06193662  1
  Al  Al28  1  0.11621141  0.76270072  0.88081360  1
  Al  Al29  1  0.22088257  0.86654170  0.62770786  1
  Al  Al30  1  0.78232068  0.76182757  0.30928064  1
  Al  Al31  1  0.88205011  0.87638746  0.06069940  1
  Al  Al32  1  0.44826594  0.76208233  0.81036486  1
  Al  Al33  1  0.55846908  0.86845792  0.55982251  1
  Gd  Gd34  1  0.22610844  0.20026931  0.07499966  1
  Gd  Gd35  1  0.78161144  0.42230435  0.30647904  1
  N  N36  1  0.22794019  0.19680354  0.36440722  1
  N  N37  1  0.08256320  0.09126697  0.13419717  1
  N  N38  1  0.88742662  0.20508894  0.86273660  1
  N  N39  1  0.77648304  0.09161857  0.62452756  1
  N  N40  1  0.55804752  0.20634052  0.37383428  1
  N  N41  1  0.48209479  0.07687052  0.13387269  1
  N  N42  1  0.22125029  0.20850921  0.85094881  1
  N  N43  1  0.11020324  0.09652381  0.61584093  1
  N  N44  1  0.89969329  0.17506021  0.38628116  1
  N  N45  1  0.77789055  0.09692752  0.12102134  1
  N  N46  1  0.55361574  0.20669631  0.87234514  1
  N  N47  1  0.44950645  0.09049359  0.61764509  1
  N  N48  1  0.21597044  0.54036100  0.31473467  1
  N  N49  1  0.09735888  0.46286343  0.05553704  1
  N  N50  1  0.87864438  0.54727929  0.85551223  1
  N  N51  1  0.77681099  0.42663537  0.61618977  1
  N  N52  1  0.52802987  0.55009824  0.38081101  1
  N  N53  1  0.44975533  0.42635769  0.11968062  1
  N  N54  1  0.21711836  0.54795767  0.81546817  1
  N  N55  1  0.11907139  0.42495297  0.57450973  1
  N  N56  1  0.89562430  0.55571521  0.38134713  1
  N  N57  1  0.77610483  0.43009107  0.08797048  1
  N  N58  1  0.55028474  0.54244311  0.86556665  1
  N  N59  1  0.45105822  0.42177863  0.62258953  1
  N  N60  1  0.22388954  0.86276601  0.32450475  1
  N  N61  1  0.11494545  0.76190788  0.06702246  1
  N  N62  1  0.88196946  0.87647367  0.87250094  1
  N  N63  1  0.77660635  0.76486985  0.62264084  1
  N  N64  1  0.56034236  0.86618280  0.37357383  1
  N  N65  1  0.45006304  0.75995549  0.12072470  1
  N  N66  1  0.21787936  0.87412962  0.81892309  1
  N  N67  1  0.11569379  0.75612149  0.56752689  1
  N  N68  1  0.88477105  0.87325325  0.36971473  1
  N  N69  1  0.77937378  0.75950668  0.12152991  1
  N  N70  1  0.55305894  0.87658170  0.87265815  1
  N  N71  1  0.45175287  0.75865778  0.62202184  1
