# generated using pymatgen
data_GdAl17N18
_symmetry_space_group_name_H-M   'P 1'
_cell_length_a   9.48835142
_cell_length_b   9.52405913
_cell_length_c   10.42650178
_cell_angle_alpha   90.00008669
_cell_angle_beta   89.72755425
_cell_angle_gamma   59.87863453
_symmetry_Int_Tables_number   1
_chemical_formula_structural   GdAl17N18
_chemical_formula_sum   'Gd2 Al34 N36'
_cell_volume   814.97278968
_cell_formula_units_Z   2
loop_
 _symmetry_equiv_pos_site_id
 _symmetry_equiv_pos_as_xyz
  1  'x, y, z'
loop_
 _atom_site_type_symbol
 _atom_site_label
 _atom_site_symmetry_multiplicity
 _atom_site_fract_x
 _atom_site_fract_y
 _atom_site_fract_z
 _atom_site_occupancy
  Al  Al0  1  0.12238753  0.08171069  0.40713070  1
  Al  Al1  1  0.77800107  0.09104608  0.81700661  1
  Al  Al2  1  0.88519339  0.20269130  0.57929216  1
  Al  Al3  1  0.44596627  0.09367993  0.38590805  1
  Al  Al4  1  0.56081979  0.20766816  0.06954954  1
  Al  Al5  1  0.11422988  0.08639112  0.88060473  1
  Al  Al6  1  0.22386588  0.20473302  0.64370181  1
  Al  Al7  1  0.78113093  0.08907157  0.32047393  1
  Al  Al8  1  0.87822506  0.20455768  0.05286738  1
  Al  Al9  1  0.44784702  0.09273892  0.85924356  1
  Al  Al10  1  0.55887028  0.20898231  0.57457868  1
  Al  Al11  1  0.12238627  0.42922893  0.40713109  1
  Al  Al12  1  0.21345653  0.54767642  0.13888980  1
  Al  Al13  1  0.77540143  0.42896348  0.81517903  1
  Al  Al14  1  0.88519200  0.54544906  0.57929252  1
  Al  Al15  1  0.44437631  0.42646579  0.32052943  1
  Al  Al16  1  0.55246786  0.54043191  0.06229433  1
  Al  Al17  1  0.11422887  0.43270678  0.88060488  1
  Al  Al18  1  0.21729600  0.54520948  0.64325248  1
  Al  Al19  1  0.87822303  0.55055208  0.05286749  1
  Al  Al20  1  0.45023950  0.42590181  0.81884103  1
  Al  Al21  1  0.54760271  0.54286456  0.57192864  1
  Al  Al22  1  0.11768192  0.75782278  0.38867097  1
  Al  Al23  1  0.21345872  0.87219897  0.13888998  1
  Al  Al24  1  0.77800072  0.76428116  0.81700672  1
  Al  Al25  1  0.88232291  0.87550490  0.56675687  1
  Al  Al26  1  0.44437711  0.76248572  0.32052874  1
  Al  Al27  1  0.56082054  0.86483866  0.06954876  1
  Al  Al28  1  0.11616232  0.75858295  0.89385589  1
  Al  Al29  1  0.21729633  0.87082633  0.64325278  1
  Al  Al30  1  0.78112982  0.76312541  0.32047372  1
  Al  Al31  1  0.88032573  0.87650372  0.07180193  1
  Al  Al32  1  0.45023981  0.75718586  0.81884123  1
  Al  Al33  1  0.55886961  0.86547928  0.57457812  1
  Gd  Gd34  1  0.21272115  0.21030660  0.14149434  1
  Gd  Gd35  1  0.78122638  0.42604914  0.31900460  1
  N  N36  1  0.22028253  0.20652553  0.36052561  1
  N  N37  1  0.10375790  0.07334341  0.06158678  1
  N  N38  1  0.88099174  0.20807934  0.86667717  1
  N  N39  1  0.77831976  0.08999784  0.63449702  1
  N  N40  1  0.55842450  0.20998735  0.38596143  1
  N  N41  1  0.46920266  0.08206302  0.09920689  1
  N  N42  1  0.22004562  0.20664428  0.83159287  1
  N  N43  1  0.11893361  0.08869962  0.59168145  1
  N  N44  1  0.89635672  0.17953181  0.39613247  1
  N  N45  1  0.77916477  0.09663379  0.13364901  1
  N  N46  1  0.55766159  0.20982742  0.88064086  1
  N  N47  1  0.44926586  0.09203002  0.60435321  1
  N  N48  1  0.21401808  0.54078008  0.32563361  1
  N  N49  1  0.10375841  0.45622579  0.06158667  1
  N  N50  1  0.88099084  0.54426400  0.86667639  1
  N  N51  1  0.77584151  0.42874223  0.62658902  1
  N  N52  1  0.52309298  0.55511993  0.39138377  1
  N  N53  1  0.45152611  0.42587490  0.13214966  1
  N  N54  1  0.21737206  0.54656206  0.82609657  1
  N  N55  1  0.11893288  0.42569256  0.59168069  1
  N  N56  1  0.89635545  0.55744525  0.39613261  1
  N  N57  1  0.78223159  0.42554733  0.10113513  1
  N  N58  1  0.55209186  0.54061988  0.87834354  1
  N  N59  1  0.45100589  0.42447302  0.63425724  1
  N  N60  1  0.21401822  0.87853434  0.32563430  1
  N  N61  1  0.11497224  0.75917646  0.07905086  1
  N  N62  1  0.88075653  0.87628938  0.88456551  1
  N  N63  1  0.77832017  0.76500949  0.63449685  1
  N  N64  1  0.55842341  0.86492399  0.38596237  1
  N  N65  1  0.45152649  0.75592220  0.13214920  1
  N  N66  1  0.21737169  0.86939986  0.82609683  1
  N  N67  1  0.11762686  0.75784929  0.57438243  1
  N  N68  1  0.88270403  0.87531540  0.38003848  1
  N  N69  1  0.77916517  0.75752958  0.13364846  1
  N  N70  1  0.55766118  0.86584490  0.88064043  1
  N  N71  1  0.45100614  0.75784543  0.63425734  1
