# generated using pymatgen
data_GdAl17N18
_symmetry_space_group_name_H-M   'P 1'
_cell_length_a   9.48759834
_cell_length_b   9.52456115
_cell_length_c   10.43110231
_cell_angle_alpha   89.99977128
_cell_angle_beta   89.73525294
_cell_angle_gamma   59.87717591
_symmetry_Int_Tables_number   1
_chemical_formula_structural   GdAl17N18
_chemical_formula_sum   'Gd2 Al34 N36'
_cell_volume   815.29930197
_cell_formula_units_Z   2
loop_
 _symmetry_equiv_pos_site_id
 _symmetry_equiv_pos_as_xyz
  1  'x, y, z'
loop_
 _atom_site_type_symbol
 _atom_site_label
 _atom_site_symmetry_multiplicity
 _atom_site_fract_x
 _atom_site_fract_y
 _atom_site_fract_z
 _atom_site_occupancy
  Al  Al0  1  0.12160042  0.08292215  0.40579137  1
  Al  Al1  1  0.78264060  0.08818124  0.81534519  1
  Al  Al2  1  0.88556410  0.20079794  0.57808191  1
  Al  Al3  1  0.44745006  0.09294311  0.39641076  1
  Al  Al4  1  0.55547726  0.20699632  0.13804729  1
  Al  Al5  1  0.11456588  0.08805810  0.87932155  1
  Al  Al6  1  0.22447524  0.20443130  0.64344585  1
  Al  Al7  1  0.78651187  0.08567069  0.31965637  1
  Al  Al8  1  0.87751389  0.20418740  0.05145115  1
  Al  Al9  1  0.45230280  0.09051445  0.88676538  1
  Al  Al10  1  0.54959143  0.20747534  0.63992280  1
  Al  Al11  1  0.12160043  0.42880501  0.40579150  1
  Al  Al12  1  0.21893188  0.54425234  0.13801663  1
  Al  Al13  1  0.77507562  0.42912680  0.81459833  1
  Al  Al14  1  0.88556365  0.54697628  0.57808290  1
  Al  Al15  1  0.43852267  0.42506162  0.38928431  1
  Al  Al16  1  0.55496811  0.53918398  0.06677384  1
  Al  Al17  1  0.11456367  0.43070481  0.87932242  1
  Al  Al18  1  0.22196462  0.54228568  0.64168608  1
  Al  Al19  1  0.87751340  0.55163787  0.05145134  1
  Al  Al20  1  0.44069991  0.42412444  0.88411985  1
  Al  Al21  1  0.55280274  0.54026811  0.58978828  1
  Al  Al22  1  0.11953996  0.75689202  0.38691980  1
  Al  Al23  1  0.21893226  0.87015235  0.13801566  1
  Al  Al24  1  0.78264093  0.76250820  0.81534476  1
  Al  Al25  1  0.88371543  0.87481168  0.56479759  1
  Al  Al26  1  0.43852558  0.76974256  0.38928531  1
  Al  Al27  1  0.55547518  0.87086579  0.13804673  1
  Al  Al28  1  0.11755301  0.75788673  0.89190986  1
  Al  Al29  1  0.22196339  0.86908598  0.64168660  1
  Al  Al30  1  0.78651166  0.76114665  0.31965762  1
  Al  Al31  1  0.88219411  0.87557318  0.06991565  1
  Al  Al32  1  0.44070145  0.76850398  0.88412040  1
  Al  Al33  1  0.54959090  0.87627406  0.63992278  1
  Gd  Gd34  1  0.21867274  0.20733672  0.13955304  1
  Gd  Gd35  1  0.78681295  0.42325446  0.31666937  1
  N  N36  1  0.21768584  0.20782627  0.35743422  1
  N  N37  1  0.10353679  0.07593230  0.06243034  1
  N  N38  1  0.88082624  0.20787025  0.86686966  1
  N  N39  1  0.78252445  0.08681547  0.63251461  1
  N  N40  1  0.54844364  0.20742715  0.32641634  1
  N  N41  1  0.47681950  0.07825229  0.06724419  1
  N  N42  1  0.22405250  0.20464394  0.83199531  1
  N  N43  1  0.11875262  0.08922593  0.59190152  1
  N  N44  1  0.89600489  0.17748284  0.39695534  1
  N  N45  1  0.78591216  0.09258520  0.13301851  1
  N  N46  1  0.54893348  0.20882173  0.82439629  1
  N  N47  1  0.44779357  0.09276666  0.58026876  1
  N  N48  1  0.22075990  0.53684174  0.32490027  1
  N  N49  1  0.10353271  0.45385862  0.06243041  1
  N  N50  1  0.88082394  0.54464739  0.86686818  1
  N  N51  1  0.77897285  0.42717666  0.62709399  1
  N  N52  1  0.53175360  0.55080108  0.36669837  1
  N  N53  1  0.44142873  0.42329733  0.07312410  1
  N  N54  1  0.22148708  0.54342475  0.82412063  1
  N  N55  1  0.11874956  0.42534641  0.59190027  1
  N  N56  1  0.89600233  0.55985477  0.39695442  1
  N  N57  1  0.77974998  0.42678866  0.09840944  1
  N  N58  1  0.55135187  0.54099594  0.85987467  1
  N  N59  1  0.44180006  0.42304723  0.57826822  1
  N  N60  1  0.22076053  0.87573620  0.32490117  1
  N  N61  1  0.11717259  0.75807688  0.07855528  1
  N  N62  1  0.88224397  0.87554861  0.88423803  1
  N  N63  1  0.78252390  0.76398521  0.63251386  1
  N  N64  1  0.54844309  0.87747482  0.32641679  1
  N  N65  1  0.44143085  0.76859731  0.07312322  1
  N  N66  1  0.22148705  0.86842764  0.82412090  1
  N  N67  1  0.11916972  0.75707743  0.57403366  1
  N  N68  1  0.88492267  0.87420811  0.37960718  1
  N  N69  1  0.78590953  0.75483103  0.13301851  1
  N  N70  1  0.54893302  0.87558861  0.82439576  1
  N  N71  1  0.44180076  0.76848020  0.57826794  1
