# generated using pymatgen
data_GdAl17N18
_symmetry_space_group_name_H-M   'P 1'
_cell_length_a   9.53131266
_cell_length_b   9.51496444
_cell_length_c   10.30220591
_cell_angle_alpha   89.85742724
_cell_angle_beta   89.44528988
_cell_angle_gamma   60.07836947
_symmetry_Int_Tables_number   1
_chemical_formula_structural   GdAl17N18
_chemical_formula_sum   'Gd2 Al34 N36'
_cell_volume   809.73185994
_cell_formula_units_Z   2
loop_
 _symmetry_equiv_pos_site_id
 _symmetry_equiv_pos_as_xyz
  1  'x, y, z'
loop_
 _atom_site_type_symbol
 _atom_site_label
 _atom_site_symmetry_multiplicity
 _atom_site_fract_x
 _atom_site_fract_y
 _atom_site_fract_z
 _atom_site_occupancy
  Al  Al0  1  0.11564067  0.08730440  0.40857518  1
  Al  Al1  1  0.77871112  0.08778705  0.83179038  1
  Al  Al2  1  0.89578427  0.20399387  0.65800766  1
  Al  Al3  1  0.45039309  0.09189451  0.40749194  1
  Al  Al4  1  0.55075904  0.20855321  0.14509510  1
  Al  Al5  1  0.11166390  0.08882951  0.89360782  1
  Al  Al6  1  0.22725181  0.20173141  0.64886039  1
  Al  Al7  1  0.78405276  0.08306366  0.32342986  1
  Al  Al8  1  0.89125650  0.19938541  0.13792007  1
  Al  Al9  1  0.44735185  0.09242746  0.89573879  1
  Al  Al10  1  0.55252094  0.20921277  0.64799762  1
  Al  Al11  1  0.11618317  0.43125481  0.41524153  1
  Al  Al12  1  0.21659556  0.54651282  0.14943704  1
  Al  Al13  1  0.77162897  0.42403957  0.89321051  1
  Al  Al14  1  0.89436028  0.53632036  0.64618608  1
  Al  Al15  1  0.43814276  0.43055406  0.39546760  1
  Al  Al16  1  0.54459769  0.54403099  0.14252150  1
  Al  Al17  1  0.11650875  0.42938007  0.88928051  1
  Al  Al18  1  0.22603849  0.54213830  0.64998905  1
  Al  Al19  1  0.88058071  0.55020598  0.08288849  1
  Al  Al20  1  0.44162818  0.42748227  0.89958976  1
  Al  Al21  1  0.55330402  0.54022794  0.65586019  1
  Al  Al22  1  0.11790510  0.75745045  0.39682318  1
  Al  Al23  1  0.21844789  0.86998537  0.14895448  1
  Al  Al24  1  0.77776037  0.76721359  0.83138419  1
  Al  Al25  1  0.88356247  0.87532945  0.57656614  1
  Al  Al26  1  0.43900883  0.76601777  0.39569452  1
  Al  Al27  1  0.55095977  0.87407738  0.14641047  1
  Al  Al28  1  0.11900198  0.75753525  0.89974198  1
  Al  Al29  1  0.22380526  0.86772876  0.64848666  1
  Al  Al30  1  0.78691092  0.76075530  0.32469950  1
  Al  Al31  1  0.88183627  0.87641354  0.07575035  1
  Al  Al32  1  0.44166038  0.76350884  0.89886377  1
  Al  Al33  1  0.55226426  0.87202115  0.64886025  1
  Gd  Gd34  1  0.21351870  0.21189206  0.15546522  1
  Gd  Gd35  1  0.77357098  0.42756644  0.39670521  1
  N  N36  1  0.22480782  0.20557468  0.37432445  1
  N  N37  1  0.10124461  0.07739147  0.07417289  1
  N  N38  1  0.89131471  0.20399533  0.84422481  1
  N  N39  1  0.78245310  0.08928203  0.63937225  1
  N  N40  1  0.55041346  0.20925858  0.33814553  1
  N  N41  1  0.46613928  0.08341219  0.07862427  1
  N  N42  1  0.22319255  0.20368455  0.84045767  1
  N  N43  1  0.11276791  0.09089687  0.59573706  1
  N  N44  1  0.91570427  0.17697535  0.32518524  1
  N  N45  1  0.77531144  0.08985212  0.13319349  1
  N  N46  1  0.54825007  0.21076995  0.83698624  1
  N  N47  1  0.45134323  0.09081407  0.59322364  1
  N  N48  1  0.22127963  0.53723194  0.33796207  1
  N  N49  1  0.10187871  0.45631120  0.07184045  1
  N  N50  1  0.88581506  0.53992315  0.86167560  1
  N  N51  1  0.77977428  0.42674789  0.61866987  1
  N  N52  1  0.52091392  0.55742273  0.32448643  1
  N  N53  1  0.43905296  0.42792293  0.08583002  1
  N  N54  1  0.22493219  0.54184764  0.83471272  1
  N  N55  1  0.11787140  0.42702499  0.60392540  1
  N  N56  1  0.90654029  0.54928345  0.36645679  1
  N  N57  1  0.77255096  0.42680041  0.08702687  1
  N  N58  1  0.54971054  0.54096032  0.84251772  1
  N  N59  1  0.44780615  0.42837369  0.58568843  1
  N  N60  1  0.22198448  0.87432201  0.33790473  1
  N  N61  1  0.11458944  0.76005704  0.08909277  1
  N  N62  1  0.88600307  0.87317685  0.89041476  1
  N  N63  1  0.78315927  0.76280393  0.64368365  1
  N  N64  1  0.55029798  0.87609552  0.33727767  1
  N  N65  1  0.44080853  0.76528326  0.08513097  1
  N  N66  1  0.22397955  0.86849218  0.83413522  1
  N  N67  1  0.11785471  0.75763412  0.58556060  1
  N  N68  1  0.88473197  0.87511080  0.38962704  1
  N  N69  1  0.77808867  0.76377131  0.13435742  1
  N  N70  1  0.54784486  0.87422722  0.83730843  1
  N  N71  1  0.44734449  0.75848976  0.58615417  1
