# generated using pymatgen
data_GdAl17N18
_symmetry_space_group_name_H-M   'P 1'
_cell_length_a   9.53436197
_cell_length_b   9.52911391
_cell_length_c   10.19657847
_cell_angle_alpha   90.10528201
_cell_angle_beta   89.92181594
_cell_angle_gamma   60.05952971
_symmetry_Int_Tables_number   1
_chemical_formula_structural   GdAl17N18
_chemical_formula_sum   'Gd2 Al34 N36'
_cell_volume   802.76275899
_cell_formula_units_Z   2
loop_
 _symmetry_equiv_pos_site_id
 _symmetry_equiv_pos_as_xyz
  1  'x, y, z'
loop_
 _atom_site_type_symbol
 _atom_site_label
 _atom_site_symmetry_multiplicity
 _atom_site_fract_x
 _atom_site_fract_y
 _atom_site_fract_z
 _atom_site_occupancy
  Al  Al0  1  0.11306676  0.08748321  0.40688725  1
  Al  Al1  1  0.77212386  0.10111532  0.89663731  1
  Al  Al2  1  0.88755729  0.20299343  0.65573877  1
  Al  Al3  1  0.44768252  0.09245469  0.40688308  1
  Al  Al4  1  0.55868029  0.20503914  0.14688082  1
  Al  Al5  1  0.10917400  0.08926111  0.89193771  1
  Al  Al6  1  0.22243661  0.20468921  0.64665413  1
  Al  Al7  1  0.77665959  0.09612886  0.39468668  1
  Al  Al8  1  0.88841937  0.19655863  0.14297234  1
  Al  Al9  1  0.44830016  0.09323448  0.89222437  1
  Al  Al10  1  0.55717439  0.20631738  0.64732575  1
  Al  Al11  1  0.11453071  0.43255932  0.40735785  1
  Al  Al12  1  0.22108312  0.54378246  0.14776886  1
  Al  Al13  1  0.77657054  0.42670572  0.89869311  1
  Al  Al14  1  0.89004535  0.53776251  0.65859009  1
  Al  Al15  1  0.43938135  0.42983705  0.39671818  1
  Al  Al16  1  0.54730341  0.54282896  0.14205080  1
  Al  Al17  1  0.11157939  0.43242150  0.89181604  1
  Al  Al18  1  0.22395542  0.54024174  0.64765419  1
  Al  Al19  1  0.89179569  0.54229352  0.13613207  1
  Al  Al20  1  0.44290272  0.42697017  0.89787772  1
  Al  Al21  1  0.55330664  0.53996912  0.65536885  1
  Al  Al22  1  0.11939800  0.75716297  0.39476900  1
  Al  Al23  1  0.21952318  0.86943448  0.14789623  1
  Al  Al24  1  0.77603850  0.76330645  0.85966571  1
  Al  Al25  1  0.88668682  0.86746158  0.57977745  1
  Al  Al26  1  0.43904274  0.76577610  0.39652251  1
  Al  Al27  1  0.55177839  0.87363862  0.14160411  1
  Al  Al28  1  0.11908740  0.75668715  0.89620077  1
  Al  Al29  1  0.22328613  0.86887715  0.64764655  1
  Al  Al30  1  0.78198877  0.76825939  0.33016882  1
  Al  Al31  1  0.88823474  0.87246126  0.07936502  1
  Al  Al32  1  0.44152595  0.76279080  0.89809893  1
  Al  Al33  1  0.55530132  0.87041804  0.64869307  1
  Gd  Gd34  1  0.21875835  0.20761035  0.14829649  1
  Gd  Gd35  1  0.77719484  0.43182910  0.39486682  1
  N  N36  1  0.22185895  0.20569318  0.36981082  1
  N  N37  1  0.09838118  0.07712781  0.07537407  1
  N  N38  1  0.88693715  0.20471738  0.84150845  1
  N  N39  1  0.77540741  0.10033869  0.58710909  1
  N  N40  1  0.55430248  0.20601706  0.33812177  1
  N  N41  1  0.47016268  0.08323556  0.07703900  1
  N  N42  1  0.22165949  0.20518202  0.84126707  1
  N  N43  1  0.10864248  0.09229388  0.59542379  1
  N  N44  1  0.90590613  0.17676410  0.32864279  1
  N  N45  1  0.77115795  0.10111117  0.08654832  1
  N  N46  1  0.55497854  0.20785348  0.83463037  1
  N  N47  1  0.44817777  0.09221511  0.59422653  1
  N  N48  1  0.22344839  0.53651190  0.33783570  1
  N  N49  1  0.10157357  0.45645007  0.07376159  1
  N  N50  1  0.88900512  0.53609095  0.84678564  1
  N  N51  1  0.77789372  0.42718963  0.61475663  1
  N  N52  1  0.52388736  0.55541873  0.32695768  1
  N  N53  1  0.44210884  0.42594317  0.08633806  1
  N  N54  1  0.22517977  0.53919311  0.83412889  1
  N  N55  1  0.10941627  0.43070900  0.59590651  1
  N  N56  1  0.91297561  0.54544582  0.32389251  1
  N  N57  1  0.77765662  0.42685884  0.09352087  1
  N  N58  1  0.55242750  0.54014061  0.84444880  1
  N  N59  1  0.44586234  0.42789587  0.58711855  1
  N  N60  1  0.22249829  0.87446682  0.33774103  1
  N  N61  1  0.11773302  0.75763610  0.08898295  1
  N  N62  1  0.88991372  0.87200075  0.88437176  1
  N  N63  1  0.77889136  0.75912540  0.62530735  1
  N  N64  1  0.55061069  0.87551624  0.33548417  1
  N  N65  1  0.44046783  0.76482084  0.08564103  1
  N  N66  1  0.22419409  0.86861530  0.83424936  1
  N  N67  1  0.11809999  0.75710082  0.58598763  1
  N  N68  1  0.89053204  0.87105880  0.38248260  1
  N  N69  1  0.77414354  0.76573126  0.11650827  1
  N  N70  1  0.54954831  0.87275012  0.83858044  1
  N  N71  1  0.44570365  0.75946644  0.58708313  1
