# generated using pymatgen
data_GdAl17N18
_symmetry_space_group_name_H-M   'P 1'
_cell_length_a   9.52583742
_cell_length_b   9.52797870
_cell_length_c   10.14200428
_cell_angle_alpha   90.01182118
_cell_angle_beta   89.90978619
_cell_angle_gamma   59.99432300
_symmetry_Int_Tables_number   1
_chemical_formula_structural   GdAl17N18
_chemical_formula_sum   'Gd2 Al34 N36'
_cell_volume   797.13649475
_cell_formula_units_Z   2
loop_
 _symmetry_equiv_pos_site_id
 _symmetry_equiv_pos_as_xyz
  1  'x, y, z'
loop_
 _atom_site_type_symbol
 _atom_site_label
 _atom_site_symmetry_multiplicity
 _atom_site_fract_x
 _atom_site_fract_y
 _atom_site_fract_z
 _atom_site_occupancy
  Al  Al0  1  0.11313000  0.08703139  0.40545604  1
  Al  Al1  1  0.77522292  0.09596933  0.89458363  1
  Al  Al2  1  0.88765477  0.20477190  0.65530774  1
  Al  Al3  1  0.44710137  0.09315055  0.40526134  1
  Al  Al4  1  0.55942120  0.20421242  0.14598656  1
  Al  Al5  1  0.10958082  0.08912992  0.89108117  1
  Al  Al6  1  0.22214877  0.20556405  0.64659217  1
  Al  Al7  1  0.77892345  0.09093289  0.39402964  1
  Al  Al8  1  0.88901866  0.19613217  0.14124595  1
  Al  Al9  1  0.45094584  0.09117284  0.89126629  1
  Al  Al10  1  0.55627743  0.20723165  0.64688562  1
  Al  Al11  1  0.11321641  0.43327234  0.40543043  1
  Al  Al12  1  0.22073295  0.54376063  0.14681330  1
  Al  Al13  1  0.77744206  0.42793802  0.89789225  1
  Al  Al14  1  0.88767591  0.54087893  0.65531260  1
  Al  Al15  1  0.43838666  0.42996955  0.39563622  1
  Al  Al16  1  0.54729824  0.54306015  0.14095245  1
  Al  Al17  1  0.10963851  0.43455812  0.89102479  1
  Al  Al18  1  0.22422272  0.53980903  0.64724079  1
  Al  Al19  1  0.88910604  0.54825969  0.14111181  1
  Al  Al20  1  0.44316870  0.42692464  0.89718460  1
  Al  Al21  1  0.55306036  0.54011831  0.65482754  1
  Al  Al22  1  0.11380694  0.75982049  0.39395748  1
  Al  Al23  1  0.22068890  0.86893530  0.14681589  1
  Al  Al24  1  0.77522923  0.76213646  0.89456604  1
  Al  Al25  1  0.88981463  0.87173211  0.61824498  1
  Al  Al26  1  0.43832388  0.76512971  0.39561086  1
  Al  Al27  1  0.55940694  0.86976004  0.14593190  1
  Al  Al28  1  0.11438720  0.75945370  0.89434770  1
  Al  Al29  1  0.22420687  0.86929250  0.64724670  1
  Al  Al30  1  0.77899016  0.76364666  0.39386430  1
  Al  Al31  1  0.88888083  0.87227641  0.11510080  1
  Al  Al32  1  0.44315374  0.76322428  0.89715916  1
  Al  Al33  1  0.55631438  0.86975962  0.64683319  1
  Gd  Gd34  1  0.21989800  0.20675917  0.14509805  1
  Gd  Gd35  1  0.77657570  0.42861103  0.39174227  1
  N  N36  1  0.22091657  0.20625160  0.36775544  1
  N  N37  1  0.09891054  0.07646078  0.07480787  1
  N  N38  1  0.88686639  0.20560874  0.84160349  1
  N  N39  1  0.77624295  0.09942962  0.58670252  1
  N  N40  1  0.55457065  0.20615287  0.33791824  1
  N  N41  1  0.47322201  0.08007485  0.07764708  1
  N  N42  1  0.22227688  0.20548952  0.84210036  1
  N  N43  1  0.10875470  0.09288493  0.59502241  1
  N  N44  1  0.90635708  0.17460252  0.32748870  1
  N  N45  1  0.77351825  0.09717677  0.08422490  1
  N  N46  1  0.55556197  0.20788843  0.83453278  1
  N  N47  1  0.44800370  0.09263326  0.59361898  1
  N  N48  1  0.22218746  0.53747265  0.33740045  1
  N  N49  1  0.09900683  0.45796589  0.07472515  1
  N  N50  1  0.88688568  0.54082614  0.84160110  1
  N  N51  1  0.77713240  0.42808106  0.61272056  1
  N  N52  1  0.52264427  0.55540444  0.32625843  1
  N  N53  1  0.44227213  0.42557582  0.08607609  1
  N  N54  1  0.22511566  0.53967480  0.83422247  1
  N  N55  1  0.10876524  0.43164964  0.59501331  1
  N  N56  1  0.90656015  0.55256436  0.32730898  1
  N  N57  1  0.77865814  0.42738704  0.09459999  1
  N  N58  1  0.55289127  0.54020398  0.84446475  1
  N  N59  1  0.44562732  0.42828411  0.58673820  1
  N  N60  1  0.22211039  0.87384610  0.33739972  1
  N  N61  1  0.11532975  0.75901747  0.08660333  1
  N  N62  1  0.88972950  0.87179195  0.85165939  1
  N  N63  1  0.77627496  0.75756981  0.58657662  1
  N  N64  1  0.55458608  0.87267963  0.33786173  1
  N  N65  1  0.44222778  0.76554987  0.08605350  1
  N  N66  1  0.22508431  0.86852741  0.83423879  1
  N  N67  1  0.11644677  0.75842222  0.58561812  1
  N  N68  1  0.89041170  0.87158599  0.35639538  1
  N  N69  1  0.77351870  0.76271909  0.08418860  1
  N  N70  1  0.55558215  0.86982377  0.83449457  1
  N  N71  1  0.44561666  0.75938393  0.58671644  1
