# generated using pymatgen
data_GdAl17N18
_symmetry_space_group_name_H-M   'P 1'
_cell_length_a   9.51185366
_cell_length_b   9.57611018
_cell_length_c   10.42958510
_cell_angle_alpha   90.01995547
_cell_angle_beta   90.17790533
_cell_angle_gamma   59.76498700
_symmetry_Int_Tables_number   1
_chemical_formula_structural   GdAl17N18
_chemical_formula_sum   'Gd2 Al34 N36'
_cell_volume   820.75981124
_cell_formula_units_Z   2
loop_
 _symmetry_equiv_pos_site_id
 _symmetry_equiv_pos_as_xyz
  1  'x, y, z'
loop_
 _atom_site_type_symbol
 _atom_site_label
 _atom_site_symmetry_multiplicity
 _atom_site_fract_x
 _atom_site_fract_y
 _atom_site_fract_z
 _atom_site_occupancy
  Al  Al0  1  0.11872114  0.08524756  0.40527604  1
  Al  Al1  1  0.78090753  0.08960610  0.81536532  1
  Al  Al2  1  0.88557807  0.20251559  0.57700561  1
  Al  Al3  1  0.44046262  0.09684238  0.40493937  1
  Al  Al4  1  0.56633503  0.20448710  0.06212165  1
  Al  Al5  1  0.11494910  0.08623702  0.88278293  1
  Al  Al6  1  0.22331960  0.20492012  0.64658583  1
  Al  Al7  1  0.77666366  0.09083884  0.32012520  1
  Al  Al8  1  0.87898475  0.20465316  0.05319063  1
  Al  Al9  1  0.44735300  0.09227224  0.88052726  1
  Al  Al10  1  0.56221022  0.20213568  0.58373463  1
  Al  Al11  1  0.12002686  0.42944398  0.40485277  1
  Al  Al12  1  0.22354661  0.54298313  0.13800835  1
  Al  Al13  1  0.77875340  0.42665862  0.81377243  1
  Al  Al14  1  0.88657609  0.54465915  0.57732141  1
  Al  Al15  1  0.43241342  0.43061585  0.39911114  1
  Al  Al16  1  0.55454191  0.54591728  0.05307774  1
  Al  Al17  1  0.11409760  0.43156212  0.88200645  1
  Al  Al18  1  0.21962588  0.54285267  0.64414088  1
  Al  Al19  1  0.87965005  0.55014087  0.05352041  1
  Al  Al20  1  0.43813809  0.43115716  0.87727849  1
  Al  Al21  1  0.55265442  0.54209192  0.58093722  1
  Al  Al22  1  0.11573279  0.75818807  0.38605926  1
  Al  Al23  1  0.22114575  0.86836717  0.13824338  1
  Al  Al24  1  0.78147848  0.76282775  0.81572685  1
  Al  Al25  1  0.88463252  0.87385352  0.56435750  1
  Al  Al26  1  0.43763907  0.76870236  0.35942735  1
  Al  Al27  1  0.56307082  0.86000794  0.06125785  1
  Al  Al28  1  0.11571162  0.75948145  0.89549744  1
  Al  Al29  1  0.21365069  0.87284579  0.64238852  1
  Al  Al30  1  0.77757731  0.76510074  0.31954524  1
  Al  Al31  1  0.88196121  0.87542680  0.07286734  1
  Al  Al32  1  0.44764260  0.75971145  0.82135499  1
  Al  Al33  1  0.56158535  0.86656851  0.58150345  1
  Gd  Gd34  1  0.22044904  0.20628297  0.14092172  1
  Gd  Gd35  1  0.77704400  0.42818726  0.31560840  1
  N  N36  1  0.21864450  0.20719837  0.35869294  1
  N  N37  1  0.10416082  0.07442829  0.06509588  1
  N  N38  1  0.88264803  0.20686926  0.86716909  1
  N  N39  1  0.78305684  0.08696068  0.63333624  1
  N  N40  1  0.55976141  0.20362732  0.38637473  1
  N  N41  1  0.46855372  0.08177467  0.06866358  1
  N  N42  1  0.22137496  0.20553327  0.83299379  1
  N  N43  1  0.11806475  0.09006100  0.59042948  1
  N  N44  1  0.89340132  0.18125175  0.39382033  1
  N  N45  1  0.77797538  0.09732837  0.13266906  1
  N  N46  1  0.56163838  0.20526788  0.86742874  1
  N  N47  1  0.44425871  0.09361142  0.59455060  1
  N  N48  1  0.22196491  0.53666830  0.32645478  1
  N  N49  1  0.10496121  0.45455346  0.06481030  1
  N  N50  1  0.88264873  0.54347948  0.86697640  1
  N  N51  1  0.77950748  0.42666360  0.62672969  1
  N  N52  1  0.52961419  0.55554657  0.39658068  1
  N  N53  1  0.44015949  0.43171184  0.07184818  1
  N  N54  1  0.21772382  0.54607173  0.82560735  1
  N  N55  1  0.11850286  0.42509217  0.59108324  1
  N  N56  1  0.89471168  0.55829418  0.39361475  1
  N  N57  1  0.78064302  0.42667969  0.09810528  1
  N  N58  1  0.55613327  0.54018826  0.86504202  1
  N  N59  1  0.43876221  0.42773339  0.59178354  1
  N  N60  1  0.21562458  0.87824820  0.32811967  1
  N  N61  1  0.11532724  0.75895600  0.08240511  1
  N  N62  1  0.88230572  0.87560334  0.88506449  1
  N  N63  1  0.78247157  0.76326655  0.63337335  1
  N  N64  1  0.55896027  0.86859939  0.38976159  1
  N  N65  1  0.44623063  0.76011151  0.10761039  1
  N  N66  1  0.21561816  0.87035761  0.82532867  1
  N  N67  1  0.11770590  0.75680235  0.57318726  1
  N  N68  1  0.88254782  0.87509514  0.37713940  1
  N  N69  1  0.77740659  0.75891011  0.13229804  1
  N  N70  1  0.56148584  0.86404022  0.87011186  1
  N  N71  1  0.44583414  0.76233672  0.62648889  1
