# generated using pymatgen
data_GdAl17N18
_symmetry_space_group_name_H-M   'P 1'
_cell_length_a   9.53899964
_cell_length_b   9.51596867
_cell_length_c   10.25841339
_cell_angle_alpha   90.09025337
_cell_angle_beta   89.84765040
_cell_angle_gamma   59.97534369
_symmetry_Int_Tables_number   1
_chemical_formula_structural   GdAl17N18
_chemical_formula_sum   'Gd2 Al34 N36'
_cell_volume   806.22215272
_cell_formula_units_Z   2
loop_
 _symmetry_equiv_pos_site_id
 _symmetry_equiv_pos_as_xyz
  1  'x, y, z'
loop_
 _atom_site_type_symbol
 _atom_site_label
 _atom_site_symmetry_multiplicity
 _atom_site_fract_x
 _atom_site_fract_y
 _atom_site_fract_z
 _atom_site_occupancy
  Al  Al0  1  0.10939483  0.08840473  0.32073283  1
  Al  Al1  1  0.77716235  0.09160780  0.81017523  1
  Al  Al2  1  0.88877192  0.20102697  0.56623236  1
  Al  Al3  1  0.45297216  0.09026569  0.31601989  1
  Al  Al4  1  0.56103435  0.20364744  0.06176526  1
  Al  Al5  1  0.11110439  0.09131424  0.79977723  1
  Al  Al6  1  0.22353589  0.20661323  0.55953847  1
  Al  Al7  1  0.78083031  0.08842711  0.31038602  1
  Al  Al8  1  0.88531097  0.20040842  0.05065540  1
  Al  Al9  1  0.44625510  0.09344304  0.80250571  1
  Al  Al10  1  0.55734168  0.20626786  0.56023937  1
  Al  Al11  1  0.10878385  0.43322315  0.31953821  1
  Al  Al12  1  0.21713890  0.54861129  0.13452928  1
  Al  Al13  1  0.77644861  0.42829131  0.81132112  1
  Al  Al14  1  0.88961255  0.54408163  0.56574357  1
  Al  Al15  1  0.44847490  0.42518348  0.31467201  1
  Al  Al16  1  0.55151080  0.54001624  0.05088460  1
  Al  Al17  1  0.10635044  0.42694895  0.80117773  1
  Al  Al18  1  0.22089389  0.54587741  0.62823807  1
  Al  Al19  1  0.88520557  0.54544897  0.05012508  1
  Al  Al20  1  0.44856511  0.42418877  0.81115820  1
  Al  Al21  1  0.55258148  0.54033759  0.56574462  1
  Al  Al22  1  0.11456773  0.75579348  0.38240799  1
  Al  Al23  1  0.22008221  0.86863364  0.09484830  1
  Al  Al24  1  0.77591304  0.76495853  0.81032445  1
  Al  Al25  1  0.88082029  0.87651599  0.56108405  1
  Al  Al26  1  0.44495316  0.76193740  0.31572380  1
  Al  Al27  1  0.56088999  0.86812363  0.06173213  1
  Al  Al28  1  0.11561818  0.75811165  0.88051030  1
  Al  Al29  1  0.22728964  0.87281640  0.56914023  1
  Al  Al30  1  0.78054903  0.76449665  0.31037954  1
  Al  Al31  1  0.88006414  0.87535635  0.06193604  1
  Al  Al32  1  0.44160331  0.76467584  0.80952296  1
  Al  Al33  1  0.55838784  0.87064187  0.56029436  1
  Gd  Gd34  1  0.22346908  0.20232954  0.06186487  1
  Gd  Gd35  1  0.78147444  0.42659741  0.30751106  1
  N  N36  1  0.22314897  0.20542474  0.36615242  1
  N  N37  1  0.08864646  0.08558951  0.13544787  1
  N  N38  1  0.89054411  0.20190054  0.86277899  1
  N  N39  1  0.77563108  0.09345123  0.62432748  1
  N  N40  1  0.55900710  0.20584396  0.37294858  1
  N  N41  1  0.47602168  0.07855198  0.13209302  1
  N  N42  1  0.22143193  0.20549144  0.84337577  1
  N  N43  1  0.11176999  0.09520515  0.61367938  1
  N  N44  1  0.89850213  0.17819209  0.38435191  1
  N  N45  1  0.77772315  0.09534003  0.12081587  1
  N  N46  1  0.55421485  0.20463176  0.87199460  1
  N  N47  1  0.44754117  0.09350282  0.61445349  1
  N  N48  1  0.22421993  0.54300163  0.32461263  1
  N  N49  1  0.08781991  0.45289190  0.13039895  1
  N  N50  1  0.88870588  0.54143412  0.86307272  1
  N  N51  1  0.77824587  0.42827975  0.61806823  1
  N  N52  1  0.53124736  0.55105315  0.38208821  1
  N  N53  1  0.45037074  0.42490968  0.12026272  1
  N  N54  1  0.21866791  0.54316912  0.82085732  1
  N  N55  1  0.11022352  0.42717378  0.61385749  1
  N  N56  1  0.89991995  0.55708148  0.38414719  1
  N  N57  1  0.77679990  0.42744546  0.08745440  1
  N  N58  1  0.55126482  0.54200038  0.86484322  1
  N  N59  1  0.45115720  0.42307271  0.62220099  1
  N  N60  1  0.22769446  0.87047215  0.36444151  1
  N  N61  1  0.11067551  0.75734326  0.07228875  1
  N  N62  1  0.88225844  0.87517013  0.87276077  1
  N  N63  1  0.77575398  0.76493150  0.62444710  1
  N  N64  1  0.55963368  0.86831168  0.37292675  1
  N  N65  1  0.44740942  0.75879638  0.12412462  1
  N  N66  1  0.22229191  0.87571323  0.85645656  1
  N  N67  1  0.11157602  0.75988256  0.57159003  1
  N  N68  1  0.88372300  0.87488587  0.36993817  1
  N  N69  1  0.77715677  0.75864722  0.12087648  1
  N  N70  1  0.55370295  0.87408143  0.87174911  1
  N  N71  1  0.44775714  0.76222678  0.62153919  1
