# generated using pymatgen
data_GdAl17N18
_symmetry_space_group_name_H-M   'P 1'
_cell_length_a   9.51614216
_cell_length_b   9.58446443
_cell_length_c   10.42109460
_cell_angle_alpha   89.98492116
_cell_angle_beta   90.16926257
_cell_angle_gamma   59.75408361
_symmetry_Int_Tables_number   1
_chemical_formula_structural   GdAl17N18
_chemical_formula_sum   'Gd2 Al34 N36'
_cell_volume   821.08557530
_cell_formula_units_Z   2
loop_
 _symmetry_equiv_pos_site_id
 _symmetry_equiv_pos_as_xyz
  1  'x, y, z'
loop_
 _atom_site_type_symbol
 _atom_site_label
 _atom_site_symmetry_multiplicity
 _atom_site_fract_x
 _atom_site_fract_y
 _atom_site_fract_z
 _atom_site_occupancy
  Al  Al0  1  0.12074897  0.08361287  0.40520265  1
  Al  Al1  1  0.78532598  0.08715937  0.81617846  1
  Al  Al2  1  0.88531000  0.20134445  0.57577793  1
  Al  Al3  1  0.44465028  0.09948693  0.40591669  1
  Al  Al4  1  0.56547394  0.20485285  0.07673130  1
  Al  Al5  1  0.11403790  0.08814308  0.88169848  1
  Al  Al6  1  0.22082313  0.20561142  0.64527279  1
  Al  Al7  1  0.77656061  0.09066522  0.32045208  1
  Al  Al8  1  0.88117030  0.20399584  0.05364498  1
  Al  Al9  1  0.44643475  0.09369962  0.87698904  1
  Al  Al10  1  0.55502873  0.20604624  0.62236845  1
  Al  Al11  1  0.12029010  0.42979943  0.40504060  1
  Al  Al12  1  0.22274489  0.54255188  0.13893845  1
  Al  Al13  1  0.77672488  0.42824317  0.81217103  1
  Al  Al14  1  0.88592151  0.54565853  0.57663361  1
  Al  Al15  1  0.43629212  0.42425728  0.39776538  1
  Al  Al16  1  0.55919013  0.53739657  0.05390996  1
  Al  Al17  1  0.11319994  0.43147742  0.88145464  1
  Al  Al18  1  0.21785699  0.54476544  0.64318285  1
  Al  Al19  1  0.87987313  0.54954876  0.05380939  1
  Al  Al20  1  0.43741937  0.43038758  0.87569918  1
  Al  Al21  1  0.55261300  0.54016648  0.57858708  1
  Al  Al22  1  0.11770821  0.75765603  0.38549987  1
  Al  Al23  1  0.22319029  0.86754983  0.13846370  1
  Al  Al24  1  0.78039855  0.76253659  0.81462712  1
  Al  Al25  1  0.88441261  0.87491304  0.56296015  1
  Al  Al26  1  0.43350837  0.77082238  0.39651874  1
  Al  Al27  1  0.56730748  0.86275526  0.05995476  1
  Al  Al28  1  0.11490067  0.75888689  0.89442608  1
  Al  Al29  1  0.21895913  0.87058725  0.64326531  1
  Al  Al30  1  0.77641890  0.76657212  0.32060173  1
  Al  Al31  1  0.88400567  0.87404889  0.07293281  1
  Al  Al32  1  0.43767023  0.76444727  0.87503159  1
  Al  Al33  1  0.56182034  0.86882961  0.58188985  1
  Gd  Gd34  1  0.22261460  0.20563588  0.14285568  1
  Gd  Gd35  1  0.77942963  0.42670154  0.31778041  1
  N  N36  1  0.21931517  0.20724839  0.36056108  1
  N  N37  1  0.10621822  0.07462875  0.06498149  1
  N  N38  1  0.88189376  0.20814240  0.86803180  1
  N  N39  1  0.78441051  0.08605480  0.63379598  1
  N  N40  1  0.55682683  0.20481916  0.36705619  1
  N  N41  1  0.46921871  0.08399787  0.06323442  1
  N  N42  1  0.21993754  0.20646358  0.83212436  1
  N  N43  1  0.11725565  0.08958608  0.59148112  1
  N  N44  1  0.89579083  0.17843643  0.39326091  1
  N  N45  1  0.78165755  0.09524729  0.13031762  1
  N  N46  1  0.55666944  0.20723191  0.84420385  1
  N  N47  1  0.44322579  0.09532699  0.59561991  1
  N  N48  1  0.22256783  0.53623060  0.32645870  1
  N  N49  1  0.10509666  0.45340035  0.06504490  1
  N  N50  1  0.88141580  0.54365903  0.86741685  1
  N  N51  1  0.77869127  0.42694892  0.62554013  1
  N  N52  1  0.53134666  0.55049420  0.39015997  1
  N  N53  1  0.44031439  0.42883758  0.06920573  1
  N  N54  1  0.21669593  0.54627684  0.82531267  1
  N  N55  1  0.11742848  0.42609405  0.59166586  1
  N  N56  1  0.89501764  0.55949092  0.39373386  1
  N  N57  1  0.78127260  0.42596037  0.09984725  1
  N  N58  1  0.55578881  0.53833582  0.86378591  1
  N  N59  1  0.43772653  0.42760821  0.59071594  1
  N  N60  1  0.22196957  0.87525970  0.32602010  1
  N  N61  1  0.11705748  0.75791921  0.08175722  1
  N  N62  1  0.88210543  0.87472853  0.88537247  1
  N  N63  1  0.78233998  0.76380116  0.63296837  1
  N  N64  1  0.55975582  0.87155568  0.38694745  1
  N  N65  1  0.44005834  0.76331688  0.07228647  1
  N  N66  1  0.21682382  0.87005952  0.82538470  1
  N  N67  1  0.11744315  0.75814191  0.57355741  1
  N  N68  1  0.88451950  0.87448430  0.37589747  1
  N  N69  1  0.77793655  0.75854790  0.13215676  1
  N  N70  1  0.56127642  0.86613051  0.86668972  1
  N  N71  1  0.43811869  0.76707396  0.59125488  1
