# generated using pymatgen
data_GdAl17N18
_symmetry_space_group_name_H-M   'P 1'
_cell_length_a   9.48611669
_cell_length_b   9.52427637
_cell_length_c   10.43836350
_cell_angle_alpha   89.99967726
_cell_angle_beta   89.74493107
_cell_angle_gamma   59.87555594
_symmetry_Int_Tables_number   1
_chemical_formula_structural   GdAl17N18
_chemical_formula_sum   'Gd2 Al34 N36'
_cell_volume   815.70249498
_cell_formula_units_Z   2
loop_
 _symmetry_equiv_pos_site_id
 _symmetry_equiv_pos_as_xyz
  1  'x, y, z'
loop_
 _atom_site_type_symbol
 _atom_site_label
 _atom_site_symmetry_multiplicity
 _atom_site_fract_x
 _atom_site_fract_y
 _atom_site_fract_z
 _atom_site_occupancy
  Al  Al0  1  0.12156753  0.08299777  0.40589613  1
  Al  Al1  1  0.78273198  0.08817102  0.81531370  1
  Al  Al2  1  0.88540844  0.20102956  0.57816094  1
  Al  Al3  1  0.44752985  0.09290217  0.39655451  1
  Al  Al4  1  0.55549161  0.20703380  0.13800499  1
  Al  Al5  1  0.11443102  0.08819942  0.87932083  1
  Al  Al6  1  0.22447864  0.20442960  0.64346557  1
  Al  Al7  1  0.78666005  0.08559551  0.31957383  1
  Al  Al8  1  0.87753743  0.20422255  0.05139796  1
  Al  Al9  1  0.45234441  0.09049258  0.88686223  1
  Al  Al10  1  0.54953727  0.20750875  0.64010001  1
  Al  Al11  1  0.12156429  0.42876008  0.40589624  1
  Al  Al12  1  0.21913397  0.54418232  0.13787953  1
  Al  Al13  1  0.77407998  0.42962394  0.81407202  1
  Al  Al14  1  0.88540672  0.54690284  0.57816194  1
  Al  Al15  1  0.43796118  0.42431367  0.38961445  1
  Al  Al16  1  0.55599434  0.53867289  0.06215694  1
  Al  Al17  1  0.11442691  0.43069649  0.87932183  1
  Al  Al18  1  0.22214469  0.54217460  0.64176692  1
  Al  Al19  1  0.87753472  0.55158303  0.05139870  1
  Al  Al20  1  0.44043359  0.42386439  0.88423678  1
  Al  Al21  1  0.55341162  0.53996683  0.58068330  1
  Al  Al22  1  0.11952600  0.75689782  0.38708657  1
  Al  Al23  1  0.21913601  0.87002117  0.13787908  1
  Al  Al24  1  0.78273148  0.76242610  0.81531275  1
  Al  Al25  1  0.88373108  0.87480402  0.56487074  1
  Al  Al26  1  0.43796245  0.77105816  0.38961671  1
  Al  Al27  1  0.55548868  0.87081540  0.13800558  1
  Al  Al28  1  0.11756217  0.75788110  0.89197947  1
  Al  Al29  1  0.22214397  0.86901728  0.64176744  1
  Al  Al30  1  0.78665647  0.76107245  0.31957459  1
  Al  Al31  1  0.88220545  0.87556792  0.06987448  1
  Al  Al32  1  0.44043591  0.76902862  0.88423825  1
  Al  Al33  1  0.54953646  0.87629732  0.64009980  1
  Gd  Gd34  1  0.21870129  0.20732418  0.13953213  1
  Gd  Gd35  1  0.78646124  0.42342861  0.31622043  1
  N  N36  1  0.21776052  0.20779124  0.35739238  1
  N  N37  1  0.10358119  0.07590655  0.06235859  1
  N  N38  1  0.88065933  0.20811057  0.86682980  1
  N  N39  1  0.78257242  0.08679311  0.63253841  1
  N  N40  1  0.54857300  0.20732043  0.32632354  1
  N  N41  1  0.47685752  0.07823246  0.06725558  1
  N  N42  1  0.22408091  0.20463199  0.83195658  1
  N  N43  1  0.11859219  0.08933519  0.59186654  1
  N  N44  1  0.89588323  0.17785706  0.39685824  1
  N  N45  1  0.78600553  0.09254138  0.13307937  1
  N  N46  1  0.54901467  0.20872451  0.82446860  1
  N  N47  1  0.44783186  0.09274736  0.58028212  1
  N  N48  1  0.22085161  0.53693172  0.32482095  1
  N  N49  1  0.10357587  0.45383760  0.06235879  1
  N  N50  1  0.88065634  0.54457860  0.86682757  1
  N  N51  1  0.77795820  0.42768139  0.62699267  1
  N  N52  1  0.53290455  0.55022447  0.37403746  1
  N  N53  1  0.44150000  0.42321873  0.07358582  1
  N  N54  1  0.22142852  0.54344209  0.82414217  1
  N  N55  1  0.11858841  0.42539288  0.59186457  1
  N  N56  1  0.89588167  0.55960333  0.39685740  1
  N  N57  1  0.77992779  0.42669726  0.09877505  1
  N  N58  1  0.55200916  0.54066897  0.86448300  1
  N  N59  1  0.44143225  0.42251627  0.57847925  1
  N  N60  1  0.22085118  0.87555665  0.32482251  1
  N  N61  1  0.11719400  0.75806318  0.07852587  1
  N  N62  1  0.88224363  0.87555100  0.88427628  1
  N  N63  1  0.78257241  0.76395510  0.63253730  1
  N  N64  1  0.54857166  0.87746033  0.32632460  1
  N  N65  1  0.44150342  0.76859771  0.07358397  1
  N  N66  1  0.22142783  0.86847164  0.82414279  1
  N  N67  1  0.11924328  0.75703751  0.57402071  1
  N  N68  1  0.88495242  0.87419593  0.37968847  1
  N  N69  1  0.78600309  0.75477811  0.13307850  1
  N  N70  1  0.54901389  0.87561092  0.82446805  1
  N  N71  1  0.44143332  0.76937480  0.57847978  1
