# generated using pymatgen
data_GdAl17N18
_symmetry_space_group_name_H-M   'P 1'
_cell_length_a   9.48538349
_cell_length_b   9.50947118
_cell_length_c   10.40877651
_cell_angle_alpha   90.00033007
_cell_angle_beta   89.59216784
_cell_angle_gamma   59.90252805
_symmetry_Int_Tables_number   1
_chemical_formula_structural   GdAl17N18
_chemical_formula_sum   'Gd2 Al34 N36'
_cell_volume   812.26822856
_cell_formula_units_Z   2
loop_
 _symmetry_equiv_pos_site_id
 _symmetry_equiv_pos_as_xyz
  1  'x, y, z'
loop_
 _atom_site_type_symbol
 _atom_site_label
 _atom_site_symmetry_multiplicity
 _atom_site_fract_x
 _atom_site_fract_y
 _atom_site_fract_z
 _atom_site_occupancy
  Al  Al0  1  0.12339009  0.08093964  0.40607568  1
  Al  Al1  1  0.78149336  0.08888221  0.81552191  1
  Al  Al2  1  0.88713844  0.19937751  0.57860471  1
  Al  Al3  1  0.44719059  0.09306424  0.39584247  1
  Al  Al4  1  0.55513080  0.20723941  0.13668169  1
  Al  Al5  1  0.11509700  0.08708936  0.87950207  1
  Al  Al6  1  0.22513766  0.20409609  0.64369408  1
  Al  Al7  1  0.78579599  0.08568501  0.31883244  1
  Al  Al8  1  0.87494286  0.20745529  0.05276966  1
  Al  Al9  1  0.45183000  0.09075044  0.88525748  1
  Al  Al10  1  0.54977389  0.20929927  0.63803967  1
  Al  Al11  1  0.12339941  0.42901825  0.40607490  1
  Al  Al12  1  0.21707552  0.54476048  0.13732338  1
  Al  Al13  1  0.77997583  0.42668482  0.81398201  1
  Al  Al14  1  0.88714705  0.54681035  0.57860331  1
  Al  Al15  1  0.44052939  0.42871650  0.38552304  1
  Al  Al16  1  0.54207931  0.54562186  0.12919072  1
  Al  Al17  1  0.11510817  0.43115686  0.87949920  1
  Al  Al18  1  0.22383149  0.54219178  0.64054976  1
  Al  Al19  1  0.87495767  0.55092134  0.05276972  1
  Al  Al20  1  0.44429692  0.42761726  0.88610041  1
  Al  Al21  1  0.54853100  0.54239354  0.63533430  1
  Al  Al22  1  0.11770917  0.75782427  0.38620988  1
  Al  Al23  1  0.21706460  0.87150113  0.13732442  1
  Al  Al24  1  0.78149562  0.76296184  0.81552452  1
  Al  Al25  1  0.88339627  0.87496698  0.56490525  1
  Al  Al26  1  0.44052501  0.76408028  0.38552087  1
  Al  Al27  1  0.55513905  0.87094563  0.13668098  1
  Al  Al28  1  0.11743329  0.75795822  0.89098728  1
  Al  Al29  1  0.22382943  0.86731416  0.64054880  1
  Al  Al30  1  0.78580523  0.76186216  0.31883077  1
  Al  Al31  1  0.88172416  0.87580034  0.06927658  1
  Al  Al32  1  0.44429316  0.76142100  0.88610229  1
  Al  Al33  1  0.54977789  0.87423931  0.63804085  1
  Gd  Gd34  1  0.21844650  0.20743038  0.13908248  1
  Gd  Gd35  1  0.79387268  0.41974668  0.32414094  1
  N  N36  1  0.21698218  0.20816789  0.35733244  1
  N  N37  1  0.10196724  0.07712711  0.06264677  1
  N  N38  1  0.88053282  0.20812836  0.86765856  1
  N  N39  1  0.78253659  0.08699036  0.63265813  1
  N  N40  1  0.54780360  0.20841361  0.32580330  1
  N  N41  1  0.47651993  0.07841457  0.06608518  1
  N  N42  1  0.22355623  0.20487824  0.83206814  1
  N  N43  1  0.12076214  0.08763454  0.59208789  1
  N  N44  1  0.89812592  0.17349912  0.39746681  1
  N  N45  1  0.78520128  0.09268522  0.13234198  1
  N  N46  1  0.54773594  0.21118157  0.82384830  1
  N  N47  1  0.44844220  0.09244938  0.58002772  1
  N  N48  1  0.22071039  0.53741611  0.32475469  1
  N  N49  1  0.10198537  0.45425504  0.06264550  1
  N  N50  1  0.88054441  0.54464288  0.86766259  1
  N  N51  1  0.78321302  0.42507632  0.62373932  1
  N  N52  1  0.52426317  0.55451311  0.31680314  1
  N  N53  1  0.44210688  0.42602355  0.07256447  1
  N  N54  1  0.22338804  0.54283602  0.82396752  1
  N  N55  1  0.12077309  0.42496366  0.59209173  1
  N  N56  1  0.89813599  0.56169299  0.39746892  1
  N  N57  1  0.77626464  0.42854953  0.10388814  1
  N  N58  1  0.54724517  0.54302956  0.82331768  1
  N  N59  1  0.44604286  0.42701475  0.57282817  1
  N  N60  1  0.22070678  0.87520118  0.32475312  1
  N  N61  1  0.11616984  0.75859503  0.07815721  1
  N  N62  1  0.88189040  0.87571022  0.88361773  1
  N  N63  1  0.78253848  0.76383376  0.63266110  1
  N  N64  1  0.54781005  0.87706798  0.32580143  1
  N  N65  1  0.44209777  0.76523025  0.07256889  1
  N  N66  1  0.22338552  0.86709798  0.82396757  1
  N  N67  1  0.11862864  0.75736922  0.57365618  1
  N  N68  1  0.88380519  0.87475744  0.37937225  1
  N  N69  1  0.78520980  0.75546412  0.13234290  1
  N  N70  1  0.54773944  0.87437813  0.82385053  1
  N  N71  1  0.44604030  0.76028927  0.57282608  1
