# generated using pymatgen
data_GdAl17N18
_symmetry_space_group_name_H-M   'P 1'
_cell_length_a   9.52883417
_cell_length_b   9.51564020
_cell_length_c   10.27035661
_cell_angle_alpha   89.91358540
_cell_angle_beta   89.75258153
_cell_angle_gamma   60.10812086
_symmetry_Int_Tables_number   1
_chemical_formula_structural   GdAl17N18
_chemical_formula_sum   'Gd2 Al34 N36'
_cell_volume   807.35009335
_cell_formula_units_Z   2
loop_
 _symmetry_equiv_pos_site_id
 _symmetry_equiv_pos_as_xyz
  1  'x, y, z'
loop_
 _atom_site_type_symbol
 _atom_site_label
 _atom_site_symmetry_multiplicity
 _atom_site_fract_x
 _atom_site_fract_y
 _atom_site_fract_z
 _atom_site_occupancy
  Al  Al0  1  0.11468865  0.08618556  0.40834208  1
  Al  Al1  1  0.77613442  0.09402816  0.85163510  1
  Al  Al2  1  0.89155323  0.20425442  0.65928611  1
  Al  Al3  1  0.44883682  0.09201428  0.40784266  1
  Al  Al4  1  0.55199030  0.20831527  0.14254072  1
  Al  Al5  1  0.11156818  0.08991657  0.89300561  1
  Al  Al6  1  0.22370685  0.20480309  0.64745444  1
  Al  Al7  1  0.78252132  0.08313952  0.32784768  1
  Al  Al8  1  0.89178936  0.19918936  0.13739107  1
  Al  Al9  1  0.44682866  0.09308544  0.89350945  1
  Al  Al10  1  0.55498491  0.20786966  0.64932103  1
  Al  Al11  1  0.11479574  0.43071464  0.40860045  1
  Al  Al12  1  0.21883835  0.54553871  0.14853096  1
  Al  Al13  1  0.77613408  0.43040822  0.89988015  1
  Al  Al14  1  0.89365668  0.53363891  0.65745375  1
  Al  Al15  1  0.43889712  0.42884550  0.39677583  1
  Al  Al16  1  0.54668267  0.54352415  0.14297865  1
  Al  Al17  1  0.11036164  0.43360838  0.89308013  1
  Al  Al18  1  0.22355218  0.54142854  0.64844020  1
  Al  Al19  1  0.89123300  0.54234409  0.13949377  1
  Al  Al20  1  0.44128995  0.42941783  0.89883837  1
  Al  Al21  1  0.55361103  0.53985024  0.65631243  1
  Al  Al22  1  0.11907098  0.75633837  0.39724173  1
  Al  Al23  1  0.21901610  0.86914575  0.14848561  1
  Al  Al24  1  0.77875557  0.76628620  0.83075223  1
  Al  Al25  1  0.88287651  0.87618696  0.57789448  1
  Al  Al26  1  0.43873615  0.76480796  0.39684956  1
  Al  Al27  1  0.55169201  0.87351018  0.14429494  1
  Al  Al28  1  0.11928019  0.75736727  0.89832487  1
  Al  Al29  1  0.22275735  0.86864715  0.64857899  1
  Al  Al30  1  0.78287419  0.76608080  0.32475735  1
  Al  Al31  1  0.88358588  0.87292662  0.07551274  1
  Al  Al32  1  0.44246152  0.76372243  0.89854534  1
  Al  Al33  1  0.55152550  0.87264778  0.64758988  1
  Gd  Gd34  1  0.21836397  0.20798646  0.15196570  1
  Gd  Gd35  1  0.77599913  0.42611132  0.39672798  1
  N  N36  1  0.22348002  0.20430863  0.37160537  1
  N  N37  1  0.10175154  0.07652971  0.07432156  1
  N  N38  1  0.88940921  0.20841044  0.84684254  1
  N  N39  1  0.78038152  0.09220312  0.63178748  1
  N  N40  1  0.55052057  0.20752610  0.33603609  1
  N  N41  1  0.46828290  0.08222782  0.07655532  1
  N  N42  1  0.22162262  0.20653785  0.84051943  1
  N  N43  1  0.11007594  0.09230259  0.59605534  1
  N  N44  1  0.91313172  0.17606787  0.32502368  1
  N  N45  1  0.77497980  0.09213543  0.12222878  1
  N  N46  1  0.54857524  0.21182907  0.83852898  1
  N  N47  1  0.44867928  0.09308544  0.59382590  1
  N  N48  1  0.22210804  0.53667543  0.33790890  1
  N  N49  1  0.10011058  0.45676770  0.07459485  1
  N  N50  1  0.88967538  0.53736622  0.84482907  1
  N  N51  1  0.77853492  0.42696725  0.61513316  1
  N  N52  1  0.52343230  0.55477064  0.32645455  1
  N  N53  1  0.44010614  0.42844171  0.08568176  1
  N  N54  1  0.22373387  0.54117477  0.83427516  1
  N  N55  1  0.11128823  0.43020689  0.59569992  1
  N  N56  1  0.91217745  0.54113265  0.32847088  1
  N  N57  1  0.77644946  0.42893291  0.09257829  1
  N  N58  1  0.55240490  0.54107006  0.84418919  1
  N  N59  1  0.44629922  0.42799839  0.58693232  1
  N  N60  1  0.22201165  0.87325621  0.33793539  1
  N  N61  1  0.11576499  0.75892116  0.08855885  1
  N  N62  1  0.88715355  0.87243587  0.88897921  1
  N  N63  1  0.78145498  0.76194768  0.63807560  1
  N  N64  1  0.54954170  0.87532458  0.33847363  1
  N  N65  1  0.44084615  0.76499828  0.08568305  1
  N  N66  1  0.22397673  0.86923744  0.83438463  1
  N  N67  1  0.11726751  0.75783380  0.58588897  1
  N  N68  1  0.88672216  0.87201456  0.38848879  1
  N  N69  1  0.77593942  0.76728639  0.13419139  1
  N  N70  1  0.54864312  0.87436151  0.83650364  1
  N  N71  1  0.44573506  0.75887506  0.58672769  1
