# generated using pymatgen
data_GdAl17N18
_symmetry_space_group_name_H-M   'P 1'
_cell_length_a   9.52952545
_cell_length_b   9.51410020
_cell_length_c   10.30234090
_cell_angle_alpha   89.87245470
_cell_angle_beta   89.46265237
_cell_angle_gamma   60.08153708
_symmetry_Int_Tables_number   1
_chemical_formula_structural   GdAl17N18
_chemical_formula_sum   'Gd2 Al34 N36'
_cell_volume   809.54490857
_cell_formula_units_Z   2
loop_
 _symmetry_equiv_pos_site_id
 _symmetry_equiv_pos_as_xyz
  1  'x, y, z'
loop_
 _atom_site_type_symbol
 _atom_site_label
 _atom_site_symmetry_multiplicity
 _atom_site_fract_x
 _atom_site_fract_y
 _atom_site_fract_z
 _atom_site_occupancy
  Al  Al0  1  0.11559327  0.08727689  0.40864277  1
  Al  Al1  1  0.77872016  0.08797198  0.83174230  1
  Al  Al2  1  0.89566799  0.20409782  0.65800045  1
  Al  Al3  1  0.45030563  0.09192278  0.40760618  1
  Al  Al4  1  0.55073020  0.20860802  0.14510002  1
  Al  Al5  1  0.11163766  0.08896108  0.89354565  1
  Al  Al6  1  0.22697920  0.20205786  0.64854942  1
  Al  Al7  1  0.78397602  0.08302164  0.32355416  1
  Al  Al8  1  0.89128709  0.19932259  0.13805730  1
  Al  Al9  1  0.44717260  0.09262097  0.89559550  1
  Al  Al10  1  0.55251415  0.20919003  0.64804116  1
  Al  Al11  1  0.11534374  0.43157981  0.41445471  1
  Al  Al12  1  0.21666916  0.54660853  0.14945943  1
  Al  Al13  1  0.77240817  0.42467254  0.89384923  1
  Al  Al14  1  0.89465163  0.53515695  0.65264902  1
  Al  Al15  1  0.43823730  0.43043874  0.39562248  1
  Al  Al16  1  0.54451363  0.54408938  0.14256180  1
  Al  Al17  1  0.11560517  0.42987565  0.88965631  1
  Al  Al18  1  0.22569846  0.54208220  0.64977353  1
  Al  Al19  1  0.88197336  0.54864008  0.09406762  1
  Al  Al20  1  0.44169355  0.42750921  0.89946833  1
  Al  Al21  1  0.55345778  0.54012765  0.65592386  1
  Al  Al22  1  0.11802803  0.75742915  0.39692908  1
  Al  Al23  1  0.21838388  0.87000591  0.14891529  1
  Al  Al24  1  0.77772584  0.76728927  0.83186209  1
  Al  Al25  1  0.88349242  0.87508684  0.57679659  1
  Al  Al26  1  0.43898698  0.76593630  0.39577534  1
  Al  Al27  1  0.55051546  0.87444763  0.14614464  1
  Al  Al28  1  0.11907051  0.75744196  0.89959067  1
  Al  Al29  1  0.22382314  0.86773062  0.64852801  1
  Al  Al30  1  0.78647911  0.76158551  0.32422954  1
  Al  Al31  1  0.88180083  0.87667860  0.07538418  1
  Al  Al32  1  0.44172941  0.76346920  0.89885029  1
  Al  Al33  1  0.55248386  0.87187690  0.64881367  1
  Gd  Gd34  1  0.21364791  0.21184878  0.15557452  1
  Gd  Gd35  1  0.77394464  0.42788982  0.39707294  1
  N  N36  1  0.22480980  0.20542990  0.37435072  1
  N  N37  1  0.10124817  0.07746568  0.07423703  1
  N  N38  1  0.89120089  0.20429402  0.84433742  1
  N  N39  1  0.78244980  0.08924696  0.63934105  1
  N  N40  1  0.55037412  0.20916050  0.33814304  1
  N  N41  1  0.46583090  0.08374171  0.07855413  1
  N  N42  1  0.22307126  0.20394349  0.84032293  1
  N  N43  1  0.11271297  0.09086479  0.59573206  1
  N  N44  1  0.91533413  0.17724266  0.32541833  1
  N  N45  1  0.77529446  0.08996331  0.13324867  1
  N  N46  1  0.54828602  0.21077152  0.83700586  1
  N  N47  1  0.45125434  0.09085978  0.59326001  1
  N  N48  1  0.22138473  0.53726703  0.33806381  1
  N  N49  1  0.10164601  0.45650212  0.07166032  1
  N  N50  1  0.88690875  0.53882907  0.85670569  1
  N  N51  1  0.77989323  0.42679495  0.61821188  1
  N  N52  1  0.52133687  0.55710350  0.32459154  1
  N  N53  1  0.43905817  0.42797128  0.08581809  1
  N  N54  1  0.22486676  0.54169374  0.83460550  1
  N  N55  1  0.11654828  0.42772381  0.60280360  1
  N  N56  1  0.90829473  0.54687414  0.35597663  1
  N  N57  1  0.77278186  0.42698672  0.08713831  1
  N  N58  1  0.55008250  0.54089132  0.84268184  1
  N  N59  1  0.44770541  0.42834710  0.58576348  1
  N  N60  1  0.22195423  0.87430623  0.33785725  1
  N  N61  1  0.11453393  0.76006949  0.08902635  1
  N  N62  1  0.88612266  0.87333409  0.89021563  1
  N  N63  1  0.78317103  0.76234037  0.64314741  1
  N  N64  1  0.55028668  0.87599893  0.33729527  1
  N  N65  1  0.44068204  0.76530213  0.08518240  1
  N  N66  1  0.22401025  0.86851442  0.83417268  1
  N  N67  1  0.11784721  0.75767201  0.58556825  1
  N  N68  1  0.88480486  0.87480114  0.38974579  1
  N  N69  1  0.77701222  0.76547291  0.13358315  1
  N  N70  1  0.54786295  0.87426878  0.83737233  1
  N  N71  1  0.44731309  0.75844879  0.58615375  1
