# generated using pymatgen
data_GdAl17N18
_symmetry_space_group_name_H-M   'P 1'
_cell_length_a   9.52675225
_cell_length_b   9.51696736
_cell_length_c   10.26152377
_cell_angle_alpha   89.90441233
_cell_angle_beta   89.75327741
_cell_angle_gamma   60.12219796
_symmetry_Int_Tables_number   1
_chemical_formula_structural   GdAl17N18
_chemical_formula_sum   'Gd2 Al34 N36'
_cell_volume   806.70601917
_cell_formula_units_Z   2
loop_
 _symmetry_equiv_pos_site_id
 _symmetry_equiv_pos_as_xyz
  1  'x, y, z'
loop_
 _atom_site_type_symbol
 _atom_site_label
 _atom_site_symmetry_multiplicity
 _atom_site_fract_x
 _atom_site_fract_y
 _atom_site_fract_z
 _atom_site_occupancy
  Al  Al0  1  0.11466526  0.08593482  0.40834220  1
  Al  Al1  1  0.77394384  0.09779903  0.87453792  1
  Al  Al2  1  0.88971487  0.20296154  0.65933481  1
  Al  Al3  1  0.44860043  0.09176683  0.40797577  1
  Al  Al4  1  0.55295072  0.20795026  0.14243182  1
  Al  Al5  1  0.11154031  0.08987550  0.89270134  1
  Al  Al6  1  0.22355045  0.20483073  0.64735979  1
  Al  Al7  1  0.78129550  0.08543702  0.34236448  1
  Al  Al8  1  0.89137386  0.19885794  0.13731897  1
  Al  Al9  1  0.44688873  0.09302703  0.89321166  1
  Al  Al10  1  0.55745683  0.20668177  0.64940637  1
  Al  Al11  1  0.11472388  0.43071515  0.40863604  1
  Al  Al12  1  0.21908151  0.54533815  0.14845193  1
  Al  Al13  1  0.77618198  0.43062266  0.89948863  1
  Al  Al14  1  0.89356788  0.53354998  0.65742304  1
  Al  Al15  1  0.43897528  0.42899217  0.39702121  1
  Al  Al16  1  0.54680570  0.54345829  0.14283794  1
  Al  Al17  1  0.11028780  0.43373402  0.89299057  1
  Al  Al18  1  0.22374665  0.54121433  0.64832376  1
  Al  Al19  1  0.89114759  0.54219584  0.13934126  1
  Al  Al20  1  0.44118347  0.42951893  0.89863056  1
  Al  Al21  1  0.55364267  0.53976147  0.65622070  1
  Al  Al22  1  0.11958062  0.75580441  0.39705862  1
  Al  Al23  1  0.21907661  0.86924727  0.14840308  1
  Al  Al24  1  0.77885840  0.76664415  0.83037889  1
  Al  Al25  1  0.88316414  0.87583035  0.57799882  1
  Al  Al26  1  0.43879052  0.76478000  0.39694360  1
  Al  Al27  1  0.55150988  0.87362957  0.14415886  1
  Al  Al28  1  0.11926742  0.75735740  0.89793105  1
  Al  Al29  1  0.22260951  0.86881730  0.64848447  1
  Al  Al30  1  0.78274139  0.76570257  0.32453179  1
  Al  Al31  1  0.88476012  0.87111003  0.07608307  1
  Al  Al32  1  0.44250878  0.76372397  0.89846983  1
  Al  Al33  1  0.55145090  0.87279321  0.64748593  1
  Gd  Gd34  1  0.21836177  0.20810194  0.15159267  1
  Gd  Gd35  1  0.77622776  0.42572921  0.39703241  1
  N  N36  1  0.22328372  0.20431131  0.37144612  1
  N  N37  1  0.10176556  0.07658209  0.07428553  1
  N  N38  1  0.88882532  0.20796173  0.84637575  1
  N  N39  1  0.77895367  0.09527181  0.61696844  1
  N  N40  1  0.55132260  0.20695394  0.33491421  1
  N  N41  1  0.46835241  0.08226662  0.07657565  1
  N  N42  1  0.22159506  0.20664391  0.84058971  1
  N  N43  1  0.10964918  0.09251137  0.59609257  1
  N  N44  1  0.91249181  0.17522102  0.32362095  1
  N  N45  1  0.77349767  0.09543863  0.10730706  1
  N  N46  1  0.55012729  0.21111251  0.83826943  1
  N  N47  1  0.44859632  0.09331229  0.59394117  1
  N  N48  1  0.22248145  0.53619845  0.33787457  1
  N  N49  1  0.10001528  0.45697069  0.07460196  1
  N  N50  1  0.88967057  0.53754907  0.84485567  1
  N  N51  1  0.77854298  0.42697662  0.61543257  1
  N  N52  1  0.52372616  0.55467075  0.32658712  1
  N  N53  1  0.44006126  0.42840955  0.08572490  1
  N  N54  1  0.22387119  0.54103160  0.83425897  1
  N  N55  1  0.11122930  0.43022075  0.59568175  1
  N  N56  1  0.91206694  0.54082961  0.32845925  1
  N  N57  1  0.77655129  0.42893975  0.09252662  1
  N  N58  1  0.55233340  0.54113411  0.84425902  1
  N  N59  1  0.44620170  0.42789966  0.58702191  1
  N  N60  1  0.22206991  0.87321943  0.33792016  1
  N  N61  1  0.11605674  0.75876382  0.08869706  1
  N  N62  1  0.88788392  0.87167182  0.88822404  1
  N  N63  1  0.78137851  0.76192392  0.63779139  1
  N  N64  1  0.54950682  0.87537914  0.33848192  1
  N  N65  1  0.44086786  0.76495803  0.08573386  1
  N  N66  1  0.22410581  0.86922097  0.83438762  1
  N  N67  1  0.11737690  0.75767342  0.58581658  1
  N  N68  1  0.88811338  0.86982209  0.38697680  1
  N  N69  1  0.77573730  0.76721750  0.13419762  1
  N  N70  1  0.54869646  0.87436436  0.83651383  1
  N  N71  1  0.44567932  0.75891977  0.58673577  1
