# generated using pymatgen
data_GdAl17N18
_symmetry_space_group_name_H-M   'P 1'
_cell_length_a   9.53879399
_cell_length_b   9.53068377
_cell_length_c   10.18830355
_cell_angle_alpha   89.89614675
_cell_angle_beta   89.82235057
_cell_angle_gamma   60.00329827
_symmetry_Int_Tables_number   1
_chemical_formula_structural   GdAl17N18
_chemical_formula_sum   'Gd2 Al34 N36'
_cell_volume   802.16251223
_cell_formula_units_Z   2
loop_
 _symmetry_equiv_pos_site_id
 _symmetry_equiv_pos_as_xyz
  1  'x, y, z'
loop_
 _atom_site_type_symbol
 _atom_site_label
 _atom_site_symmetry_multiplicity
 _atom_site_fract_x
 _atom_site_fract_y
 _atom_site_fract_z
 _atom_site_occupancy
  Al  Al0  1  0.11149332  0.08513218  0.31588496  1
  Al  Al1  1  0.77641691  0.09237963  0.81112027  1
  Al  Al2  1  0.89070639  0.19839711  0.56685037  1
  Al  Al3  1  0.45248073  0.09021864  0.31682677  1
  Al  Al4  1  0.56085452  0.20461150  0.06206434  1
  Al  Al5  1  0.11231979  0.09075793  0.80298511  1
  Al  Al6  1  0.22319490  0.20338199  0.56034683  1
  Al  Al7  1  0.78014714  0.08913295  0.31094621  1
  Al  Al8  1  0.88681343  0.20058706  0.05183804  1
  Al  Al9  1  0.44654176  0.09335357  0.80340117  1
  Al  Al10  1  0.55828576  0.20444698  0.56082812  1
  Al  Al11  1  0.10854408  0.43451449  0.32244345  1
  Al  Al12  1  0.21900908  0.54782014  0.11368451  1
  Al  Al13  1  0.77751371  0.42715628  0.81208901  1
  Al  Al14  1  0.88846733  0.54404104  0.56716867  1
  Al  Al15  1  0.44687250  0.42595228  0.31697834  1
  Al  Al16  1  0.55236958  0.54039034  0.05181598  1
  Al  Al17  1  0.11112033  0.42867048  0.80027531  1
  Al  Al18  1  0.22534387  0.53666963  0.58085808  1
  Al  Al19  1  0.88531475  0.54727958  0.05144893  1
  Al  Al20  1  0.44288587  0.42650426  0.81001052  1
  Al  Al21  1  0.55131028  0.54161354  0.56676778  1
  Al  Al22  1  0.11099164  0.76180531  0.37809656  1
  Al  Al23  1  0.22318406  0.87309402  0.06424177  1
  Al  Al24  1  0.77597678  0.76410236  0.81111121  1
  Al  Al25  1  0.88109589  0.87566848  0.56285683  1
  Al  Al26  1  0.44125372  0.76368047  0.31191772  1
  Al  Al27  1  0.56050118  0.86922613  0.06196903  1
  Al  Al28  1  0.11283503  0.75493178  0.87797071  1
  Al  Al29  1  0.22750629  0.87310323  0.56239209  1
  Al  Al30  1  0.77877478  0.76478905  0.31106442  1
  Al  Al31  1  0.88026565  0.87688457  0.06419170  1
  Al  Al32  1  0.44276788  0.76342904  0.81140718  1
  Al  Al33  1  0.55695170  0.86991141  0.56088867  1
  Gd  Gd34  1  0.22255742  0.20911124  0.06376903  1
  Gd  Gd35  1  0.78103188  0.42632900  0.31082798  1
  N  N36  1  0.22206620  0.20461974  0.36516916  1
  N  N37  1  0.09396433  0.08297572  0.13007124  1
  N  N38  1  0.89123368  0.20098195  0.86330888  1
  N  N39  1  0.77556099  0.09295081  0.62446485  1
  N  N40  1  0.55934384  0.20547137  0.37302254  1
  N  N41  1  0.47583092  0.07934934  0.13168759  1
  N  N42  1  0.22198114  0.20506429  0.84387280  1
  N  N43  1  0.11290211  0.09172540  0.61715505  1
  N  N44  1  0.90153428  0.17540072  0.38333824  1
  N  N45  1  0.77714129  0.09728918  0.12101021  1
  N  N46  1  0.55424027  0.20523209  0.87161053  1
  N  N47  1  0.44746702  0.09257281  0.61421065  1
  N  N48  1  0.22683085  0.53716300  0.35516914  1
  N  N49  1  0.08756302  0.45906567  0.13572857  1
  N  N50  1  0.89072846  0.54003090  0.86286494  1
  N  N51  1  0.77817652  0.42685020  0.61736403  1
  N  N52  1  0.52947180  0.55339239  0.38161644  1
  N  N53  1  0.44861098  0.42652738  0.12398704  1
  N  N54  1  0.22216079  0.53543827  0.84636358  1
  N  N55  1  0.11140776  0.42565818  0.61266445  1
  N  N56  1  0.89839751  0.55793269  0.38493770  1
  N  N57  1  0.77815395  0.42756785  0.08908918  1
  N  N58  1  0.55168567  0.54030775  0.86446445  1
  N  N59  1  0.44882152  0.42301829  0.62068136  1
  N  N60  1  0.22870952  0.87229141  0.37209788  1
  N  N61  1  0.10846616  0.76340113  0.07822760  1
  N  N62  1  0.88173089  0.87531663  0.87282582  1
  N  N63  1  0.77462325  0.76443485  0.62458168  1
  N  N64  1  0.55773328  0.86808881  0.37232626  1
  N  N65  1  0.44562233  0.76033788  0.12057395  1
  N  N66  1  0.22444522  0.87583870  0.87168047  1
  N  N67  1  0.10976043  0.76222059  0.57572950  1
  N  N68  1  0.88197796  0.87546703  0.36969878  1
  N  N69  1  0.77644006  0.75999181  0.12090230  1
  N  N70  1  0.55403275  0.87376301  0.87159757  1
  N  N71  1  0.44489657  0.76291270  0.62406021  1
