# generated using pymatgen
data_GdAl17N18
_symmetry_space_group_name_H-M   'P 1'
_cell_length_a   9.53295214
_cell_length_b   9.53007880
_cell_length_c   10.17941568
_cell_angle_alpha   90.08498372
_cell_angle_beta   89.92142273
_cell_angle_gamma   60.01769635
_symmetry_Int_Tables_number   1
_chemical_formula_structural   GdAl17N18
_chemical_formula_sum   'Gd2 Al34 N36'
_cell_volume   801.03783945
_cell_formula_units_Z   2
loop_
 _symmetry_equiv_pos_site_id
 _symmetry_equiv_pos_as_xyz
  1  'x, y, z'
loop_
 _atom_site_type_symbol
 _atom_site_label
 _atom_site_symmetry_multiplicity
 _atom_site_fract_x
 _atom_site_fract_y
 _atom_site_fract_z
 _atom_site_occupancy
  Al  Al0  1  0.11309884  0.08747200  0.40663034  1
  Al  Al1  1  0.77286127  0.09983914  0.89587960  1
  Al  Al2  1  0.88753550  0.20369397  0.65581562  1
  Al  Al3  1  0.44730131  0.09313850  0.40636861  1
  Al  Al4  1  0.55860042  0.20486671  0.14661454  1
  Al  Al5  1  0.10918847  0.08915318  0.89178035  1
  Al  Al6  1  0.22220433  0.20498504  0.64661346  1
  Al  Al7  1  0.77692554  0.09584410  0.39363997  1
  Al  Al8  1  0.88839473  0.19692829  0.14241839  1
  Al  Al9  1  0.44946965  0.09217303  0.89155929  1
  Al  Al10  1  0.55676567  0.20662975  0.64737168  1
  Al  Al11  1  0.11419976  0.43304235  0.40653323  1
  Al  Al12  1  0.22095878  0.54357451  0.14742513  1
  Al  Al13  1  0.77693514  0.42721637  0.89794135  1
  Al  Al14  1  0.88771612  0.54119462  0.65710308  1
  Al  Al15  1  0.43929122  0.42985135  0.39656109  1
  Al  Al16  1  0.54748370  0.54291928  0.14158087  1
  Al  Al17  1  0.11057052  0.43340598  0.89118537  1
  Al  Al18  1  0.22411930  0.53990377  0.64762721  1
  Al  Al19  1  0.88991566  0.54622687  0.13825187  1
  Al  Al20  1  0.44294540  0.42694694  0.89780006  1
  Al  Al21  1  0.55318815  0.53995647  0.65522761  1
  Al  Al22  1  0.11902584  0.75764317  0.39374134  1
  Al  Al23  1  0.22014597  0.86929063  0.14746187  1
  Al  Al24  1  0.77326972  0.76090882  0.89388045  1
  Al  Al25  1  0.88888792  0.86991433  0.58293670  1
  Al  Al26  1  0.43887482  0.76548743  0.39630578  1
  Al  Al27  1  0.55654622  0.87113654  0.14363013  1
  Al  Al28  1  0.11801580  0.75729725  0.89538930  1
  Al  Al29  1  0.22381986  0.86897080  0.64765654  1
  Al  Al30  1  0.77871562  0.76357441  0.37904097  1
  Al  Al31  1  0.88898198  0.87274169  0.08316994  1
  Al  Al32  1  0.44221850  0.76296601  0.89755615  1
  Al  Al33  1  0.55745397  0.86903197  0.64782340  1
  Gd  Gd34  1  0.21906618  0.20722577  0.14707949  1
  Gd  Gd35  1  0.77742093  0.43094128  0.39417361  1
  N  N36  1  0.22143043  0.20608781  0.36921181  1
  N  N37  1  0.09834493  0.07692207  0.07525458  1
  N  N38  1  0.88694126  0.20503311  0.84160658  1
  N  N39  1  0.77520298  0.10085703  0.58723159  1
  N  N40  1  0.55413095  0.20627158  0.33809194  1
  N  N41  1  0.47123729  0.08185702  0.07721798  1
  N  N42  1  0.22182172  0.20513482  0.84145024  1
  N  N43  1  0.10860266  0.09240884  0.59531153  1
  N  N44  1  0.90607883  0.17688836  0.32835624  1
  N  N45  1  0.77138263  0.10070925  0.08651460  1
  N  N46  1  0.55498409  0.20798818  0.83463988  1
  N  N47  1  0.44832790  0.09200973  0.59405669  1
  N  N48  1  0.22341514  0.53659126  0.33766976  1
  N  N49  1  0.10049629  0.45690097  0.07393503  1
  N  N50  1  0.88734880  0.53964190  0.84342273  1
  N  N51  1  0.77763747  0.42741895  0.61439946  1
  N  N52  1  0.52396571  0.55519730  0.32693029  1
  N  N53  1  0.44214507  0.42586994  0.08636927  1
  N  N54  1  0.22532235  0.53913478  0.83412026  1
  N  N55  1  0.10870599  0.43136994  0.59550264  1
  N  N56  1  0.90996042  0.55012015  0.32381503  1
  N  N57  1  0.77819674  0.42707400  0.09368240  1
  N  N58  1  0.55244538  0.54013235  0.84446508  1
  N  N59  1  0.44577444  0.42792492  0.58704076  1
  N  N60  1  0.22280933  0.87458556  0.33756802  1
  N  N61  1  0.11778064  0.75762604  0.08886601  1
  N  N62  1  0.88992133  0.87181756  0.87967715  1
  N  N63  1  0.77575900  0.75580973  0.59031314  1
  N  N64  1  0.55304794  0.87416428  0.33535784  1
  N  N65  1  0.44107648  0.76529131  0.08577370  1
  N  N66  1  0.22466129  0.86860741  0.83426198  1
  N  N67  1  0.11856103  0.75698301  0.58606768  1
  N  N68  1  0.89184336  0.87243883  0.37866007  1
  N  N69  1  0.77175620  0.76217700  0.08861232  1
  N  N70  1  0.55405787  0.87040135  0.83581427  1
  N  N71  1  0.44563139  0.75950835  0.58695773  1
