# generated using pymatgen
data_GdAl17N18
_symmetry_space_group_name_H-M   'P 1'
_cell_length_a   9.50897817
_cell_length_b   9.51312193
_cell_length_c   10.12981130
_cell_angle_alpha   89.99999878
_cell_angle_beta   89.92923537
_cell_angle_gamma   59.98558366
_symmetry_Int_Tables_number   1
_chemical_formula_structural   GdAl17N18
_chemical_formula_sum   'Gd2 Al34 N36'
_cell_volume   793.46057183
_cell_formula_units_Z   2
loop_
 _symmetry_equiv_pos_site_id
 _symmetry_equiv_pos_as_xyz
  1  'x, y, z'
loop_
 _atom_site_type_symbol
 _atom_site_label
 _atom_site_symmetry_multiplicity
 _atom_site_fract_x
 _atom_site_fract_y
 _atom_site_fract_z
 _atom_site_occupancy
  Al  Al0  1  0.11317907  0.08691176  0.41930827  1
  Al  Al1  1  0.77658382  0.09321138  0.91077667  1
  Al  Al2  1  0.88732925  0.20405407  0.66857628  1
  Al  Al3  1  0.44716783  0.09308626  0.41906078  1
  Al  Al4  1  0.56071718  0.20330462  0.15934341  1
  Al  Al5  1  0.10965713  0.08914764  0.90456892  1
  Al  Al6  1  0.22205426  0.20564305  0.66022106  1
  Al  Al7  1  0.78032860  0.08801942  0.40946842  1
  Al  Al8  1  0.88911168  0.19508924  0.15461397  1
  Al  Al9  1  0.45103769  0.09115133  0.90482705  1
  Al  Al10  1  0.55710229  0.20651247  0.66022021  1
  Al  Al11  1  0.11317907  0.43324951  0.41930827  1
  Al  Al12  1  0.22032569  0.54447384  0.16015133  1
  Al  Al13  1  0.77755935  0.42789049  0.91128970  1
  Al  Al14  1  0.88732925  0.54195704  0.66857629  1
  Al  Al15  1  0.43819044  0.43002519  0.40911172  1
  Al  Al16  1  0.54742795  0.54295620  0.15431980  1
  Al  Al17  1  0.10965713  0.43453556  0.90456893  1
  Al  Al18  1  0.22300247  0.54120148  0.66049556  1
  Al  Al19  1  0.88911170  0.54913942  0.15461397  1
  Al  Al20  1  0.44308765  0.42691739  0.91043769  1
  Al  Al21  1  0.55291621  0.54021207  0.66840126  1
  Al  Al22  1  0.11060796  0.76136618  0.40864966  1
  Al  Al23  1  0.22032568  0.86854080  0.16015133  1
  Al  Al24  1  0.77658381  0.76354516  0.91077667  1
  Al  Al25  1  0.88946819  0.87193608  0.65987652  1
  Al  Al26  1  0.43819042  0.76512472  0.40911172  1
  Al  Al27  1  0.56071720  0.86931855  0.15934342  1
  Al  Al28  1  0.11151095  0.76091469  0.91078292  1
  Al  Al29  1  0.22300246  0.86913638  0.66049556  1
  Al  Al30  1  0.78032859  0.76499233  0.40946843  1
  Al  Al31  1  0.88880933  0.87226551  0.15946393  1
  Al  Al32  1  0.44308766  0.76333530  0.91043770  1
  Al  Al33  1  0.55710229  0.86972558  0.66022021  1
  Gd  Gd34  1  0.22029879  0.20652076  0.15892633  1
  Gd  Gd35  1  0.77677527  0.42828254  0.40472962  1
  N  N36  1  0.22079513  0.20627260  0.38170390  1
  N  N37  1  0.09931074  0.07645893  0.08836648  1
  N  N38  1  0.88641272  0.20477394  0.85548311  1
  N  N39  1  0.77851630  0.09441263  0.60044721  1
  N  N40  1  0.55547639  0.20547966  0.35205504  1
  N  N41  1  0.47341058  0.07996489  0.09120081  1
  N  N42  1  0.22229508  0.20552263  0.85564551  1
  N  N43  1  0.10865372  0.09299070  0.60886434  1
  N  N44  1  0.90621778  0.17341158  0.34168150  1
  N  N45  1  0.77625000  0.09209802  0.09890009  1
  N  N46  1  0.55679846  0.20707456  0.84843223  1
  N  N47  1  0.44780708  0.09276663  0.60745356  1
  N  N48  1  0.22128276  0.53857304  0.35142850  1
  N  N49  1  0.09931076  0.45757065  0.08836649  1
  N  N50  1  0.88641272  0.54215369  0.85548311  1
  N  N51  1  0.77715808  0.42809114  0.62614312  1
  N  N52  1  0.52252084  0.55540975  0.33963635  1
  N  N53  1  0.44245521  0.42531595  0.09960262  1
  N  N54  1  0.22402431  0.54116534  0.84811312  1
  N  N55  1  0.10865373  0.43169592  0.60886434  1
  N  N56  1  0.90621777  0.55371099  0.34168150  1
  N  N57  1  0.77900314  0.42716860  0.10846077  1
  N  N58  1  0.55291717  0.54021159  0.85799955  1
  N  N59  1  0.44532794  0.42845008  0.60048665  1
  N  N60  1  0.22128274  0.87348453  0.35142849  1
  N  N61  1  0.11094181  0.76119926  0.10133961  1
  N  N62  1  0.88947159  0.87193438  0.85018637  1
  N  N63  1  0.77851630  0.76041141  0.60044721  1
  N  N64  1  0.55547639  0.87238430  0.35205504  1
  N  N65  1  0.44245521  0.76556919  0.09960262  1
  N  N66  1  0.22402432  0.86815068  0.84811312  1
  N  N67  1  0.11070554  0.76131739  0.59901721  1
  N  N68  1  0.88930976  0.87201529  0.34993220  1
  N  N69  1  0.77625001  0.76499233  0.09890009  1
  N  N70  1  0.55679846  0.86946733  0.84843223  1
  N  N71  1  0.44532794  0.75956231  0.60048664  1
