# generated using pymatgen
data_GdAl17N18
_symmetry_space_group_name_H-M   'P 1'
_cell_length_a   9.49058800
_cell_length_b   9.53854651
_cell_length_c   10.46719156
_cell_angle_alpha   89.94250877
_cell_angle_beta   90.00307420
_cell_angle_gamma   59.82674205
_symmetry_Int_Tables_number   1
_chemical_formula_structural   GdAl17N18
_chemical_formula_sum   'Gd2 Al34 N36'
_cell_volume   819.17171505
_cell_formula_units_Z   2
loop_
 _symmetry_equiv_pos_site_id
 _symmetry_equiv_pos_as_xyz
  1  'x, y, z'
loop_
 _atom_site_type_symbol
 _atom_site_label
 _atom_site_symmetry_multiplicity
 _atom_site_fract_x
 _atom_site_fract_y
 _atom_site_fract_z
 _atom_site_occupancy
  Al  Al0  1  0.12139764  0.08397949  0.40638967  1
  Al  Al1  1  0.78461086  0.08729079  0.81542337  1
  Al  Al2  1  0.88444033  0.20178842  0.57726382  1
  Al  Al3  1  0.44786929  0.09508399  0.40088292  1
  Al  Al4  1  0.55650999  0.20824386  0.13904851  1
  Al  Al5  1  0.11442380  0.08837989  0.88045370  1
  Al  Al6  1  0.22180238  0.20610970  0.64399392  1
  Al  Al7  1  0.78769747  0.08516195  0.31976386  1
  Al  Al8  1  0.87922368  0.20358949  0.05213411  1
  Al  Al9  1  0.44930351  0.09671229  0.88274348  1
  Al  Al10  1  0.54951827  0.20904383  0.64215079  1
  Al  Al11  1  0.11979633  0.43002530  0.40562524  1
  Al  Al12  1  0.22094254  0.54315618  0.13847081  1
  Al  Al13  1  0.77374006  0.42930085  0.81223565  1
  Al  Al14  1  0.88394403  0.54673349  0.57637918  1
  Al  Al15  1  0.43618045  0.42347408  0.39163702  1
  Al  Al16  1  0.55943417  0.53632209  0.05574544  1
  Al  Al17  1  0.11413384  0.43023297  0.88016034  1
  Al  Al18  1  0.22116473  0.54195518  0.64230761  1
  Al  Al19  1  0.88057172  0.54847797  0.05212432  1
  Al  Al20  1  0.44020833  0.42293767  0.88520438  1
  Al  Al21  1  0.55236076  0.53855531  0.57257759  1
  Al  Al22  1  0.11904607  0.75692102  0.38706822  1
  Al  Al23  1  0.22185886  0.86845901  0.13855453  1
  Al  Al24  1  0.78259416  0.76176155  0.81571937  1
  Al  Al25  1  0.88356452  0.87478455  0.56380418  1
  Al  Al26  1  0.43642959  0.77364200  0.39431599  1
  Al  Al27  1  0.56543137  0.86631763  0.07922057  1
  Al  Al28  1  0.11709969  0.75719455  0.89303383  1
  Al  Al29  1  0.21920068  0.86982434  0.64305067  1
  Al  Al30  1  0.77712521  0.76627848  0.31989602  1
  Al  Al31  1  0.88437928  0.87569695  0.07070448  1
  Al  Al32  1  0.43783219  0.76553877  0.87826153  1
  Al  Al33  1  0.55425134  0.87403045  0.61637043  1
  Gd  Gd34  1  0.22204503  0.20429400  0.14251114  1
  Gd  Gd35  1  0.78142244  0.42670078  0.31615075  1
  N  N36  1  0.21841908  0.20838823  0.35946185  1
  N  N37  1  0.10579885  0.07491540  0.06286972  1
  N  N38  1  0.88097978  0.20824798  0.86757469  1
  N  N39  1  0.78287897  0.08639966  0.63248140  1
  N  N40  1  0.54904861  0.20804428  0.32667994  1
  N  N41  1  0.47449848  0.08641057  0.06366067  1
  N  N42  1  0.22253023  0.20536442  0.83108434  1
  N  N43  1  0.11755767  0.08969720  0.59179862  1
  N  N44  1  0.89522002  0.17999758  0.39610202  1
  N  N45  1  0.78714924  0.09229987  0.13364622  1
  N  N46  1  0.55101362  0.20968744  0.82461247  1
  N  N47  1  0.44456249  0.09781332  0.58618933  1
  N  N48  1  0.22071848  0.53717342  0.32496829  1
  N  N49  1  0.10600176  0.45149594  0.06334533  1
  N  N50  1  0.88113956  0.54317466  0.86740205  1
  N  N51  1  0.77592687  0.42824180  0.62626705  1
  N  N52  1  0.53169003  0.55086122  0.38616336  1
  N  N53  1  0.44284581  0.42377792  0.07458242  1
  N  N54  1  0.22110276  0.54300723  0.82487828  1
  N  N55  1  0.11613411  0.42684031  0.59160423  1
  N  N56  1  0.89439422  0.56014369  0.39477266  1
  N  N57  1  0.78165862  0.42563309  0.09976319  1
  N  N58  1  0.55414384  0.53743771  0.86802114  1
  N  N59  1  0.43922922  0.42165297  0.57957301  1
  N  N60  1  0.22126371  0.87577338  0.32556632  1
  N  N61  1  0.11836227  0.75730354  0.07935309  1
  N  N62  1  0.88282763  0.87500205  0.88494819  1
  N  N63  1  0.78245800  0.76365272  0.63404435  1
  N  N64  1  0.55561474  0.87494775  0.36251872  1
  N  N65  1  0.44061161  0.76543682  0.07105692  1
  N  N66  1  0.21810599  0.86946447  0.82439952  1
  N  N67  1  0.11825993  0.75681898  0.57400392  1
  N  N68  1  0.88514004  0.87336280  0.37850513  1
  N  N69  1  0.78291844  0.75642840  0.13057623  1
  N  N70  1  0.55518912  0.87204906  0.84730986  1
  N  N71  1  0.43827426  0.76740806  0.58691998  1
