# generated using pymatgen
data_GdAl17N18
_symmetry_space_group_name_H-M   'P 1'
_cell_length_a   9.52115057
_cell_length_b   9.52365359
_cell_length_c   10.13320602
_cell_angle_alpha   90.01007384
_cell_angle_beta   89.91159549
_cell_angle_gamma   59.99356999
_symmetry_Int_Tables_number   1
_chemical_formula_structural   GdAl17N18
_chemical_formula_sum   'Gd2 Al34 N36'
_cell_volume   795.68580035
_cell_formula_units_Z   2
loop_
 _symmetry_equiv_pos_site_id
 _symmetry_equiv_pos_as_xyz
  1  'x, y, z'
loop_
 _atom_site_type_symbol
 _atom_site_label
 _atom_site_symmetry_multiplicity
 _atom_site_fract_x
 _atom_site_fract_y
 _atom_site_fract_z
 _atom_site_occupancy
  Al  Al0  1  0.11313689  0.08704024  0.40535525  1
  Al  Al1  1  0.77587094  0.09468512  0.89489592  1
  Al  Al2  1  0.88763818  0.20458388  0.65501130  1
  Al  Al3  1  0.44715043  0.09312317  0.40514231  1
  Al  Al4  1  0.55979843  0.20396745  0.14568989  1
  Al  Al5  1  0.10962015  0.08913403  0.89095620  1
  Al  Al6  1  0.22216447  0.20556580  0.64652127  1
  Al  Al7  1  0.77964970  0.08957597  0.39427900  1
  Al  Al8  1  0.88895285  0.19591484  0.14091605  1
  Al  Al9  1  0.45096890  0.09116616  0.89116161  1
  Al  Al10  1  0.55650857  0.20702962  0.64657784  1
  Al  Al11  1  0.11320688  0.43324672  0.40533571  1
  Al  Al12  1  0.22057998  0.54401944  0.14650120  1
  Al  Al13  1  0.77743864  0.42794578  0.89774385  1
  Al  Al14  1  0.88765679  0.54109486  0.65501624  1
  Al  Al15  1  0.43833887  0.42998574  0.39547024  1
  Al  Al16  1  0.54728691  0.54306293  0.14084436  1
  Al  Al17  1  0.10966521  0.43453496  0.89091217  1
  Al  Al18  1  0.22396819  0.54010470  0.64691814  1
  Al  Al19  1  0.88902234  0.54854529  0.14081500  1
  Al  Al20  1  0.44316849  0.42692539  0.89701663  1
  Al  Al21  1  0.55302594  0.54014179  0.65479153  1
  Al  Al22  1  0.11241849  0.76050723  0.39401933  1
  Al  Al23  1  0.22054519  0.86882333  0.14650353  1
  Al  Al24  1  0.77587560  0.76277885  0.89488044  1
  Al  Al25  1  0.88975852  0.87176975  0.63308392  1
  Al  Al26  1  0.43828730  0.76513852  0.39545107  1
  Al  Al27  1  0.55979125  0.86962367  0.14565273  1
  Al  Al28  1  0.11310634  0.76010085  0.89470959  1
  Al  Al29  1  0.22395559  0.86926054  0.64692280  1
  Al  Al30  1  0.77970250  0.76425189  0.39416746  1
  Al  Al31  1  0.88882600  0.87230369  0.13096315  1
  Al  Al32  1  0.44315672  0.76323208  0.89699811  1
  Al  Al33  1  0.55653520  0.86975004  0.64653629  1
  Gd  Gd34  1  0.21996089  0.20672746  0.14504622  1
  Gd  Gd35  1  0.77654040  0.42858688  0.39151168  1
  N  N36  1  0.22093013  0.20624156  0.36777976  1
  N  N37  1  0.09899715  0.07649878  0.07473685  1
  N  N38  1  0.88676598  0.20537460  0.84155371  1
  N  N39  1  0.77719068  0.09748921  0.58616900  1
  N  N40  1  0.55486858  0.20597489  0.33792682  1
  N  N41  1  0.47321245  0.08007715  0.07759024  1
  N  N42  1  0.22229640  0.20549129  0.84207070  1
  N  N43  1  0.10878082  0.09292559  0.59499241  1
  N  N44  1  0.90629078  0.17440805  0.32751428  1
  N  N45  1  0.77454029  0.09524924  0.08386427  1
  N  N46  1  0.55590398  0.20767389  0.83446800  1
  N  N47  1  0.44794709  0.09266976  0.59358554  1
  N  N48  1  0.22193774  0.53779882  0.33738306  1
  N  N49  1  0.09907145  0.45785284  0.07467161  1
  N  N50  1  0.88678240  0.54117372  0.84155111  1
  N  N51  1  0.77711423  0.42809655  0.61267285  1
  N  N52  1  0.52257457  0.55543184  0.32616492  1
  N  N53  1  0.44231279  0.42553557  0.08600670  1
  N  N54  1  0.22486367  0.54004258  0.83415146  1
  N  N55  1  0.10878953  0.43159694  0.59498496  1
  N  N56  1  0.90645140  0.55280203  0.32737766  1
  N  N57  1  0.77865139  0.42738796  0.09457715  1
  N  N58  1  0.55289552  0.54020853  0.84442747  1
  N  N59  1  0.44561540  0.42832096  0.58669302  1
  N  N60  1  0.22187452  0.87374653  0.33738330  1
  N  N61  1  0.11362768  0.75987081  0.08617873  1
  N  N62  1  0.88963678  0.87184098  0.84110105  1
  N  N63  1  0.77721574  0.75858824  0.58608057  1
  N  N64  1  0.55488412  0.87255265  0.33788895  1
  N  N65  1  0.44227865  0.76554450  0.08599113  1
  N  N66  1  0.22483879  0.86842150  0.83416472  1
  N  N67  1  0.11436380  0.75947103  0.58504298  1
  N  N68  1  0.89006794  0.87173859  0.34398981  1
  N  N69  1  0.77454202  0.76362009  0.08383537  1
  N  N70  1  0.55591935  0.86971236  0.83443672  1
  N  N71  1  0.44560662  0.75936873  0.58667574  1
