# generated using pymatgen
data_GdAl17N18
_symmetry_space_group_name_H-M   'P 1'
_cell_length_a   9.48861864
_cell_length_b   9.53341200
_cell_length_c   10.46851989
_cell_angle_alpha   89.94630425
_cell_angle_beta   89.99958151
_cell_angle_gamma   59.83155715
_symmetry_Int_Tables_number   1
_chemical_formula_structural   GdAl17N18
_chemical_formula_sum   'Gd2 Al34 N36'
_cell_volume   818.70485113
_cell_formula_units_Z   2
loop_
 _symmetry_equiv_pos_site_id
 _symmetry_equiv_pos_as_xyz
  1  'x, y, z'
loop_
 _atom_site_type_symbol
 _atom_site_label
 _atom_site_symmetry_multiplicity
 _atom_site_fract_x
 _atom_site_fract_y
 _atom_site_fract_z
 _atom_site_occupancy
  Al  Al0  1  0.12136132  0.08396204  0.40637517  1
  Al  Al1  1  0.78447959  0.08741683  0.81529982  1
  Al  Al2  1  0.88438711  0.20182909  0.57725764  1
  Al  Al3  1  0.44844911  0.09362531  0.40066569  1
  Al  Al4  1  0.55662652  0.20804751  0.13881699  1
  Al  Al5  1  0.11444324  0.08843542  0.88030951  1
  Al  Al6  1  0.22200232  0.20602608  0.64364388  1
  Al  Al7  1  0.78757514  0.08523697  0.31975722  1
  Al  Al8  1  0.87922176  0.20362707  0.05210497  1
  Al  Al9  1  0.44998356  0.09520068  0.88267486  1
  Al  Al10  1  0.54946035  0.20876973  0.64185310  1
  Al  Al11  1  0.11988143  0.42988546  0.40571959  1
  Al  Al12  1  0.22091217  0.54316258  0.13849820  1
  Al  Al13  1  0.77364100  0.42933345  0.81211554  1
  Al  Al14  1  0.88367181  0.54711064  0.57635032  1
  Al  Al15  1  0.43618875  0.42342045  0.39160357  1
  Al  Al16  1  0.55961255  0.53621499  0.05545831  1
  Al  Al17  1  0.11429374  0.43005500  0.88009264  1
  Al  Al18  1  0.22112540  0.54198870  0.64225157  1
  Al  Al19  1  0.88059620  0.54842298  0.05195388  1
  Al  Al20  1  0.44017068  0.42293121  0.88500884  1
  Al  Al21  1  0.55228000  0.53899442  0.57229940  1
  Al  Al22  1  0.11917552  0.75693902  0.38717110  1
  Al  Al23  1  0.22157871  0.86868361  0.13860874  1
  Al  Al24  1  0.78368813  0.76131620  0.81561813  1
  Al  Al25  1  0.88329799  0.87470891  0.56385322  1
  Al  Al26  1  0.43691721  0.77420879  0.39432860  1
  Al  Al27  1  0.56303508  0.86754621  0.09628877  1
  Al  Al28  1  0.11730599  0.75719296  0.89291104  1
  Al  Al29  1  0.21948469  0.86972220  0.64277340  1
  Al  Al30  1  0.77846419  0.76558895  0.31990676  1
  Al  Al31  1  0.88443831  0.87567826  0.07046458  1
  Al  Al32  1  0.43840103  0.76643376  0.87872281  1
  Al  Al33  1  0.55178382  0.87517773  0.63094840  1
  Gd  Gd34  1  0.22215549  0.20440842  0.14256485  1
  Gd  Gd35  1  0.78135705  0.42665800  0.31615260  1
  N  N36  1  0.21835699  0.20836257  0.35946680  1
  N  N37  1  0.10581714  0.07509966  0.06286873  1
  N  N38  1  0.88093845  0.20828514  0.86763225  1
  N  N39  1  0.78286200  0.08645194  0.63249090  1
  N  N40  1  0.54891871  0.20790061  0.32648130  1
  N  N41  1  0.47553170  0.08457424  0.06292887  1
  N  N42  1  0.22266029  0.20531445  0.83101893  1
  N  N43  1  0.11743968  0.08976192  0.59178876  1
  N  N44  1  0.89516088  0.17998472  0.39610926  1
  N  N45  1  0.78720040  0.09222695  0.13359992  1
  N  N46  1  0.55085051  0.20950702  0.82456506  1
  N  N47  1  0.44539678  0.09631627  0.58529586  1
  N  N48  1  0.22065650  0.53717254  0.32490651  1
  N  N49  1  0.10616602  0.45128903  0.06325031  1
  N  N50  1  0.88101826  0.54321649  0.86755351  1
  N  N51  1  0.77581820  0.42834497  0.62627520  1
  N  N52  1  0.53159713  0.55103827  0.38600680  1
  N  N53  1  0.44285134  0.42369144  0.07447561  1
  N  N54  1  0.22105331  0.54302878  0.82481708  1
  N  N55  1  0.11614115  0.42682602  0.59156669  1
  N  N56  1  0.89435200  0.56005299  0.39483445  1
  N  N57  1  0.78158481  0.42572178  0.09978772  1
  N  N58  1  0.55402183  0.53780511  0.86808448  1
  N  N59  1  0.43926021  0.42168652  0.57953702  1
  N  N60  1  0.22128778  0.87569421  0.32545724  1
  N  N61  1  0.11858014  0.75727625  0.07918631  1
  N  N62  1  0.88280416  0.87509632  0.88500975  1
  N  N63  1  0.78280025  0.76350863  0.63362505  1
  N  N64  1  0.55326662  0.87609411  0.35039418  1
  N  N65  1  0.44114331  0.76605127  0.07025253  1
  N  N66  1  0.21844032  0.86934042  0.82434202  1
  N  N67  1  0.11832548  0.75685256  0.57395305  1
  N  N68  1  0.88509586  0.87346474  0.37861616  1
  N  N69  1  0.78486874  0.75540560  0.13050565  1
  N  N70  1  0.55270787  0.87353507  0.83541660  1
  N  N71  1  0.43880094  0.76841454  0.58555768  1
