# generated using pymatgen
data_GdAl17N18
_symmetry_space_group_name_H-M   'P 1'
_cell_length_a   9.50897577
_cell_length_b   9.51311992
_cell_length_c   10.12980817
_cell_angle_alpha   89.99999846
_cell_angle_beta   89.92923765
_cell_angle_gamma   59.98558241
_symmetry_Int_Tables_number   1
_chemical_formula_structural   GdAl17N18
_chemical_formula_sum   'Gd2 Al34 N36'
_cell_volume   793.45994932
_cell_formula_units_Z   2
loop_
 _symmetry_equiv_pos_site_id
 _symmetry_equiv_pos_as_xyz
  1  'x, y, z'
loop_
 _atom_site_type_symbol
 _atom_site_label
 _atom_site_symmetry_multiplicity
 _atom_site_fract_x
 _atom_site_fract_y
 _atom_site_fract_z
 _atom_site_occupancy
  Al  Al0  1  0.11318203  0.08691217  0.41787709  1
  Al  Al1  1  0.77658680  0.09321149  0.90934649  1
  Al  Al2  1  0.88733227  0.20405432  0.66714560  1
  Al  Al3  1  0.44717067  0.09308659  0.41763045  1
  Al  Al4  1  0.56072020  0.20330460  0.15791293  1
  Al  Al5  1  0.10966034  0.08914762  0.90313783  1
  Al  Al6  1  0.22205705  0.20564340  0.65879025  1
  Al  Al7  1  0.78033179  0.08801972  0.40803779  1
  Al  Al8  1  0.88911483  0.19508948  0.15318177  1
  Al  Al9  1  0.45104096  0.09115145  0.90339502  1
  Al  Al10  1  0.55710545  0.20651286  0.65878975  1
  Al  Al11  1  0.11318203  0.43324964  0.41787709  1
  Al  Al12  1  0.22032877  0.54447396  0.15872127  1
  Al  Al13  1  0.77756231  0.42789076  0.90985755  1
  Al  Al14  1  0.88733228  0.54195727  0.66714561  1
  Al  Al15  1  0.43819368  0.43002535  0.40768108  1
  Al  Al16  1  0.54743113  0.54295636  0.15288875  1
  Al  Al17  1  0.10966034  0.43453588  0.90313784  1
  Al  Al18  1  0.22300551  0.54120186  0.65906511  1
  Al  Al19  1  0.88911484  0.54913954  0.15318177  1
  Al  Al20  1  0.44309069  0.42691761  0.90900765  1
  Al  Al21  1  0.55291932  0.54021226  0.66697067  1
  Al  Al22  1  0.11061102  0.76136640  0.40721830  1
  Al  Al23  1  0.22032876  0.86854111  0.15872127  1
  Al  Al24  1  0.77658680  0.76354557  0.90934649  1
  Al  Al25  1  0.88947149  0.87193619  0.65844619  1
  Al  Al26  1  0.43819365  0.76512483  0.40768108  1
  Al  Al27  1  0.56072022  0.86931906  0.15791293  1
  Al  Al28  1  0.11151407  0.76091488  0.90935307  1
  Al  Al29  1  0.22300551  0.86913647  0.65906511  1
  Al  Al30  1  0.78033179  0.76499235  0.40803779  1
  Al  Al31  1  0.88881233  0.87226577  0.15803360  1
  Al  Al32  1  0.44309069  0.76333555  0.90900766  1
  Al  Al33  1  0.55710544  0.86972554  0.65878976  1
  Gd  Gd34  1  0.22030219  0.20652081  0.15749395  1
  Gd  Gd35  1  0.77677881  0.42828252  0.40329722  1
  N  N36  1  0.22079823  0.20627281  0.38027172  1
  N  N37  1  0.09931406  0.07645872  0.08693495  1
  N  N38  1  0.88641580  0.20477400  0.85405207  1
  N  N39  1  0.77851944  0.09441281  0.59901630  1
  N  N40  1  0.55547943  0.20547974  0.35062400  1
  N  N41  1  0.47341401  0.07996493  0.08976863  1
  N  N42  1  0.22229804  0.20552291  0.85421388  1
  N  N43  1  0.10865675  0.09299089  0.60743300  1
  N  N44  1  0.90622098  0.17341147  0.34024923  1
  N  N45  1  0.77625296  0.09209812  0.09746910  1
  N  N46  1  0.55680165  0.20707498  0.84700122  1
  N  N47  1  0.44781005  0.09276690  0.60602285  1
  N  N48  1  0.22128595  0.53857311  0.34999754  1
  N  N49  1  0.09931408  0.45757105  0.08693496  1
  N  N50  1  0.88641580  0.54215406  0.85405208  1
  N  N51  1  0.77716119  0.42809134  0.62471112  1
  N  N52  1  0.52252396  0.55540995  0.33820504  1
  N  N53  1  0.44245826  0.42531609  0.09817196  1
  N  N54  1  0.22402748  0.54116572  0.84668230  1
  N  N55  1  0.10865675  0.43169621  0.60743300  1
  N  N56  1  0.90622097  0.55371140  0.34024922  1
  N  N57  1  0.77900617  0.42716884  0.10702844  1
  N  N58  1  0.55292006  0.54021190  0.85656859  1
  N  N59  1  0.44533101  0.42845034  0.59905573  1
  N  N60  1  0.22128594  0.87348478  0.34999753  1
  N  N61  1  0.11094494  0.76119945  0.09990919  1
  N  N62  1  0.88947478  0.87193454  0.84875576  1
  N  N63  1  0.77851944  0.76041161  0.59901630  1
  N  N64  1  0.55547942  0.87238470  0.35062400  1
  N  N65  1  0.44245825  0.76556952  0.09817197  1
  N  N66  1  0.22402748  0.86815064  0.84668230  1
  N  N67  1  0.11070865  0.76131759  0.59758586  1
  N  N68  1  0.88931269  0.87201558  0.34850128  1
  N  N69  1  0.77625297  0.76499278  0.09746910  1
  N  N70  1  0.55680166  0.86946722  0.84700123  1
  N  N71  1  0.44533101  0.75956249  0.59905572  1
