# generated using pymatgen
data_GdAl17N18
_symmetry_space_group_name_H-M   'P 1'
_cell_length_a   9.51693418
_cell_length_b   9.58729574
_cell_length_c   10.41910576
_cell_angle_alpha   89.98626725
_cell_angle_beta   90.17009899
_cell_angle_gamma   59.75244512
_symmetry_Int_Tables_number   1
_chemical_formula_structural   GdAl17N18
_chemical_formula_sum   'Gd2 Al34 N36'
_cell_volume   821.22602660
_cell_formula_units_Z   2
loop_
 _symmetry_equiv_pos_site_id
 _symmetry_equiv_pos_as_xyz
  1  'x, y, z'
loop_
 _atom_site_type_symbol
 _atom_site_label
 _atom_site_symmetry_multiplicity
 _atom_site_fract_x
 _atom_site_fract_y
 _atom_site_fract_z
 _atom_site_occupancy
  Al  Al0  1  0.12069167  0.08355896  0.40514744  1
  Al  Al1  1  0.78445214  0.08766765  0.81613748  1
  Al  Al2  1  0.88552498  0.20139346  0.57590105  1
  Al  Al3  1  0.44406642  0.09881514  0.40580703  1
  Al  Al4  1  0.56631669  0.20436600  0.06958502  1
  Al  Al5  1  0.11392760  0.08812734  0.88173486  1
  Al  Al6  1  0.22084570  0.20566239  0.64548478  1
  Al  Al7  1  0.77630065  0.09079531  0.32034078  1
  Al  Al8  1  0.88101967  0.20394434  0.05374839  1
  Al  Al9  1  0.44629677  0.09341451  0.87702326  1
  Al  Al10  1  0.55659091  0.20526214  0.61258565  1
  Al  Al11  1  0.12026738  0.42980098  0.40504763  1
  Al  Al12  1  0.22296329  0.54250274  0.13876107  1
  Al  Al13  1  0.77676604  0.42820233  0.81226951  1
  Al  Al14  1  0.88597324  0.54563249  0.57668085  1
  Al  Al15  1  0.43577882  0.42520569  0.39772656  1
  Al  Al16  1  0.55902815  0.53734837  0.05406328  1
  Al  Al17  1  0.11318454  0.43154444  0.88153071  1
  Al  Al18  1  0.21777498  0.54479053  0.64333047  1
  Al  Al19  1  0.87986159  0.54957887  0.05380357  1
  Al  Al20  1  0.43725435  0.43091312  0.87544576  1
  Al  Al21  1  0.55267796  0.54031974  0.57881925  1
  Al  Al22  1  0.11762103  0.75774276  0.38543306  1
  Al  Al23  1  0.22319111  0.86753176  0.13839553  1
  Al  Al24  1  0.78043881  0.76256736  0.81471918  1
  Al  Al25  1  0.88459126  0.87470225  0.56303510  1
  Al  Al26  1  0.43349153  0.77079221  0.39652567  1
  Al  Al27  1  0.56717093  0.86276670  0.06019725  1
  Al  Al28  1  0.11477311  0.75900180  0.89449238  1
  Al  Al29  1  0.21897969  0.87058427  0.64330754  1
  Al  Al30  1  0.77650791  0.76649694  0.32053229  1
  Al  Al31  1  0.88382955  0.87424180  0.07304175  1
  Al  Al32  1  0.43768819  0.76444965  0.87517638  1
  Al  Al33  1  0.56185920  0.86866576  0.58215369  1
  Gd  Gd34  1  0.22240022  0.20578347  0.14263869  1
  Gd  Gd35  1  0.77952759  0.42666726  0.31773229  1
  N  N36  1  0.21932598  0.20724173  0.36049395  1
  N  N37  1  0.10605552  0.07456422  0.06501192  1
  N  N38  1  0.88192379  0.20809640  0.86791875  1
  N  N39  1  0.78422500  0.08618740  0.63394431  1
  N  N40  1  0.55804255  0.20422638  0.37337951  1
  N  N41  1  0.46886609  0.08358255  0.06416025  1
  N  N42  1  0.21988104  0.20652722  0.83221152  1
  N  N43  1  0.11733445  0.08957601  0.59147370  1
  N  N44  1  0.89575309  0.17841981  0.39327741  1
  N  N45  1  0.78057326  0.09577923  0.13054237  1
  N  N46  1  0.55802238  0.20674771  0.85099611  1
  N  N47  1  0.44311353  0.09498708  0.59613870  1
  N  N48  1  0.22255589  0.53616877  0.32648740  1
  N  N49  1  0.10503430  0.45357062  0.06503172  1
  N  N50  1  0.88142752  0.54367340  0.86735214  1
  N  N51  1  0.77876480  0.42694285  0.62551384  1
  N  N52  1  0.53143922  0.55051949  0.39018607  1
  N  N53  1  0.44011911  0.42923677  0.06972009  1
  N  N54  1  0.21654969  0.54638139  0.82532932  1
  N  N55  1  0.11751759  0.42603066  0.59164122  1
  N  N56  1  0.89504512  0.55948088  0.39373331  1
  N  N57  1  0.78130682  0.42597037  0.09982339  1
  N  N58  1  0.55582136  0.53847866  0.86368314  1
  N  N59  1  0.43754831  0.42823259  0.59134156  1
  N  N60  1  0.22198017  0.87523205  0.32605907  1
  N  N61  1  0.11688806  0.75804295  0.08186275  1
  N  N62  1  0.88207849  0.87483892  0.88530125  1
  N  N63  1  0.78241040  0.76375579  0.63296003  1
  N  N64  1  0.55981288  0.87140211  0.38695028  1
  N  N65  1  0.44005472  0.76324415  0.07230411  1
  N  N66  1  0.21685423  0.87004628  0.82540247  1
  N  N67  1  0.11745534  0.75814421  0.57355701  1
  N  N68  1  0.88444858  0.87455171  0.37590397  1
  N  N69  1  0.77796482  0.75846806  0.13218356  1
  N  N70  1  0.56129905  0.86607163  0.86664589  1
  N  N71  1  0.43809590  0.76709216  0.59120509  1
