# generated using pymatgen
data_GdAl17N18
_symmetry_space_group_name_H-M   'P 1'
_cell_length_a   9.48562288
_cell_length_b   9.50871132
_cell_length_c   10.40760394
_cell_angle_alpha   90.00000505
_cell_angle_beta   89.52599399
_cell_angle_gamma   59.91945028
_symmetry_Int_Tables_number   1
_chemical_formula_structural   GdAl17N18
_chemical_formula_sum   'Gd2 Al34 N36'
_cell_volume   812.26170636
_cell_formula_units_Z   2
loop_
 _symmetry_equiv_pos_site_id
 _symmetry_equiv_pos_as_xyz
  1  'x, y, z'
loop_
 _atom_site_type_symbol
 _atom_site_label
 _atom_site_symmetry_multiplicity
 _atom_site_fract_x
 _atom_site_fract_y
 _atom_site_fract_z
 _atom_site_occupancy
  Al  Al0  1  0.12375339  0.08071228  0.40479420  1
  Al  Al1  1  0.78121993  0.08920796  0.81468386  1
  Al  Al2  1  0.88794007  0.19859768  0.57754232  1
  Al  Al3  1  0.44736850  0.09302012  0.39459764  1
  Al  Al4  1  0.55490403  0.20739469  0.13534587  1
  Al  Al5  1  0.11489447  0.08715472  0.87847553  1
  Al  Al6  1  0.22555236  0.20392822  0.64252513  1
  Al  Al7  1  0.78575976  0.08569291  0.31743718  1
  Al  Al8  1  0.87459897  0.20811858  0.05230094  1
  Al  Al9  1  0.45151319  0.09094783  0.88391769  1
  Al  Al10  1  0.55004184  0.20937366  0.63680361  1
  Al  Al11  1  0.12375339  0.42894307  0.40479421  1
  Al  Al12  1  0.21673208  0.54501649  0.13594292  1
  Al  Al13  1  0.78019307  0.42660786  0.81226412  1
  Al  Al14  1  0.88794002  0.54687100  0.57754230  1
  Al  Al15  1  0.44008754  0.42888951  0.38412751  1
  Al  Al16  1  0.54181010  0.54579939  0.12966030  1
  Al  Al17  1  0.11489444  0.43135968  0.87847551  1
  Al  Al18  1  0.22430868  0.54211773  0.63933686  1
  Al  Al19  1  0.87459897  0.55069128  0.05230094  1
  Al  Al20  1  0.44442340  0.42790721  0.88515680  1
  Al  Al21  1  0.54885706  0.54227584  0.63392871  1
  Al  Al22  1  0.11741354  0.75799760  0.38489399  1
  Al  Al23  1  0.21673208  0.87166030  0.13594293  1
  Al  Al24  1  0.78121988  0.76298095  0.81468386  1
  Al  Al25  1  0.88346674  0.87497098  0.56389146  1
  Al  Al26  1  0.44008754  0.76443170  0.38412751  1
  Al  Al27  1  0.55490401  0.87111013  0.13534587  1
  Al  Al28  1  0.11726857  0.75807013  0.88962150  1
  Al  Al29  1  0.22430869  0.86698232  0.63933686  1
  Al  Al30  1  0.78575975  0.76195605  0.31743716  1
  Al  Al31  1  0.88147332  0.87596776  0.06785925  1
  Al  Al32  1  0.44442339  0.76107822  0.88515680  1
  Al  Al33  1  0.55004181  0.87399328  0.63680361  1
  Gd  Gd34  1  0.21807110  0.20766892  0.13793087  1
  Gd  Gd35  1  0.79309531  0.42015669  0.32541669  1
  N  N36  1  0.21730943  0.20804966  0.35619609  1
  N  N37  1  0.10164327  0.07732803  0.06155183  1
  N  N38  1  0.88019857  0.20860499  0.86692022  1
  N  N39  1  0.78278370  0.08694464  0.63179974  1
  N  N40  1  0.54775016  0.20860024  0.32449018  1
  N  N41  1  0.47617273  0.07861806  0.06476871  1
  N  N42  1  0.22333531  0.20503677  0.83088498  1
  N  N43  1  0.12137700  0.08725596  0.59087582  1
  N  N44  1  0.89867787  0.17274100  0.39634853  1
  N  N45  1  0.78491602  0.09273164  0.13099308  1
  N  N46  1  0.54748976  0.21151793  0.82268929  1
  N  N47  1  0.44894085  0.09223395  0.57883438  1
  N  N48  1  0.22057881  0.53761870  0.32333771  1
  N  N49  1  0.10164325  0.45443760  0.06155180  1
  N  N50  1  0.88019854  0.54460527  0.86692020  1
  N  N51  1  0.78382244  0.42479314  0.62186142  1
  N  N52  1  0.52344674  0.55498101  0.31585209  1
  N  N53  1  0.44208071  0.42637552  0.07163202  1
  N  N54  1  0.22355914  0.54282565  0.82282443  1
  N  N55  1  0.12137697  0.42477581  0.59087581  1
  N  N56  1  0.89867786  0.56198986  0.39634850  1
  N  N57  1  0.77633126  0.42853879  0.10503054  1
  N  N58  1  0.54749479  0.54295701  0.82159331  1
  N  N59  1  0.44644425  0.42694563  0.57133911  1
  N  N60  1  0.22057881  0.87521122  0.32333772  1
  N  N61  1  0.11580537  0.75880175  0.07679953  1
  N  N62  1  0.88173533  0.87583674  0.88229815  1
  N  N63  1  0.78278366  0.76368042  0.63179974  1
  N  N64  1  0.54775015  0.87705836  0.32449017  1
  N  N65  1  0.44208070  0.76495262  0.07163201  1
  N  N66  1  0.22355912  0.86702404  0.82282443  1
  N  N67  1  0.11876584  0.75732145  0.57239264  1
  N  N68  1  0.88352026  0.87494423  0.37827550  1
  N  N69  1  0.78491600  0.75576120  0.13099306  1
  N  N70  1  0.54748971  0.87440117  0.82268929  1
  N  N71  1  0.44644426  0.76001886  0.57133911  1
