# generated using pymatgen
data_GdAl17N18
_symmetry_space_group_name_H-M   'P 1'
_cell_length_a   9.53362322
_cell_length_b   9.51507935
_cell_length_c   10.30861320
_cell_angle_alpha   90.20706462
_cell_angle_beta   89.63023491
_cell_angle_gamma   60.06235349
_symmetry_Int_Tables_number   1
_chemical_formula_structural   GdAl17N18
_chemical_formula_sum   'Gd2 Al34 N36'
_cell_volume   810.31010075
_cell_formula_units_Z   2
loop_
 _symmetry_equiv_pos_site_id
 _symmetry_equiv_pos_as_xyz
  1  'x, y, z'
loop_
 _atom_site_type_symbol
 _atom_site_label
 _atom_site_symmetry_multiplicity
 _atom_site_fract_x
 _atom_site_fract_y
 _atom_site_fract_z
 _atom_site_occupancy
  Al  Al0  1  0.10860857  0.09016714  0.32139338  1
  Al  Al1  1  0.77608066  0.09168707  0.81009660  1
  Al  Al2  1  0.88842195  0.20021383  0.56515542  1
  Al  Al3  1  0.45531176  0.08835903  0.31647433  1
  Al  Al4  1  0.56122500  0.20498287  0.06264002  1
  Al  Al5  1  0.10422222  0.10093989  0.80063402  1
  Al  Al6  1  0.22855793  0.19571784  0.56592140  1
  Al  Al7  1  0.78125780  0.08833339  0.30985443  1
  Al  Al8  1  0.88409257  0.20301989  0.05007243  1
  Al  Al9  1  0.44612417  0.09407890  0.80308353  1
  Al  Al10  1  0.55796377  0.20538109  0.56001185  1
  Al  Al11  1  0.12052613  0.43113486  0.38771133  1
  Al  Al12  1  0.21280080  0.54728929  0.13111176  1
  Al  Al13  1  0.77279268  0.42909473  0.80856337  1
  Al  Al14  1  0.88465087  0.54512310  0.56961386  1
  Al  Al15  1  0.44722445  0.42529052  0.31155987  1
  Al  Al16  1  0.54950240  0.54235315  0.05118466  1
  Al  Al17  1  0.10764730  0.43532242  0.84849215  1
  Al  Al18  1  0.22005730  0.54292858  0.62939891  1
  Al  Al19  1  0.87937149  0.54974243  0.04294724  1
  Al  Al20  1  0.44822913  0.42437371  0.80945367  1
  Al  Al21  1  0.55168386  0.53983990  0.56304371  1
  Al  Al22  1  0.11796768  0.75699613  0.38231496  1
  Al  Al23  1  0.21566728  0.86680862  0.13583977  1
  Al  Al24  1  0.77357567  0.76844548  0.80801799  1
  Al  Al25  1  0.88130337  0.87628051  0.55877892  1
  Al  Al26  1  0.44877525  0.75940099  0.31393106  1
  Al  Al27  1  0.56256558  0.86819381  0.06316981  1
  Al  Al28  1  0.11620021  0.76046989  0.88200537  1
  Al  Al29  1  0.22109741  0.86610952  0.62684935  1
  Al  Al30  1  0.78294683  0.76297393  0.30980014  1
  Al  Al31  1  0.88211780  0.87560991  0.06176622  1
  Al  Al32  1  0.44746379  0.76187616  0.81065211  1
  Al  Al33  1  0.55838511  0.86887104  0.55914507  1
  Gd  Gd34  1  0.22821228  0.19720427  0.06522896  1
  Gd  Gd35  1  0.78476841  0.42506538  0.30478219  1
  N  N36  1  0.22759748  0.19838875  0.36910171  1
  N  N37  1  0.08341991  0.09231187  0.13390555  1
  N  N38  1  0.88699212  0.20412660  0.86301727  1
  N  N39  1  0.77601996  0.09231687  0.62460323  1
  N  N40  1  0.55861513  0.20646318  0.37358840  1
  N  N41  1  0.48059089  0.07748198  0.13431033  1
  N  N42  1  0.22049124  0.20669824  0.84208260  1
  N  N43  1  0.10883395  0.09531843  0.61459454  1
  N  N44  1  0.89883355  0.17794048  0.38485681  1
  N  N45  1  0.77788126  0.09645516  0.12080995  1
  N  N46  1  0.55260637  0.20609282  0.87252961  1
  N  N47  1  0.45036303  0.09032117  0.61644906  1
  N  N48  1  0.21862410  0.54081051  0.31962885  1
  N  N49  1  0.09816919  0.45774839  0.06314882  1
  N  N50  1  0.87867697  0.54668220  0.85429173  1
  N  N51  1  0.77664585  0.42677819  0.61751534  1
  N  N52  1  0.53164782  0.54992649  0.38026753  1
  N  N53  1  0.44970477  0.42631310  0.12087802  1
  N  N54  1  0.21706476  0.54721526  0.81489964  1
  N  N55  1  0.11708758  0.42556705  0.58297580  1
  N  N56  1  0.89718047  0.55783178  0.38464832  1
  N  N57  1  0.77549051  0.43035113  0.08576745  1
  N  N58  1  0.54893644  0.54221318  0.86564237  1
  N  N59  1  0.45157185  0.42210976  0.62179407  1
  N  N60  1  0.22428700  0.86455183  0.32545011  1
  N  N61  1  0.11502714  0.76043743  0.06887463  1
  N  N62  1  0.88192718  0.87564850  0.87316043  1
  N  N63  1  0.77529439  0.76653453  0.62351223  1
  N  N64  1  0.56062071  0.86691986  0.37299106  1
  N  N65  1  0.44949337  0.75998856  0.12063932  1
  N  N66  1  0.21742478  0.87251144  0.81921637  1
  N  N67  1  0.11456729  0.75771168  0.56793645  1
  N  N68  1  0.88505008  0.87468311  0.36957377  1
  N  N69  1  0.77957805  0.75809314  0.12143659  1
  N  N70  1  0.55202208  0.87653489  0.87317577  1
  N  N71  1  0.45167153  0.75897092  0.62184280  1
