# generated using pymatgen
data_GdAl17N18
_symmetry_space_group_name_H-M   'P 1'
_cell_length_a   9.48105036
_cell_length_b   9.52065924
_cell_length_c   10.45932861
_cell_angle_alpha   90.00021267
_cell_angle_beta   89.76728834
_cell_angle_gamma   59.87210930
_symmetry_Int_Tables_number   1
_chemical_formula_structural   GdAl17N18
_chemical_formula_sum   'Gd2 Al34 N36'
_cell_volume   816.56732523
_cell_formula_units_Z   2
loop_
 _symmetry_equiv_pos_site_id
 _symmetry_equiv_pos_as_xyz
  1  'x, y, z'
loop_
 _atom_site_type_symbol
 _atom_site_label
 _atom_site_symmetry_multiplicity
 _atom_site_fract_x
 _atom_site_fract_y
 _atom_site_fract_z
 _atom_site_occupancy
  Al  Al0  1  0.12224729  0.08193223  0.40738832  1
  Al  Al1  1  0.77749150  0.09142933  0.81669944  1
  Al  Al2  1  0.88564993  0.20277653  0.57928875  1
  Al  Al3  1  0.44254883  0.09538752  0.40018758  1
  Al  Al4  1  0.56256838  0.21005213  0.06844439  1
  Al  Al5  1  0.11489104  0.08658677  0.88051053  1
  Al  Al6  1  0.22714148  0.20309796  0.64549944  1
  Al  Al7  1  0.78039991  0.08933450  0.32087956  1
  Al  Al8  1  0.87840371  0.20472487  0.05248752  1
  Al  Al9  1  0.44614923  0.09358339  0.88623570  1
  Al  Al10  1  0.55974237  0.20985196  0.57401372  1
  Al  Al11  1  0.12224289  0.42914353  0.40738902  1
  Al  Al12  1  0.21287041  0.54795665  0.13919543  1
  Al  Al13  1  0.77542871  0.42894831  0.81510986  1
  Al  Al14  1  0.88564307  0.54491713  0.57928964  1
  Al  Al15  1  0.44424350  0.42640883  0.32059130  1
  Al  Al16  1  0.55210836  0.54060745  0.06178246  1
  Al  Al17  1  0.11488852  0.43184757  0.88051170  1
  Al  Al18  1  0.21692002  0.54525942  0.64340016  1
  Al  Al19  1  0.87839946  0.55021558  0.05248719  1
  Al  Al20  1  0.45041133  0.42583871  0.81814882  1
  Al  Al21  1  0.54746232  0.54293456  0.57156080  1
  Al  Al22  1  0.11759126  0.75786438  0.38886404  1
  Al  Al23  1  0.21287503  0.87250975  0.13919389  1
  Al  Al24  1  0.77749306  0.76440774  0.81669866  1
  Al  Al25  1  0.88223885  0.87555131  0.56650530  1
  Al  Al26  1  0.44424847  0.76266607  0.32059134  1
  Al  Al27  1  0.56256473  0.86071303  0.06844057  1
  Al  Al28  1  0.11610093  0.75861194  0.89362777  1
  Al  Al29  1  0.21692150  0.87115441  0.64340093  1
  Al  Al30  1  0.78039737  0.76359180  0.32088024  1
  Al  Al31  1  0.88026833  0.87653949  0.07118264  1
  Al  Al32  1  0.45041274  0.75706481  0.81814900  1
  Al  Al33  1  0.55973833  0.86374477  0.57401163  1
  Gd  Gd34  1  0.21420924  0.20957253  0.14307700  1
  Gd  Gd35  1  0.78112509  0.42609067  0.31889389  1
  N  N36  1  0.21949521  0.20692450  0.35939960  1
  N  N37  1  0.10430357  0.07418446  0.06184106  1
  N  N38  1  0.88160970  0.20790807  0.86685982  1
  N  N39  1  0.77852410  0.08997671  0.63449056  1
  N  N40  1  0.55806598  0.21030863  0.38453641  1
  N  N41  1  0.46606228  0.08361761  0.07764922  1
  N  N42  1  0.22344039  0.20495348  0.83189346  1
  N  N43  1  0.11955901  0.08894830  0.59176834  1
  N  N44  1  0.89606059  0.17970422  0.39652529  1
  N  N45  1  0.77897866  0.09637847  0.13393866  1
  N  N46  1  0.55882995  0.21153664  0.88007771  1
  N  N47  1  0.44729389  0.09300921  0.59006607  1
  N  N48  1  0.21354869  0.54098849  0.32536726  1
  N  N49  1  0.10429851  0.45483194  0.06183906  1
  N  N50  1  0.88160302  0.54383812  0.86685713  1
  N  N51  1  0.77573690  0.42878892  0.62686203  1
  N  N52  1  0.52295848  0.55519337  0.39141003  1
  N  N53  1  0.45106447  0.42627814  0.13252398  1
  N  N54  1  0.21716944  0.54663503  0.82591878  1
  N  N55  1  0.11955283  0.42480674  0.59176536  1
  N  N56  1  0.89605137  0.55758499  0.39652501  1
  N  N57  1  0.78192480  0.42569709  0.10124083  1
  N  N58  1  0.55194104  0.54069903  0.87831899  1
  N  N59  1  0.45073952  0.42478311  0.63405576  1
  N  N60  1  0.21355403  0.87880195  0.32536819  1
  N  N61  1  0.11486484  0.75922644  0.07864296  1
  N  N62  1  0.88042662  0.87646318  0.88462374  1
  N  N63  1  0.77852413  0.76481896  0.63448970  1
  N  N64  1  0.55806175  0.86497712  0.38453804  1
  N  N65  1  0.45106712  0.75595922  0.13252249  1
  N  N66  1  0.21717051  0.86954242  0.82592023  1
  N  N67  1  0.11764063  0.75783603  0.57418887  1
  N  N68  1  0.88250985  0.87541883  0.38025312  1
  N  N69  1  0.77897838  0.75796626  0.13393608  1
  N  N70  1  0.55882883  0.86297525  0.88007665  1
  N  N71  1  0.45074145  0.75778477  0.63405653  1
