# generated using pymatgen
data_GdAl17N18
_symmetry_space_group_name_H-M   'P 1'
_cell_length_a   9.48536964
_cell_length_b   9.50926679
_cell_length_c   10.40873786
_cell_angle_alpha   89.99984448
_cell_angle_beta   89.58275249
_cell_angle_gamma   59.90438089
_symmetry_Int_Tables_number   1
_chemical_formula_structural   GdAl17N18
_chemical_formula_sum   'Gd2 Al34 N36'
_cell_volume   812.26054317
_cell_formula_units_Z   2
loop_
 _symmetry_equiv_pos_site_id
 _symmetry_equiv_pos_as_xyz
  1  'x, y, z'
loop_
 _atom_site_type_symbol
 _atom_site_label
 _atom_site_symmetry_multiplicity
 _atom_site_fract_x
 _atom_site_fract_y
 _atom_site_fract_z
 _atom_site_occupancy
  Al  Al0  1  0.12498083  0.08252582  0.40572611  1
  Al  Al1  1  0.77594704  0.09122218  0.81806457  1
  Al  Al2  1  0.88478978  0.20221364  0.57908698  1
  Al  Al3  1  0.45786528  0.08773754  0.32907207  1
  Al  Al4  1  0.55940108  0.20465637  0.07314339  1
  Al  Al5  1  0.11258712  0.08658172  0.87998850  1
  Al  Al6  1  0.21984591  0.20673669  0.64473017  1
  Al  Al7  1  0.78285824  0.08860138  0.32132364  1
  Al  Al8  1  0.87639776  0.20439324  0.05254102  1
  Al  Al9  1  0.45128162  0.09103134  0.82330454  1
  Al  Al10  1  0.55553654  0.20573291  0.57245986  1
  Al  Al11  1  0.12499495  0.42582218  0.40572602  1
  Al  Al12  1  0.21408205  0.54771572  0.13981863  1
  Al  Al13  1  0.77466055  0.42933617  0.81491099  1
  Al  Al14  1  0.88480045  0.54630786  0.57908423  1
  Al  Al15  1  0.44477256  0.42613882  0.32196667  1
  Al  Al16  1  0.55265400  0.54034498  0.06278414  1
  Al  Al17  1  0.11259544  0.43415868  0.87998723  1
  Al  Al18  1  0.21842299  0.54446595  0.64303875  1
  Al  Al19  1  0.87640666  0.55251684  0.05254019  1
  Al  Al20  1  0.45005631  0.42408031  0.82059216  1
  Al  Al21  1  0.54808499  0.54262428  0.57339105  1
  Al  Al22  1  0.11818975  0.75757437  0.38937627  1
  Al  Al23  1  0.21407342  0.87152239  0.13981974  1
  Al  Al24  1  0.77594916  0.76615664  0.81806510  1
  Al  Al25  1  0.88246104  0.87542735  0.56765039  1
  Al  Al26  1  0.44476471  0.76243602  0.32196721  1
  Al  Al27  1  0.55940528  0.86927962  0.07314540  1
  Al  Al28  1  0.11646746  0.75843224  0.89368340  1
  Al  Al29  1  0.21842053  0.87043785  0.64303660  1
  Al  Al30  1  0.78286840  0.76186753  0.32132311  1
  Al  Al31  1  0.88221497  0.87554592  0.07242389  1
  Al  Al32  1  0.45005258  0.75921302  0.82059094  1
  Al  Al33  1  0.55553992  0.87206001  0.57245803  1
  Gd  Gd34  1  0.20607372  0.21361199  0.13406834  1
  Gd  Gd35  1  0.78146853  0.42594367  0.31952450  1
  N  N36  1  0.22361226  0.20484539  0.35432629  1
  N  N37  1  0.10163280  0.07165359  0.06112584  1
  N  N38  1  0.87898730  0.20846872  0.86651764  1
  N  N39  1  0.77644150  0.09057075  0.63463453  1
  N  N40  1  0.55776926  0.20731202  0.38599765  1
  N  N41  1  0.47572538  0.07882236  0.14181157  1
  N  N42  1  0.21654711  0.20837655  0.83499378  1
  N  N43  1  0.11938029  0.08876919  0.59087701  1
  N  N44  1  0.89794292  0.17912415  0.39595315  1
  N  N45  1  0.77917669  0.09594863  0.13389756  1
  N  N46  1  0.55375206  0.20638961  0.88585798  1
  N  N47  1  0.45257805  0.09038942  0.63540834  1
  N  N48  1  0.21471131  0.54070934  0.32629799  1
  N  N49  1  0.10164279  0.46004752  0.06112817  1
  N  N50  1  0.87899799  0.54583809  0.86652119  1
  N  N51  1  0.77634740  0.42850096  0.62654515  1
  N  N52  1  0.52339362  0.55496118  0.39256355  1
  N  N53  1  0.45207867  0.42495982  0.13284045  1
  N  N54  1  0.21729577  0.54641732  0.82590328  1
  N  N55  1  0.11939156  0.42519740  0.59088070  1
  N  N56  1  0.89796031  0.55623146  0.39595217  1
  N  N57  1  0.78284860  0.42524738  0.10127033  1
  N  N58  1  0.55134649  0.54098826  0.87859166  1
  N  N59  1  0.45217762  0.42215613  0.63476762  1
  N  N60  1  0.21470304  0.87789526  0.32629671  1
  N  N61  1  0.11611686  0.75861234  0.07922679  1
  N  N62  1  0.88122156  0.87603813  0.88497012  1
  N  N63  1  0.77644392  0.76632797  0.63463423  1
  N  N64  1  0.55777763  0.86822408  0.38599366  1
  N  N65  1  0.45207261  0.75633573  0.13284209  1
  N  N66  1  0.21729390  0.86959205  0.82590069  1
  N  N67  1  0.11800712  0.75767236  0.57501694  1
  N  N68  1  0.88376279  0.87477158  0.38048315  1
  N  N69  1  0.77918022  0.75820844  0.13389938  1
  N  N70  1  0.55375469  0.87317555  0.88585984  1
  N  N71  1  0.45217405  0.75903134  0.63476540  1
