# generated using pymatgen
data_GdAl17N18
_symmetry_space_group_name_H-M   'P 1'
_cell_length_a   9.48073715
_cell_length_b   9.52041133
_cell_length_c   10.46055442
_cell_angle_alpha   89.99963143
_cell_angle_beta   89.76888995
_cell_angle_gamma   59.87129294
_symmetry_Int_Tables_number   1
_chemical_formula_structural   GdAl17N18
_chemical_formula_sum   'Gd2 Al34 N36'
_cell_volume   816.60817376
_cell_formula_units_Z   2
loop_
 _symmetry_equiv_pos_site_id
 _symmetry_equiv_pos_as_xyz
  1  'x, y, z'
loop_
 _atom_site_type_symbol
 _atom_site_label
 _atom_site_symmetry_multiplicity
 _atom_site_fract_x
 _atom_site_fract_y
 _atom_site_fract_z
 _atom_site_occupancy
  Al  Al0  1  0.12145452  0.08319858  0.40612131  1
  Al  Al1  1  0.78295814  0.08813614  0.81519386  1
  Al  Al2  1  0.88495540  0.20157732  0.57808524  1
  Al  Al3  1  0.44776704  0.09278608  0.39683118  1
  Al  Al4  1  0.55563531  0.20698192  0.13801401  1
  Al  Al5  1  0.11422100  0.08849056  0.87931457  1
  Al  Al6  1  0.22443460  0.20445135  0.64349504  1
  Al  Al7  1  0.78701184  0.08543579  0.31940130  1
  Al  Al8  1  0.87763446  0.20424990  0.05119915  1
  Al  Al9  1  0.45241060  0.09046046  0.88704926  1
  Al  Al10  1  0.54945251  0.20756024  0.64046518  1
  Al  Al11  1  0.12144960  0.42867111  0.40612117  1
  Al  Al12  1  0.21948371  0.54405748  0.13771965  1
  Al  Al13  1  0.77267896  0.43032399  0.81307442  1
  Al  Al14  1  0.88495262  0.54680826  0.57808649  1
  Al  Al15  1  0.43727631  0.42331723  0.39017010  1
  Al  Al16  1  0.55736744  0.53798582  0.05831922  1
  Al  Al17  1  0.11421443  0.43061497  0.87931562  1
  Al  Al18  1  0.22238132  0.54195892  0.64190291  1
  Al  Al19  1  0.87762960  0.55146031  0.05120001  1
  Al  Al20  1  0.44011482  0.42353340  0.88460705  1
  Al  Al21  1  0.55371639  0.53981561  0.57216560  1
  Al  Al22  1  0.11960293  0.75685750  0.38743720  1
  Al  Al23  1  0.21948661  0.86979501  0.13771922  1
  Al  Al24  1  0.78295688  0.76223579  0.81519253  1
  Al  Al25  1  0.88376705  0.87478584  0.56497887  1
  Al  Al26  1  0.43727849  0.77274055  0.39017383  1
  Al  Al27  1  0.55563063  0.87072597  0.13801474  1
  Al  Al28  1  0.11763518  0.75784343  0.89209700  1
  Al  Al29  1  0.22238016  0.86899426  0.64190400  1
  Al  Al30  1  0.78700665  0.76088044  0.31940255  1
  Al  Al31  1  0.88228463  0.87552870  0.06973097  1
  Al  Al32  1  0.44011853  0.76967734  0.88460926  1
  Al  Al33  1  0.54945098  0.87633437  0.64046508  1
  Gd  Gd34  1  0.21875007  0.20730163  0.13972134  1
  Gd  Gd35  1  0.78561404  0.42384963  0.31548605  1
  N  N36  1  0.21794557  0.20769998  0.35735771  1
  N  N37  1  0.10383647  0.07580528  0.06205949  1
  N  N38  1  0.88030176  0.20860721  0.86683917  1
  N  N39  1  0.78270510  0.08676173  0.63269306  1
  N  N40  1  0.54880904  0.20711130  0.32606370  1
  N  N41  1  0.47691767  0.07820113  0.06718447  1
  N  N42  1  0.22413312  0.20460756  0.83172592  1
  N  N43  1  0.11824893  0.08957327  0.59173318  1
  N  N44  1  0.89554029  0.17860716  0.39676639  1
  N  N45  1  0.78634151  0.09240010  0.13324604  1
  N  N46  1  0.54913033  0.20861258  0.82454216  1
  N  N47  1  0.44792912  0.09269852  0.58027943  1
  N  N48  1  0.22087753  0.53702428  0.32465492  1
  N  N49  1  0.10382795  0.45368180  0.06205964  1
  N  N50  1  0.88029633  0.54444466  0.86683638  1
  N  N51  1  0.77636750  0.42847443  0.62670989  1
  N  N52  1  0.53380813  0.54977682  0.38110309  1
  N  N53  1  0.44181965  0.42308014  0.07407781  1
  N  N54  1  0.22134028  0.54341809  0.82410170  1
  N  N55  1  0.11824300  0.42549349  0.59173069  1
  N  N56  1  0.89553643  0.55919938  0.39676510  1
  N  N57  1  0.78040137  0.42645848  0.09920594  1
  N  N58  1  0.55258432  0.54038317  0.86864621  1
  N  N59  1  0.44102527  0.42184059  0.57851224  1
  N  N60  1  0.22087728  0.87543924  0.32465711  1
  N  N61  1  0.11737411  0.75797116  0.07833303  1
  N  N62  1  0.88222480  0.87556213  0.88442176  1
  N  N63  1  0.78270424  0.76385028  0.63269145  1
  N  N64  1  0.54880620  0.87744188  0.32606523  1
  N  N65  1  0.44182442  0.76841163  0.07407642  1
  N  N66  1  0.22134006  0.86858508  0.82410288  1
  N  N67  1  0.11945139  0.75693045  0.57397464  1
  N  N68  1  0.88500094  0.87417244  0.37997812  1
  N  N69  1  0.78633694  0.75458154  0.13324531  1
  N  N70  1  0.54912866  0.87561311  0.82454160  1
  N  N71  1  0.44102656  0.77045600  0.57851380  1
