# generated using pymatgen
data_GdAl17N18
_symmetry_space_group_name_H-M   'P 1'
_cell_length_a   9.53218130
_cell_length_b   9.51267055
_cell_length_c   10.32312041
_cell_angle_alpha   89.72438865
_cell_angle_beta   89.41134232
_cell_angle_gamma   60.05251207
_symmetry_Int_Tables_number   1
_chemical_formula_structural   GdAl17N18
_chemical_formula_sum   'Gd2 Al34 N36'
_cell_volume   811.04133014
_cell_formula_units_Z   2
loop_
 _symmetry_equiv_pos_site_id
 _symmetry_equiv_pos_as_xyz
  1  'x, y, z'
loop_
 _atom_site_type_symbol
 _atom_site_label
 _atom_site_symmetry_multiplicity
 _atom_site_fract_x
 _atom_site_fract_y
 _atom_site_fract_z
 _atom_site_occupancy
  Al  Al0  1  0.11579506  0.08722840  0.40881957  1
  Al  Al1  1  0.77890054  0.08716245  0.83160437  1
  Al  Al2  1  0.89508570  0.20717053  0.65768223  1
  Al  Al3  1  0.45007717  0.09219173  0.40771526  1
  Al  Al4  1  0.55142584  0.20788022  0.14458175  1
  Al  Al5  1  0.11115627  0.08875360  0.89340372  1
  Al  Al6  1  0.22645422  0.20287670  0.65090254  1
  Al  Al7  1  0.78413836  0.08221774  0.32266923  1
  Al  Al8  1  0.89154788  0.19789736  0.13723483  1
  Al  Al9  1  0.44891157  0.09093780  0.89557050  1
  Al  Al10  1  0.55219165  0.20980068  0.64815034  1
  Al  Al11  1  0.12248320  0.42827301  0.41567531  1
  Al  Al12  1  0.21714454  0.54555912  0.14881075  1
  Al  Al13  1  0.77110701  0.42477918  0.89360530  1
  Al  Al14  1  0.89093784  0.54687115  0.59693919  1
  Al  Al15  1  0.43675033  0.43105833  0.39588632  1
  Al  Al16  1  0.54403729  0.54366056  0.14227141  1
  Al  Al17  1  0.11423895  0.43018340  0.88972249  1
  Al  Al18  1  0.22594746  0.54213355  0.65103003  1
  Al  Al19  1  0.87940655  0.55157287  0.07077273  1
  Al  Al20  1  0.44138673  0.42724638  0.89933479  1
  Al  Al21  1  0.55457585  0.54026277  0.65496253  1
  Al  Al22  1  0.11770596  0.75816370  0.39731607  1
  Al  Al23  1  0.21873262  0.86924781  0.14879177  1
  Al  Al24  1  0.78078384  0.76108200  0.82812782  1
  Al  Al25  1  0.88369545  0.87783866  0.57718052  1
  Al  Al26  1  0.43826297  0.76648314  0.39659170  1
  Al  Al27  1  0.55385738  0.87144589  0.14781536  1
  Al  Al28  1  0.11824344  0.75772047  0.90004748  1
  Al  Al29  1  0.22370662  0.86817846  0.64881537  1
  Al  Al30  1  0.78694358  0.76066344  0.32950913  1
  Al  Al31  1  0.88192389  0.87404446  0.07669182  1
  Al  Al32  1  0.44210601  0.76331949  0.89850356  1
  Al  Al33  1  0.55138268  0.87318086  0.64936683  1
  Gd  Gd34  1  0.21667930  0.20787636  0.15293704  1
  Gd  Gd35  1  0.77144220  0.42500673  0.39031053  1
  N  N36  1  0.22401576  0.20612529  0.37172764  1
  N  N37  1  0.10085789  0.07633037  0.07345000  1
  N  N38  1  0.89062238  0.20505091  0.84384807  1
  N  N39  1  0.78241031  0.09089353  0.63971807  1
  N  N40  1  0.55017273  0.20981453  0.33790426  1
  N  N41  1  0.47006875  0.08010492  0.07812667  1
  N  N42  1  0.22314831  0.20361024  0.84176720  1
  N  N43  1  0.11282796  0.09169995  0.59570012  1
  N  N44  1  0.91676657  0.17493694  0.32462379  1
  N  N45  1  0.77589448  0.08799553  0.13353799  1
  N  N46  1  0.54817797  0.21068517  0.83673053  1
  N  N47  1  0.45037195  0.09189079  0.59299141  1
  N  N48  1  0.21972070  0.53834502  0.33693775  1
  N  N49  1  0.10326992  0.45393387  0.07535496  1
  N  N50  1  0.88149576  0.54376031  0.88069658  1
  N  N51  1  0.77928164  0.42843300  0.61352393  1
  N  N52  1  0.51824653  0.55857452  0.32442280  1
  N  N53  1  0.43937749  0.42731182  0.08545444  1
  N  N54  1  0.22404531  0.54189367  0.83549146  1
  N  N55  1  0.12156649  0.42551129  0.60389357  1
  N  N56  1  0.90073043  0.55847599  0.40331774  1
  N  N57  1  0.77213890  0.42555312  0.09167043  1
  N  N58  1  0.54974441  0.54054033  0.84191381  1
  N  N59  1  0.44761070  0.42904262  0.58555556  1
  N  N60  1  0.22193222  0.87460796  0.33778972  1
  N  N61  1  0.11502012  0.75942557  0.08901208  1
  N  N62  1  0.88475366  0.87193645  0.89107458  1
  N  N63  1  0.78275379  0.76494092  0.64353356  1
  N  N64  1  0.55005689  0.87609648  0.33840127  1
  N  N65  1  0.44163591  0.76498918  0.08504881  1
  N  N66  1  0.22368691  0.86842190  0.83411863  1
  N  N67  1  0.11802008  0.75793466  0.58565162  1
  N  N68  1  0.88487490  0.87588293  0.39053051  1
  N  N69  1  0.78287414  0.75761978  0.14208028  1
  N  N70  1  0.54860026  0.87339827  0.83650733  1
  N  N71  1  0.44698509  0.75931050  0.58622292  1
