# generated using pymatgen
data_GdAl17N18
_symmetry_space_group_name_H-M   'P 1'
_cell_length_a   9.53223240
_cell_length_b   9.53291701
_cell_length_c   10.29722100
_cell_angle_alpha   90.17541199
_cell_angle_beta   89.50662972
_cell_angle_gamma   60.05168130
_symmetry_Int_Tables_number   1
_chemical_formula_structural   GdAl17N18
_chemical_formula_sum   'Gd2 Al34 N36'
_cell_volume   810.70950112
_cell_formula_units_Z   2
loop_
 _symmetry_equiv_pos_site_id
 _symmetry_equiv_pos_as_xyz
  1  'x, y, z'
loop_
 _atom_site_type_symbol
 _atom_site_label
 _atom_site_symmetry_multiplicity
 _atom_site_fract_x
 _atom_site_fract_y
 _atom_site_fract_z
 _atom_site_occupancy
  Al  Al0  1  0.12349291  0.07951367  0.39071098  1
  Al  Al1  1  0.77502597  0.09161157  0.80694345  1
  Al  Al2  1  0.88534682  0.20122493  0.56864739  1
  Al  Al3  1  0.45986086  0.08578606  0.31657048  1
  Al  Al4  1  0.56030387  0.20426083  0.06076101  1
  Al  Al5  1  0.11168940  0.08970190  0.86607791  1
  Al  Al6  1  0.22714055  0.20340768  0.60271301  1
  Al  Al7  1  0.78314039  0.08690026  0.30919077  1
  Al  Al8  1  0.87535877  0.20575714  0.04117033  1
  Al  Al9  1  0.44608158  0.09422594  0.81051585  1
  Al  Al10  1  0.55746359  0.20550356  0.55999644  1
  Al  Al11  1  0.12298345  0.42864759  0.38948665  1
  Al  Al12  1  0.21296317  0.54940638  0.12754270  1
  Al  Al13  1  0.77365834  0.43043273  0.80364880  1
  Al  Al14  1  0.88512299  0.54567946  0.56735412  1
  Al  Al15  1  0.44570429  0.42487095  0.30943944  1
  Al  Al16  1  0.55018821  0.54190224  0.05073536  1
  Al  Al17  1  0.11145042  0.43540228  0.86831812  1
  Al  Al18  1  0.21889058  0.54410245  0.63111636  1
  Al  Al19  1  0.87415568  0.55358172  0.04141575  1
  Al  Al20  1  0.44917854  0.42435437  0.80954345  1
  Al  Al21  1  0.54864815  0.54164067  0.56140516  1
  Al  Al22  1  0.11811029  0.75639090  0.37811749  1
  Al  Al23  1  0.21298160  0.87290035  0.12907016  1
  Al  Al24  1  0.77506631  0.76727724  0.80674505  1
  Al  Al25  1  0.88256077  0.87487955  0.55659707  1
  Al  Al26  1  0.44661090  0.76026789  0.31021032  1
  Al  Al27  1  0.55978377  0.86935524  0.06076150  1
  Al  Al28  1  0.11590066  0.76026372  0.88163166  1
  Al  Al29  1  0.21935055  0.86949556  0.63062325  1
  Al  Al30  1  0.78293173  0.76104043  0.30864060  1
  Al  Al31  1  0.88204277  0.87603641  0.06104891  1
  Al  Al32  1  0.44916350  0.76075968  0.80930943  1
  Al  Al33  1  0.55756084  0.86952685  0.55997550  1
  Gd  Gd34  1  0.21242708  0.21198801  0.11139936  1
  Gd  Gd35  1  0.78353979  0.42232691  0.30788883  1
  N  N36  1  0.22739142  0.20184473  0.34981830  1
  N  N37  1  0.09733447  0.07443120  0.05424195  1
  N  N38  1  0.87913452  0.20904877  0.85316261  1
  N  N39  1  0.77596699  0.09033590  0.62215791  1
  N  N40  1  0.55924723  0.20627166  0.37280824  1
  N  N41  1  0.47916168  0.07735182  0.13046686  1
  N  N42  1  0.21969118  0.20860290  0.83867469  1
  N  N43  1  0.11870346  0.08761661  0.57952313  1
  N  N44  1  0.89925295  0.17581974  0.38353222  1
  N  N45  1  0.77805220  0.09697313  0.12096604  1
  N  N46  1  0.55368523  0.20631842  0.87223404  1
  N  N47  1  0.45316209  0.08982510  0.62023737  1
  N  N48  1  0.21700437  0.54025515  0.31536455  1
  N  N49  1  0.09625268  0.46447185  0.05333784  1
  N  N50  1  0.87873185  0.54667882  0.85339484  1
  N  N51  1  0.77605284  0.42825013  0.61309791  1
  N  N52  1  0.52639680  0.55234567  0.37861687  1
  N  N53  1  0.44982618  0.42532860  0.11869094  1
  N  N54  1  0.21753879  0.54697644  0.81578093  1
  N  N55  1  0.11860520  0.42699199  0.57742033  1
  N  N56  1  0.89826394  0.55543610  0.38160063  1
  N  N57  1  0.77834156  0.42777248  0.08799837  1
  N  N58  1  0.55029067  0.54222711  0.86507041  1
  N  N59  1  0.45139182  0.42204999  0.62167036  1
  N  N60  1  0.21798672  0.87323590  0.31726466  1
  N  N61  1  0.11458668  0.76044140  0.06897450  1
  N  N62  1  0.88187352  0.87637911  0.87207056  1
  N  N63  1  0.77624425  0.76586313  0.62171886  1
  N  N64  1  0.55948193  0.86645425  0.37289805  1
  N  N65  1  0.44992418  0.75851007  0.11947621  1
  N  N66  1  0.21759487  0.87111856  0.81538600  1
  N  N67  1  0.11662906  0.75768850  0.56531852  1
  N  N68  1  0.88504407  0.87301181  0.36750047  1
  N  N69  1  0.77756247  0.75973454  0.12061997  1
  N  N70  1  0.55339797  0.87479344  0.87207833  1
  N  N71  1  0.45172335  0.75884960  0.62132208  1
