# generated using pymatgen
data_GdAl17N18
_symmetry_space_group_name_H-M   'P 1'
_cell_length_a   9.50898016
_cell_length_b   9.51312195
_cell_length_c   10.12981182
_cell_angle_alpha   90.00000110
_cell_angle_beta   89.92923015
_cell_angle_gamma   59.98559482
_symmetry_Int_Tables_number   1
_chemical_formula_structural   GdAl17N18
_chemical_formula_sum   'Gd2 Al34 N36'
_cell_volume   793.46087055
_cell_formula_units_Z   2
loop_
 _symmetry_equiv_pos_site_id
 _symmetry_equiv_pos_as_xyz
  1  'x, y, z'
loop_
 _atom_site_type_symbol
 _atom_site_label
 _atom_site_symmetry_multiplicity
 _atom_site_fract_x
 _atom_site_fract_y
 _atom_site_fract_z
 _atom_site_occupancy
  Al  Al0  1  0.11073420  0.08425928  0.31308056  1
  Al  Al1  1  0.77684347  0.09219715  0.80720179  1
  Al  Al2  1  0.89018902  0.19886314  0.56312670  1
  Al  Al3  1  0.45241834  0.09044244  0.31337621  1
  Al  Al4  1  0.56165572  0.20337374  0.05858586  1
  Al  Al5  1  0.11251672  0.09144184  0.79912051  1
  Al  Al6  1  0.22228646  0.20550839  0.55640486  1
  Al  Al7  1  0.77952020  0.08892515  0.30754574  1
  Al  Al8  1  0.88666669  0.20014954  0.04838687  1
  Al  Al9  1  0.44692954  0.09318685  0.79929573  1
  Al  Al10  1  0.55675826  0.20648134  0.55725989  1
  Al  Al11  1  0.11073421  0.43830973  0.31308056  1
  Al  Al12  1  0.21951748  0.54537960  0.05822919  1
  Al  Al13  1  0.77779134  0.42775594  0.80747404  1
  Al  Al14  1  0.89018902  0.54425109  0.56312671  1
  Al  Al15  1  0.43912862  0.43009403  0.30835419  1
  Al  Al16  1  0.55267814  0.54031255  0.04863588  1
  Al  Al17  1  0.11251673  0.42934464  0.79912052  1
  Al  Al18  1  0.22326202  0.54018716  0.55692086  1
  Al  Al19  1  0.88666669  0.54648701  0.04838687  1
  Al  Al20  1  0.44274363  0.42688643  0.80747736  1
  Al  Al21  1  0.54880811  0.54224756  0.56286841  1
  Al  Al22  1  0.11103677  0.76113322  0.30823444  1
  Al  Al23  1  0.21951748  0.86840615  0.05822919  1
  Al  Al24  1  0.77684347  0.76426262  0.80720179  1
  Al  Al25  1  0.88833492  0.87248416  0.55691420  1
  Al  Al26  1  0.43912861  0.76408055  0.30835418  1
  Al  Al27  1  0.56165574  0.86827376  0.05858586  1
  Al  Al28  1  0.11037770  0.76146276  0.80782133  1
  Al  Al29  1  0.22326203  0.86985404  0.55692086  1
  Al  Al30  1  0.77952021  0.76485788  0.30754574  1
  Al  Al31  1  0.88923814  0.87203256  0.05904853  1
  Al  Al32  1  0.44274363  0.76367317  0.80747736  1
  Al  Al33  1  0.55675826  0.87006363  0.55725989  1
  Gd  Gd34  1  0.22307141  0.20511591  0.06296635  1
  Gd  Gd35  1  0.77954704  0.42687809  0.30876905  1
  N  N36  1  0.22084285  0.20623019  0.35923388  1
  N  N37  1  0.09362794  0.07968814  0.12601353  1
  N  N38  1  0.89119200  0.20170318  0.85883106  1
  N  N39  1  0.77582176  0.09223345  0.61958372  1
  N  N40  1  0.55739078  0.20808273  0.36809445  1
  N  N41  1  0.47732562  0.07798880  0.12806002  1
  N  N42  1  0.22268779  0.20530771  0.84155338  1
  N  N43  1  0.11343317  0.09124553  0.61221329  1
  N  N44  1  0.90053558  0.17582828  0.37932909  1
  N  N45  1  0.77856341  0.09482607  0.11626819  1
  N  N46  1  0.55451797  0.20494876  0.86721048  1
  N  N47  1  0.44692832  0.09318745  0.60969710  1
  N  N48  1  0.22359574  0.54130043  0.36879691  1
  N  N49  1  0.09362794  0.45998714  0.12601353  1
  N  N50  1  0.89119201  0.54040806  0.85883106  1
  N  N51  1  0.77755065  0.42787628  0.61204962  1
  N  N52  1  0.52643537  0.55343393  0.37649514  1
  N  N53  1  0.44436958  0.42791916  0.11564207  1
  N  N54  1  0.22132963  0.53898619  0.86725002  1
  N  N55  1  0.11343316  0.42862452  0.61221330  1
  N  N56  1  0.90053559  0.55693937  0.37932909  1
  N  N57  1  0.77905091  0.42712616  0.08599155  1
  N  N58  1  0.55203897  0.54063214  0.86024312  1
  N  N59  1  0.44304753  0.42632437  0.61926480  1
  N  N60  1  0.22359574  0.86840704  0.36879691  1
  N  N61  1  0.11053630  0.76138346  0.11776579  1
  N  N62  1  0.88914045  0.87208140  0.86868056  1
  N  N63  1  0.77582176  0.76524803  0.61958372  1
  N  N64  1  0.55739079  0.86782971  0.36809445  1
  N  N65  1  0.44436958  0.76101447  0.11564207  1
  N  N66  1  0.22132963  0.87298742  0.86725002  1
  N  N67  1  0.11037428  0.76146447  0.61751086  1
  N  N68  1  0.88890399  0.87219963  0.36635718  1
  N  N69  1  0.77856343  0.75991375  0.11626819  1
  N  N70  1  0.55451797  0.87383652  0.86721048  1
  N  N71  1  0.44304753  0.76393132  0.61926480  1
