# generated using pymatgen
data_GdAl17N18
_symmetry_space_group_name_H-M   'P 1'
_cell_length_a   9.50897953
_cell_length_b   9.51312239
_cell_length_c   10.12981156
_cell_angle_alpha   90.00000027
_cell_angle_beta   89.92923385
_cell_angle_gamma   59.98558846
_symmetry_Int_Tables_number   1
_chemical_formula_structural   GdAl17N18
_chemical_formula_sum   'Gd2 Al34 N36'
_cell_volume   793.46078323
_cell_formula_units_Z   2
loop_
 _symmetry_equiv_pos_site_id
 _symmetry_equiv_pos_as_xyz
  1  'x, y, z'
loop_
 _atom_site_type_symbol
 _atom_site_label
 _atom_site_symmetry_multiplicity
 _atom_site_fract_x
 _atom_site_fract_y
 _atom_site_fract_z
 _atom_site_occupancy
  Al  Al0  1  0.11074942  0.08426121  0.30569966  1
  Al  Al1  1  0.77685867  0.09219912  0.79981970  1
  Al  Al2  1  0.89020412  0.19886508  0.55574535  1
  Al  Al3  1  0.45243335  0.09044443  0.30599469  1
  Al  Al4  1  0.56167077  0.20337560  0.05120365  1
  Al  Al5  1  0.11253189  0.09144369  0.79173862  1
  Al  Al6  1  0.22230171  0.20551025  0.54902395  1
  Al  Al7  1  0.77953540  0.08892696  0.30016381  1
  Al  Al8  1  0.88668192  0.20015132  0.04100574  1
  Al  Al9  1  0.44694483  0.09318869  0.79191379  1
  Al  Al10  1  0.55677347  0.20648326  0.54987771  1
  Al  Al11  1  0.11074943  0.43831156  0.30569966  1
  Al  Al12  1  0.21953259  0.54538142  0.05084698  1
  Al  Al13  1  0.77780668  0.42775776  0.80009301  1
  Al  Al14  1  0.89020412  0.54425301  0.55574535  1
  Al  Al15  1  0.43914388  0.43009598  0.30097195  1
  Al  Al16  1  0.55269327  0.54031447  0.04125411  1
  Al  Al17  1  0.11253190  0.42934661  0.79173862  1
  Al  Al18  1  0.22327728  0.54018916  0.54953869  1
  Al  Al19  1  0.88668192  0.54648898  0.04100574  1
  Al  Al20  1  0.44275885  0.42688828  0.80009516  1
  Al  Al21  1  0.54882342  0.54224939  0.55548705  1
  Al  Al22  1  0.11105188  0.76113515  0.30085189  1
  Al  Al23  1  0.21953259  0.86840820  0.05084698  1
  Al  Al24  1  0.77685868  0.76426443  0.79981969  1
  Al  Al25  1  0.88835017  0.87248603  0.54953227  1
  Al  Al26  1  0.43914387  0.76408233  0.30097195  1
  Al  Al27  1  0.56167079  0.86827583  0.05120365  1
  Al  Al28  1  0.11039297  0.76146461  0.80043903  1
  Al  Al29  1  0.22327729  0.86985575  0.54953869  1
  Al  Al30  1  0.77953541  0.76485986  0.30016381  1
  Al  Al31  1  0.88925324  0.87203450  0.05166598  1
  Al  Al32  1  0.44275885  0.76367507  0.80009516  1
  Al  Al33  1  0.55677347  0.87006549  0.54987771  1
  Gd  Gd34  1  0.22308619  0.20511801  0.05558467  1
  Gd  Gd35  1  0.77956234  0.42687994  0.30138764  1
  N  N36  1  0.22085799  0.20623211  0.35185289  1
  N  N37  1  0.09364322  0.07968991  0.11863238  1
  N  N38  1  0.89120730  0.20170492  0.85144976  1
  N  N39  1  0.77583691  0.09223535  0.61220181  1
  N  N40  1  0.55740594  0.20808468  0.36071245  1
  N  N41  1  0.47734047  0.07799087  0.12067828  1
  N  N42  1  0.22270301  0.20530959  0.83417147  1
  N  N43  1  0.11344838  0.09124723  0.60483152  1
  N  N44  1  0.90055060  0.17583014  0.37194772  1
  N  N45  1  0.77857846  0.09482781  0.10888634  1
  N  N46  1  0.55453319  0.20495064  0.85982846  1
  N  N47  1  0.44694372  0.09318924  0.60231528  1
  N  N48  1  0.22361103  0.54130248  0.36141492  1
  N  N49  1  0.09364321  0.45998909  0.11863237  1
  N  N50  1  0.89120731  0.54040999  0.85144976  1
  N  N51  1  0.77756595  0.42787813  0.60466845  1
  N  N52  1  0.52645064  0.55343578  0.36911352  1
  N  N53  1  0.44438472  0.42792106  0.10826002  1
  N  N54  1  0.22134484  0.53898807  0.85986795  1
  N  N55  1  0.11344837  0.42862659  0.60483152  1
  N  N56  1  0.90055061  0.55694148  0.37194772  1
  N  N57  1  0.77906605  0.42712808  0.07861012  1
  N  N58  1  0.55205410  0.54063406  0.85286130  1
  N  N59  1  0.44306274  0.42632622  0.61188278  1
  N  N60  1  0.22361103  0.86840868  0.36141492  1
  N  N61  1  0.11055139  0.76138541  0.11038338  1
  N  N62  1  0.88915565  0.87208329  0.86129819  1
  N  N63  1  0.77583690  0.76524996  0.61220181  1
  N  N64  1  0.55740594  0.86783159  0.36071244  1
  N  N65  1  0.44438473  0.76101641  0.10826001  1
  N  N66  1  0.22134484  0.87298931  0.85986795  1
  N  N67  1  0.11038953  0.76146633  0.61012881  1
  N  N68  1  0.88891926  0.87220148  0.35897535  1
  N  N69  1  0.77857847  0.75991594  0.10888635  1
  N  N70  1  0.55453319  0.87383839  0.85982846  1
  N  N71  1  0.44306274  0.76393324  0.61188278  1
