# generated using pymatgen
data_GdAl17N18
_symmetry_space_group_name_H-M   'P 1'
_cell_length_a   9.48072310
_cell_length_b   9.52048464
_cell_length_c   10.47766848
_cell_angle_alpha   90.03974456
_cell_angle_beta   90.00648482
_cell_angle_gamma   59.83954092
_symmetry_Int_Tables_number   1
_chemical_formula_structural   GdAl17N18
_chemical_formula_sum   'Gd2 Al34 N36'
_cell_volume   817.69473710
_cell_formula_units_Z   2
loop_
 _symmetry_equiv_pos_site_id
 _symmetry_equiv_pos_as_xyz
  1  'x, y, z'
loop_
 _atom_site_type_symbol
 _atom_site_label
 _atom_site_symmetry_multiplicity
 _atom_site_fract_x
 _atom_site_fract_y
 _atom_site_fract_z
 _atom_site_occupancy
  Al  Al0  1  0.12079162  0.08290530  0.40676623  1
  Al  Al1  1  0.77924861  0.09029654  0.81623625  1
  Al  Al2  1  0.88530530  0.20308831  0.57861363  1
  Al  Al3  1  0.44050024  0.09644141  0.40304587  1
  Al  Al4  1  0.56311113  0.21133942  0.06604594  1
  Al  Al5  1  0.11568199  0.08631283  0.88121723  1
  Al  Al6  1  0.22679300  0.20288228  0.64642169  1
  Al  Al7  1  0.77853049  0.09019430  0.32062528  1
  Al  Al8  1  0.87884145  0.20506935  0.05224951  1
  Al  Al9  1  0.44754483  0.09226926  0.88714427  1
  Al  Al10  1  0.56016774  0.20846755  0.57658616  1
  Al  Al11  1  0.12030431  0.42935907  0.40693242  1
  Al  Al12  1  0.21566679  0.54683154  0.13966122  1
  Al  Al13  1  0.77691341  0.42835061  0.81536874  1
  Al  Al14  1  0.88538760  0.54434103  0.57868101  1
  Al  Al15  1  0.44225916  0.42784432  0.32912682  1
  Al  Al16  1  0.55138905  0.54134769  0.06001067  1
  Al  Al17  1  0.11636526  0.43087403  0.88162415  1
  Al  Al18  1  0.21599360  0.54530832  0.64308149  1
  Al  Al19  1  0.87972723  0.54965910  0.05256032  1
  Al  Al20  1  0.45040617  0.42590742  0.81764446  1
  Al  Al21  1  0.54798606  0.54363878  0.57351953  1
  Al  Al22  1  0.11629359  0.75907302  0.38863743  1
  Al  Al23  1  0.21245684  0.87290160  0.13918526  1
  Al  Al24  1  0.77857185  0.76332687  0.81630555  1
  Al  Al25  1  0.88211869  0.87508957  0.56591886  1
  Al  Al26  1  0.44331423  0.76393097  0.32064419  1
  Al  Al27  1  0.56366197  0.85949389  0.06720148  1
  Al  Al28  1  0.11663257  0.75802015  0.89409903  1
  Al  Al29  1  0.21579362  0.87178587  0.64342474  1
  Al  Al30  1  0.77907351  0.76416486  0.32047624  1
  Al  Al31  1  0.88042349  0.87645807  0.07110220  1
  Al  Al32  1  0.45046988  0.75741946  0.81727133  1
  Al  Al33  1  0.55969961  0.86317035  0.57379598  1
  Gd  Gd34  1  0.21809141  0.20785035  0.14303604  1
  Gd  Gd35  1  0.77841333  0.42694934  0.31688340  1
  N  N36  1  0.21835180  0.20738692  0.35888649  1
  N  N37  1  0.10499132  0.07497142  0.06229439  1
  N  N38  1  0.88253707  0.20728225  0.86701668  1
  N  N39  1  0.77996499  0.08890105  0.63448765  1
  N  N40  1  0.55746849  0.20985708  0.38692210  1
  N  N41  1  0.46808856  0.08298389  0.07330710  1
  N  N42  1  0.22446181  0.20412922  0.83220861  1
  N  N43  1  0.11914086  0.08927963  0.59106363  1
  N  N44  1  0.89425512  0.18100810  0.39614250  1
  N  N45  1  0.77898509  0.09684723  0.13355406  1
  N  N46  1  0.56001836  0.21060422  0.87718510  1
  N  N47  1  0.44641963  0.09261796  0.59010697  1
  N  N48  1  0.21281484  0.54134905  0.32656767  1
  N  N49  1  0.10584630  0.45382997  0.06286441  1
  N  N50  1  0.88333060  0.54300239  0.86719139  1
  N  N51  1  0.77625342  0.42846352  0.62773045  1
  N  N52  1  0.52255404  0.55743136  0.39383679  1
  N  N53  1  0.45083647  0.42699727  0.13049654  1
  N  N54  1  0.21728790  0.54629183  0.82556582  1
  N  N55  1  0.11917323  0.42432623  0.59111327  1
  N  N56  1  0.89396949  0.55755781  0.39597422  1
  N  N57  1  0.78158186  0.42642348  0.09966103  1
  N  N58  1  0.55267543  0.54073215  0.87648644  1
  N  N59  1  0.44977520  0.42524532  0.63274589  1
  N  N60  1  0.21249177  0.87952424  0.32495785  1
  N  N61  1  0.11514790  0.75882621  0.07898188  1
  N  N62  1  0.88103820  0.87573479  0.88472312  1
  N  N63  1  0.77882752  0.76418984  0.63411192  1
  N  N64  1  0.55696160  0.86633532  0.38439035  1
  N  N65  1  0.45099322  0.75646435  0.13250771  1
  N  N66  1  0.21704980  0.86947013  0.82596548  1
  N  N67  1  0.11717889  0.75798927  0.57374289  1
  N  N68  1  0.88134624  0.87592696  0.37992893  1
  N  N69  1  0.77949032  0.75766646  0.13384114  1
  N  N70  1  0.56029971  0.86127200  0.87935801  1
  N  N71  1  0.44968378  0.75903064  0.63412738  1
