# generated using pymatgen
data_GdAl17N18
_symmetry_space_group_name_H-M   'P 1'
_cell_length_a   9.48562082
_cell_length_b   9.50871165
_cell_length_c   10.40761115
_cell_angle_alpha   90.00000219
_cell_angle_beta   89.52598549
_cell_angle_gamma   59.91944493
_symmetry_Int_Tables_number   1
_chemical_formula_structural   GdAl17N18
_chemical_formula_sum   'Gd2 Al34 N36'
_cell_volume   812.26207600
_cell_formula_units_Z   2
loop_
 _symmetry_equiv_pos_site_id
 _symmetry_equiv_pos_as_xyz
  1  'x, y, z'
loop_
 _atom_site_type_symbol
 _atom_site_label
 _atom_site_symmetry_multiplicity
 _atom_site_fract_x
 _atom_site_fract_y
 _atom_site_fract_z
 _atom_site_occupancy
  Al  Al0  1  0.12373161  0.08071172  0.41423878  1
  Al  Al1  1  0.78119810  0.08920666  0.82412725  1
  Al  Al2  1  0.88791901  0.19859760  0.58698797  1
  Al  Al3  1  0.44734580  0.09301991  0.40403977  1
  Al  Al4  1  0.55488392  0.20739358  0.14479059  1
  Al  Al5  1  0.11487208  0.08715405  0.88791869  1
  Al  Al6  1  0.22553203  0.20392679  0.65197003  1
  Al  Al7  1  0.78573722  0.08569319  0.32688493  1
  Al  Al8  1  0.87457923  0.20811584  0.06174833  1
  Al  Al9  1  0.45149231  0.09094666  0.89336330  1
  Al  Al10  1  0.55002076  0.20937214  0.64624541  1
  Al  Al11  1  0.12373162  0.42894224  0.41423878  1
  Al  Al12  1  0.21671217  0.54501449  0.14538624  1
  Al  Al13  1  0.78017141  0.42660708  0.82171334  1
  Al  Al14  1  0.88791897  0.54686897  0.58698797  1
  Al  Al15  1  0.44006561  0.42888976  0.39357319  1
  Al  Al16  1  0.54178956  0.54579804  0.13910211  1
  Al  Al17  1  0.11487206  0.43135948  0.88791868  1
  Al  Al18  1  0.22428736  0.54211722  0.64878091  1
  Al  Al19  1  0.87457924  0.55069049  0.06174834  1
  Al  Al20  1  0.44440141  0.42790557  0.89460078  1
  Al  Al21  1  0.54883653  0.54227453  0.64337703  1
  Al  Al22  1  0.11739279  0.75799640  0.39433731  1
  Al  Al23  1  0.21671216  0.87165896  0.14538624  1
  Al  Al24  1  0.78119806  0.76298083  0.82412726  1
  Al  Al25  1  0.88344629  0.87496962  0.57333376  1
  Al  Al26  1  0.44006561  0.76443024  0.39357319  1
  Al  Al27  1  0.55488391  0.87110813  0.14479059  1
  Al  Al28  1  0.11724594  0.75806982  0.89906754  1
  Al  Al29  1  0.22428737  0.86698098  0.64878090  1
  Al  Al30  1  0.78573721  0.76195515  0.32688492  1
  Al  Al31  1  0.88145230  0.87596664  0.07730773  1
  Al  Al32  1  0.44440139  0.76107863  0.89460077  1
  Al  Al33  1  0.55002073  0.87399271  0.64624541  1
  Gd  Gd34  1  0.21805041  0.20766761  0.14737463  1
  Gd  Gd35  1  0.79307252  0.42015651  0.33486126  1
  N  N36  1  0.21728681  0.20804939  0.36563967  1
  N  N37  1  0.10162350  0.07732621  0.07099531  1
  N  N38  1  0.88017598  0.20860355  0.87636693  1
  N  N39  1  0.78276295  0.08694306  0.64124295  1
  N  N40  1  0.54772794  0.20860042  0.33393516  1
  N  N41  1  0.47615330  0.07861616  0.07421397  1
  N  N42  1  0.22331381  0.20503590  0.84032947  1
  N  N43  1  0.12135616  0.08725491  0.60032089  1
  N  N44  1  0.89865578  0.17274151  0.40579454  1
  N  N45  1  0.78489576  0.09273043  0.14044094  1
  N  N46  1  0.54746766  0.21151684  0.83213167  1
  N  N47  1  0.44891931  0.09223315  0.58827636  1
  N  N48  1  0.22055721  0.53761744  0.33278152  1
  N  N49  1  0.10162350  0.45443591  0.07099530  1
  N  N50  1  0.88017596  0.54460607  0.87636693  1
  N  N51  1  0.78380170  0.42479192  0.63130993  1
  N  N52  1  0.52342415  0.55498073  0.32529477  1
  N  N53  1  0.44206039  0.42637346  0.08107559  1
  N  N54  1  0.22353688  0.54282571  0.83226865  1
  N  N55  1  0.12135614  0.42477452  0.60032090  1
  N  N56  1  0.89865577  0.56198828  0.40579453  1
  N  N57  1  0.77631135  0.42853711  0.11447545  1
  N  N58  1  0.54747297  0.54295632  0.83104049  1
  N  N59  1  0.44642347  0.42694542  0.58078438  1
  N  N60  1  0.22055722  0.87521093  0.33278153  1
  N  N61  1  0.11578470  0.75880045  0.08624506  1
  N  N62  1  0.88171243  0.87583658  0.89174511  1
  N  N63  1  0.78276291  0.76367956  0.64124296  1
  N  N64  1  0.54772794  0.87705727  0.33393516  1
  N  N65  1  0.44206039  0.76495177  0.08107558  1
  N  N66  1  0.22353686  0.86702301  0.83226865  1
  N  N67  1  0.11874506  0.75732024  0.58183574  1
  N  N68  1  0.88349919  0.87494319  0.38771945  1
  N  N69  1  0.78489575  0.75575940  0.14044093  1
  N  N70  1  0.54746761  0.87440115  0.83213167  1
  N  N71  1  0.44642348  0.76001669  0.58078438  1
