# generated using pymatgen
data_GdAl17N18
_symmetry_space_group_name_H-M   'P 1'
_cell_length_a   9.48755937
_cell_length_b   9.50906312
_cell_length_c   10.40331207
_cell_angle_alpha   89.98997004
_cell_angle_beta   89.51369624
_cell_angle_gamma   59.92972083
_symmetry_Int_Tables_number   1
_chemical_formula_structural   GdAl17N18
_chemical_formula_sum   'Gd2 Al34 N36'
_cell_volume   812.20570514
_cell_formula_units_Z   2
loop_
 _symmetry_equiv_pos_site_id
 _symmetry_equiv_pos_as_xyz
  1  'x, y, z'
loop_
 _atom_site_type_symbol
 _atom_site_label
 _atom_site_symmetry_multiplicity
 _atom_site_fract_x
 _atom_site_fract_y
 _atom_site_fract_z
 _atom_site_occupancy
  Al  Al0  1  0.12379141  0.08075563  0.41802918  1
  Al  Al1  1  0.78118511  0.08920285  0.82793726  1
  Al  Al2  1  0.88793298  0.19864336  0.59078544  1
  Al  Al3  1  0.44746002  0.09299251  0.40786473  1
  Al  Al4  1  0.55483546  0.20736927  0.14864741  1
  Al  Al5  1  0.11481194  0.08712961  0.89170948  1
  Al  Al6  1  0.22555161  0.20393053  0.65581215  1
  Al  Al7  1  0.78582072  0.08570688  0.33066786  1
  Al  Al8  1  0.87451085  0.20810292  0.06558639  1
  Al  Al9  1  0.45150484  0.09091031  0.89721171  1
  Al  Al10  1  0.55002451  0.20939909  0.65005563  1
  Al  Al11  1  0.12381649  0.42886708  0.41802486  1
  Al  Al12  1  0.21666254  0.54497245  0.14924068  1
  Al  Al13  1  0.78010885  0.42663597  0.82558644  1
  Al  Al14  1  0.88796310  0.54688527  0.59078902  1
  Al  Al15  1  0.44005452  0.42890930  0.39742790  1
  Al  Al16  1  0.54170108  0.54579976  0.14293331  1
  Al  Al17  1  0.11483715  0.43134700  0.89174696  1
  Al  Al18  1  0.22427419  0.54213300  0.65261037  1
  Al  Al19  1  0.87453314  0.55066221  0.06560936  1
  Al  Al20  1  0.44437584  0.42787250  0.89844745  1
  Al  Al21  1  0.54880682  0.54231857  0.64721792  1
  Al  Al22  1  0.11744161  0.75798833  0.39814497  1
  Al  Al23  1  0.21665727  0.87162826  0.14921213  1
  Al  Al24  1  0.78119848  0.76296531  0.82794045  1
  Al  Al25  1  0.88346108  0.87500745  0.57713706  1
  Al  Al26  1  0.44003467  0.76448439  0.39742119  1
  Al  Al27  1  0.55485822  0.87108219  0.14865220  1
  Al  Al28  1  0.11725351  0.75802832  0.90287775  1
  Al  Al29  1  0.22426726  0.86700948  0.65260323  1
  Al  Al30  1  0.78582099  0.76193908  0.33069674  1
  Al  Al31  1  0.88144112  0.87592763  0.08110217  1
  Al  Al32  1  0.44437354  0.76109175  0.89844150  1
  Al  Al33  1  0.55003288  0.87400323  0.65005268  1
  Gd  Gd34  1  0.21795735  0.20760041  0.15110815  1
  Gd  Gd35  1  0.79286021  0.42033273  0.33882336  1
  N  N36  1  0.21750918  0.20796871  0.36945282  1
  N  N37  1  0.10146140  0.07728286  0.07484583  1
  N  N38  1  0.88018272  0.20859333  0.88011018  1
  N  N39  1  0.78270351  0.08701334  0.64496368  1
  N  N40  1  0.54787497  0.20860317  0.33786316  1
  N  N41  1  0.47606322  0.07861614  0.07813771  1
  N  N42  1  0.22334346  0.20499469  0.84425559  1
  N  N43  1  0.12130731  0.08731489  0.60419233  1
  N  N44  1  0.89880006  0.17276700  0.40947312  1
  N  N45  1  0.78477458  0.09269889  0.14415633  1
  N  N46  1  0.54751793  0.21147819  0.83601343  1
  N  N47  1  0.44890364  0.09226560  0.59217073  1
  N  N48  1  0.22063120  0.53760223  0.33666913  1
  N  N49  1  0.10149970  0.45445101  0.07490842  1
  N  N50  1  0.88020519  0.54457176  0.88013992  1
  N  N51  1  0.78371347  0.42487311  0.63501650  1
  N  N52  1  0.52331438  0.55507703  0.32916946  1
  N  N53  1  0.44196645  0.42635930  0.08496514  1
  N  N54  1  0.22356755  0.54277643  0.83615027  1
  N  N55  1  0.12133333  0.42478466  0.60419337  1
  N  N56  1  0.89883837  0.56190658  0.40949901  1
  N  N57  1  0.77617934  0.42853909  0.11829148  1
  N  N58  1  0.54747921  0.54294770  0.83494252  1
  N  N59  1  0.44637717  0.42700175  0.58468333  1
  N  N60  1  0.22060672  0.87523628  0.33664865  1
  N  N61  1  0.11571037  0.75877014  0.09012687  1
  N  N62  1  0.88179050  0.87577857  0.89546300  1
  N  N63  1  0.78271522  0.76371311  0.64496896  1
  N  N64  1  0.54787044  0.87698476  0.33786699  1
  N  N65  1  0.44197242  0.76497828  0.08495820  1
  N  N66  1  0.22356938  0.86699263  0.83613430  1
  N  N67  1  0.11869684  0.75736435  0.58571418  1
  N  N68  1  0.88362240  0.87492594  0.39144504  1
  N  N69  1  0.78480020  0.75577213  0.14418511  1
  N  N70  1  0.54752851  0.87436326  0.83601011  1
  N  N71  1  0.44636633  0.76007294  0.58467654  1
