# generated using pymatgen
data_GdAl17N18
_symmetry_space_group_name_H-M   'P 1'
_cell_length_a   9.48562289
_cell_length_b   9.50871148
_cell_length_c   10.40760392
_cell_angle_alpha   90.00000026
_cell_angle_beta   89.52599000
_cell_angle_gamma   59.91944950
_symmetry_Int_Tables_number   1
_chemical_formula_structural   GdAl17N18
_chemical_formula_sum   'Gd2 Al34 N36'
_cell_volume   812.26171234
_cell_formula_units_Z   2
loop_
 _symmetry_equiv_pos_site_id
 _symmetry_equiv_pos_as_xyz
  1  'x, y, z'
loop_
 _atom_site_type_symbol
 _atom_site_label
 _atom_site_symmetry_multiplicity
 _atom_site_fract_x
 _atom_site_fract_y
 _atom_site_fract_z
 _atom_site_occupancy
  Al  Al0  1  0.12528050  0.08270806  0.40052841  1
  Al  Al1  1  0.77557092  0.09128181  0.81349308  1
  Al  Al2  1  0.88498519  0.20203968  0.57435411  1
  Al  Al3  1  0.45806955  0.08760010  0.32316992  1
  Al  Al4  1  0.55979201  0.20450978  0.06870176  1
  Al  Al5  1  0.11193947  0.08652885  0.87528707  1
  Al  Al6  1  0.21968650  0.20679167  0.64056445  1
  Al  Al7  1  0.78314739  0.08838307  0.31688667  1
  Al  Al8  1  0.87612636  0.20445648  0.04803579  1
  Al  Al9  1  0.45102239  0.09112372  0.81889996  1
  Al  Al10  1  0.55545633  0.20549247  0.56767268  1
  Al  Al11  1  0.12528051  0.42528127  0.40052842  1
  Al  Al12  1  0.21411993  0.54770640  0.13539202  1
  Al  Al13  1  0.77432709  0.42947135  0.81030416  1
  Al  Al14  1  0.88498517  0.54624494  0.57435411  1
  Al  Al15  1  0.44497533  0.42600487  0.31748350  1
  Al  Al16  1  0.55251134  0.54037923  0.05823235  1
  Al  Al17  1  0.11193944  0.43480153  0.87528707  1
  Al  Al18  1  0.21865961  0.54419167  0.63814628  1
  Al  Al19  1  0.87612638  0.55268697  0.04803579  1
  Al  Al20  1  0.44983783  0.42402585  0.81602642  1
  Al  Al21  1  0.54836601  0.54245188  0.56891170  1
  Al  Al22  1  0.11840621  0.75743180  0.38496997  1
  Al  Al23  1  0.21411993  0.87144350  0.13539203  1
  Al  Al24  1  0.77557091  0.76641712  0.81349309  1
  Al  Al25  1  0.88261118  0.87532932  0.56320822  1
  Al  Al26  1  0.44497534  0.76228958  0.31748350  1
  Al  Al27  1  0.55979201  0.86896801  0.06870176  1
  Al  Al28  1  0.11641290  0.75842848  0.88893859  1
  Al  Al29  1  0.21865965  0.87041852  0.63814627  1
  Al  Al30  1  0.78314739  0.76173932  0.31688667  1
  Al  Al31  1  0.88246600  0.87540190  0.06793554  1
  Al  Al32  1  0.44983785  0.75940613  0.81602641  1
  Al  Al33  1  0.55545634  0.87232101  0.56767269  1
  Gd  Gd34  1  0.20678434  0.21324274  0.12741351  1
  Gd  Gd35  1  0.78180820  0.42573079  0.31489936  1
  N  N36  1  0.22354836  0.20486073  0.34779961  1
  N  N37  1  0.10120195  0.07140982  0.05648091  1
  N  N38  1  0.87850246  0.20862392  0.86195398  1
  N  N39  1  0.77632050  0.09057384  0.63000539  1
  N  N40  1  0.55779887  0.20702421  0.38119759  1
  N  N41  1  0.47643291  0.07841844  0.13697792  1
  N  N42  1  0.21605711  0.20860637  0.83096733  1
  N  N43  1  0.11968103  0.08879399  0.58590925  1
  N  N44  1  0.89823626  0.17896185  0.39127782  1
  N  N45  1  0.77930078  0.09578074  0.12949187  1
  N  N46  1  0.55343523  0.20645368  0.88149030  1
  N  N47  1  0.45238482  0.09044249  0.63123554  1
  N  N48  1  0.21496341  0.54066796  0.32183610  1
  N  N49  1  0.10120195  0.46065806  0.05648090  1
  N  N50  1  0.87850245  0.54614345  0.86195399  1
  N  N51  1  0.77654420  0.42836280  0.62194431  1
  N  N52  1  0.52370623  0.55478178  0.38806076  1
  N  N53  1  0.45212950  0.42479908  0.12833929  1
  N  N54  1  0.21709590  0.54645485  0.82103034  1
  N  N55  1  0.11968101  0.42479482  0.58590926  1
  N  N56  1  0.89823626  0.55607168  0.39127781  1
  N  N57  1  0.78257029  0.42534976  0.09663425  1
  N  N58  1  0.55093889  0.54116546  0.87399563  1
  N  N59  1  0.45238982  0.42188164  0.63014066  1
  N  N60  1  0.21496341  0.87763845  0.32183611  1
  N  N61  1  0.11635926  0.75845529  0.07455427  1
  N  N62  1  0.88111384  0.87607800  0.88043706  1
  N  N63  1  0.77632052  0.76637547  0.63000539  1
  N  N64  1  0.55779887  0.86844670  0.38119760  1
  N  N65  1  0.45212950  0.75634122  0.12833929  1
  N  N66  1  0.21709594  0.86971907  0.82103033  1
  N  N67  1  0.11814444  0.75756269  0.57053139  1
  N  N68  1  0.88407410  0.87459785  0.37603011  1
  N  N69  1  0.77930079  0.75818828  0.12949187  1
  N  N70  1  0.55343522  0.87338091  0.88149030  1
  N  N71  1  0.45238986  0.75899832  0.63014066  1
