# generated using pymatgen
data_GdAl17N18
_symmetry_space_group_name_H-M   'P 1'
_cell_length_a   9.53415275
_cell_length_b   9.53061018
_cell_length_c   10.18218025
_cell_angle_alpha   90.09541357
_cell_angle_beta   89.92527255
_cell_angle_gamma   60.02684168
_symmetry_Int_Tables_number   1
_chemical_formula_structural   GdAl17N18
_chemical_formula_sum   'Gd2 Al34 N36'
_cell_volume   801.47449038
_cell_formula_units_Z   2
loop_
 _symmetry_equiv_pos_site_id
 _symmetry_equiv_pos_as_xyz
  1  'x, y, z'
loop_
 _atom_site_type_symbol
 _atom_site_label
 _atom_site_symmetry_multiplicity
 _atom_site_fract_x
 _atom_site_fract_y
 _atom_site_fract_z
 _atom_site_occupancy
  Al  Al0  1  0.11306913  0.08751024  0.40677128  1
  Al  Al1  1  0.77267417  0.10014584  0.89604757  1
  Al  Al2  1  0.88754209  0.20345639  0.65578902  1
  Al  Al3  1  0.44734626  0.09312655  0.40663398  1
  Al  Al4  1  0.55858164  0.20496503  0.14668840  1
  Al  Al5  1  0.10915636  0.08916541  0.89181688  1
  Al  Al6  1  0.22225662  0.20488544  0.64662433  1
  Al  Al7  1  0.77679974  0.09624624  0.39399147  1
  Al  Al8  1  0.88835822  0.19690052  0.14260861  1
  Al  Al9  1  0.44907784  0.09253562  0.89167680  1
  Al  Al10  1  0.55691338  0.20646636  0.64734764  1
  Al  Al11  1  0.11441774  0.43289109  0.40687028  1
  Al  Al12  1  0.22102907  0.54359707  0.14751105  1
  Al  Al13  1  0.77682227  0.42695323  0.89805463  1
  Al  Al14  1  0.88795117  0.54098899  0.65780290  1
  Al  Al15  1  0.43934391  0.42984124  0.39667022  1
  Al  Al16  1  0.54746102  0.54285659  0.14169793  1
  Al  Al17  1  0.11092202  0.43306620  0.89129039  1
  Al  Al18  1  0.22399469  0.54003044  0.64761074  1
  Al  Al19  1  0.89042416  0.54505274  0.13718151  1
  Al  Al20  1  0.44292399  0.42695874  0.89780265  1
  Al  Al21  1  0.55325576  0.53998273  0.65527761  1
  Al  Al22  1  0.11942270  0.75746812  0.39405013  1
  Al  Al23  1  0.21997359  0.86933706  0.14758429  1
  Al  Al24  1  0.77350687  0.76123569  0.89060846  1
  Al  Al25  1  0.88809637  0.86904079  0.58200616  1
  Al  Al26  1  0.43893921  0.76549035  0.39649942  1
  Al  Al27  1  0.55520621  0.87179579  0.14262971  1
  Al  Al28  1  0.11827170  0.75713996  0.89555674  1
  Al  Al29  1  0.22365641  0.86894536  0.64762407  1
  Al  Al30  1  0.77946288  0.76477048  0.36733547  1
  Al  Al31  1  0.88905421  0.87291129  0.08216353  1
  Al  Al32  1  0.44191435  0.76291574  0.89765468  1
  Al  Al33  1  0.55755701  0.86906815  0.64832210  1
  Gd  Gd34  1  0.21895776  0.20732519  0.14741869  1
  Gd  Gd35  1  0.77741810  0.43139300  0.39460981  1
  N  N36  1  0.22154770  0.20599200  0.36941677  1
  N  N37  1  0.09831443  0.07697674  0.07533306  1
  N  N38  1  0.88695262  0.20487330  0.84159279  1
  N  N39  1  0.77531356  0.10060165  0.58710237  1
  N  N40  1  0.55417084  0.20619266  0.33813590  1
  N  N41  1  0.47083593  0.08238419  0.07716456  1
  N  N42  1  0.22175470  0.20511545  0.84140195  1
  N  N43  1  0.10860778  0.09236203  0.59535731  1
  N  N44  1  0.90597391  0.17712501  0.32853721  1
  N  N45  1  0.77125831  0.10092419  0.08661709  1
  N  N46  1  0.55497161  0.20797121  0.83464595  1
  N  N47  1  0.44827556  0.09200018  0.59415593  1
  N  N48  1  0.22344137  0.53656661  0.33775133  1
  N  N49  1  0.10099217  0.45663835  0.07384231  1
  N  N50  1  0.88771851  0.53878475  0.84452793  1
  N  N51  1  0.77776115  0.42726815  0.61467447  1
  N  N52  1  0.52406963  0.55520453  0.32701515  1
  N  N53  1  0.44214384  0.42590111  0.08639926  1
  N  N54  1  0.22529875  0.53914400  0.83411369  1
  N  N55  1  0.10883167  0.43116584  0.59565850  1
  N  N56  1  0.91099856  0.54878066  0.32301139  1
  N  N57  1  0.77802114  0.42691340  0.09359785  1
  N  N58  1  0.55239838  0.54013710  0.84449112  1
  N  N59  1  0.44579712  0.42791118  0.58708010  1
  N  N60  1  0.22283835  0.87460176  0.33763843  1
  N  N61  1  0.11787385  0.75756358  0.08897566  1
  N  N62  1  0.89002296  0.87194615  0.88103352  1
  N  N63  1  0.77640580  0.75634536  0.59736781  1
  N  N64  1  0.55232704  0.87465541  0.33472213  1
  N  N65  1  0.44079119  0.76512816  0.08573670  1
  N  N66  1  0.22449463  0.86861016  0.83424949  1
  N  N67  1  0.11833131  0.75707779  0.58593526  1
  N  N68  1  0.89192868  0.87253018  0.37895717  1
  N  N69  1  0.77205821  0.76269509  0.09214696  1
  N  N70  1  0.55302108  0.87092493  0.83675449  1
  N  N71  1  0.44561721  0.75957449  0.58702990  1
