# generated using pymatgen
data_GdAl17N18
_symmetry_space_group_name_H-M   'P 1'
_cell_length_a   9.53946429
_cell_length_b   9.51692723
_cell_length_c   10.26158993
_cell_angle_alpha   90.09627559
_cell_angle_beta   89.84940740
_cell_angle_gamma   59.99083292
_symmetry_Int_Tables_number   1
_chemical_formula_structural   GdAl17N18
_chemical_formula_sum   'Gd2 Al34 N36'
_cell_volume   806.71809734
_cell_formula_units_Z   2
loop_
 _symmetry_equiv_pos_site_id
 _symmetry_equiv_pos_as_xyz
  1  'x, y, z'
loop_
 _atom_site_type_symbol
 _atom_site_label
 _atom_site_symmetry_multiplicity
 _atom_site_fract_x
 _atom_site_fract_y
 _atom_site_fract_z
 _atom_site_occupancy
  Al  Al0  1  0.10846822  0.09030055  0.32139457  1
  Al  Al1  1  0.77726080  0.09144733  0.81020789  1
  Al  Al2  1  0.88831692  0.20145023  0.56599120  1
  Al  Al3  1  0.45305935  0.09029065  0.31585077  1
  Al  Al4  1  0.56107158  0.20359366  0.06174521  1
  Al  Al5  1  0.11013590  0.09272364  0.79934753  1
  Al  Al6  1  0.22368928  0.20683924  0.55920692  1
  Al  Al7  1  0.78078496  0.08834825  0.31028382  1
  Al  Al8  1  0.88520010  0.20062379  0.05035099  1
  Al  Al9  1  0.44622583  0.09342918  0.80246817  1
  Al  Al10  1  0.55735816  0.20626055  0.56022063  1
  Al  Al11  1  0.10871782  0.43336224  0.31933979  1
  Al  Al12  1  0.21712556  0.54845812  0.13414686  1
  Al  Al13  1  0.77631536  0.42840878  0.81133626  1
  Al  Al14  1  0.88958123  0.54404658  0.56570080  1
  Al  Al15  1  0.44835232  0.42516307  0.31452940  1
  Al  Al16  1  0.55125469  0.54040720  0.05071659  1
  Al  Al17  1  0.10629816  0.42715000  0.80127603  1
  Al  Al18  1  0.22100825  0.54553174  0.62832152  1
  Al  Al19  1  0.88514132  0.54545871  0.05005776  1
  Al  Al20  1  0.44841503  0.42427089  0.81120811  1
  Al  Al21  1  0.55298476  0.53993471  0.56548217  1
  Al  Al22  1  0.11510947  0.75588782  0.38260119  1
  Al  Al23  1  0.21853343  0.86672139  0.11676262  1
  Al  Al24  1  0.77612617  0.76498578  0.81036867  1
  Al  Al25  1  0.88059812  0.87665423  0.56075018  1
  Al  Al26  1  0.44696081  0.76090176  0.31627341  1
  Al  Al27  1  0.56088601  0.86798445  0.06167107  1
  Al  Al28  1  0.11672378  0.75903815  0.88071551  1
  Al  Al29  1  0.22589846  0.87175012  0.58443756  1
  Al  Al30  1  0.78078703  0.76444064  0.31023390  1
  Al  Al31  1  0.88029056  0.87540787  0.06163117  1
  Al  Al32  1  0.44242247  0.76415753  0.80928006  1
  Al  Al33  1  0.55869152  0.87073174  0.56005797  1
  Gd  Gd34  1  0.22363755  0.20195300  0.06165081  1
  Gd  Gd35  1  0.78149984  0.42648426  0.30709174  1
  N  N36  1  0.22331989  0.20551546  0.36617519  1
  N  N37  1  0.08734179  0.08777305  0.13507833  1
  N  N38  1  0.89021802  0.20218694  0.86259732  1
  N  N39  1  0.77576262  0.09335054  0.62430434  1
  N  N40  1  0.55899766  0.20585152  0.37295809  1
  N  N41  1  0.47613577  0.07841927  0.13210423  1
  N  N42  1  0.22132332  0.20554367  0.84324920  1
  N  N43  1  0.11103308  0.09683401  0.61228534  1
  N  N44  1  0.89808863  0.17837619  0.38441445  1
  N  N45  1  0.77779008  0.09531365  0.12077039  1
  N  N46  1  0.55418918  0.20462381  0.87195343  1
  N  N47  1  0.44753584  0.09349424  0.61443274  1
  N  N48  1  0.22412769  0.54297086  0.32448681  1
  N  N49  1  0.08780465  0.45290379  0.13022312  1
  N  N50  1  0.88863761  0.54147677  0.86301212  1
  N  N51  1  0.77827239  0.42826614  0.61810714  1
  N  N52  1  0.53151611  0.55063618  0.38212389  1
  N  N53  1  0.45035928  0.42490908  0.12020766  1
  N  N54  1  0.21848684  0.54333750  0.82090841  1
  N  N55  1  0.11019463  0.42725349  0.61384217  1
  N  N56  1  0.89985174  0.55700544  0.38408668  1
  N  N57  1  0.77657381  0.42762173  0.08724185  1
  N  N58  1  0.55126901  0.54193816  0.86474847  1
  N  N59  1  0.45116766  0.42308870  0.62218123  1
  N  N60  1  0.22633944  0.86892593  0.35109495  1
  N  N61  1  0.11177131  0.75797525  0.07171951  1
  N  N62  1  0.88249876  0.87507303  0.87287931  1
  N  N63  1  0.77600299  0.76492896  0.62443171  1
  N  N64  1  0.55980888  0.86850085  0.37297084  1
  N  N65  1  0.44855845  0.75829394  0.12378048  1
  N  N66  1  0.22089212  0.87422830  0.84148159  1
  N  N67  1  0.11199565  0.75957919  0.57043328  1
  N  N68  1  0.88380817  0.87484489  0.36999137  1
  N  N69  1  0.77738648  0.75870257  0.12081551  1
  N  N70  1  0.55366406  0.87412727  0.87166602  1
  N  N71  1  0.44976656  0.76125605  0.62039681  1
