# generated using pymatgen
data_GdAl17N18
_symmetry_space_group_name_H-M   'P 1'
_cell_length_a   9.53060170
_cell_length_b   9.53180991
_cell_length_c   10.15937988
_cell_angle_alpha   90.01861497
_cell_angle_beta   89.90779313
_cell_angle_gamma   59.99635126
_symmetry_Int_Tables_number   1
_chemical_formula_structural   GdAl17N18
_chemical_formula_sum   'Gd2 Al34 N36'
_cell_volume   799.23891823
_cell_formula_units_Z   2
loop_
 _symmetry_equiv_pos_site_id
 _symmetry_equiv_pos_as_xyz
  1  'x, y, z'
loop_
 _atom_site_type_symbol
 _atom_site_label
 _atom_site_symmetry_multiplicity
 _atom_site_fract_x
 _atom_site_fract_y
 _atom_site_fract_z
 _atom_site_occupancy
  Al  Al0  1  0.11316753  0.08707323  0.40572572  1
  Al  Al1  1  0.77398884  0.09833146  0.89467151  1
  Al  Al2  1  0.88758237  0.20477439  0.65555870  1
  Al  Al3  1  0.44695824  0.09323198  0.40553257  1
  Al  Al4  1  0.55915713  0.20438655  0.14620358  1
  Al  Al5  1  0.10954055  0.08916978  0.89130935  1
  Al  Al6  1  0.22212913  0.20553098  0.64667330  1
  Al  Al7  1  0.77765342  0.09331537  0.39364285  1
  Al  Al8  1  0.88895583  0.19626486  0.14156766  1
  Al  Al9  1  0.45077092  0.09124773  0.89144053  1
  Al  Al10  1  0.55627083  0.20725807  0.64717117  1
  Al  Al11  1  0.11332462  0.43323600  0.40567377  1
  Al  Al12  1  0.22077891  0.54368115  0.14705052  1
  Al  Al13  1  0.77743020  0.42790647  0.89808818  1
  Al  Al14  1  0.88761141  0.54089360  0.65557936  1
  Al  Al15  1  0.43851843  0.42993543  0.39592508  1
  Al  Al16  1  0.54733830  0.54305011  0.14108005  1
  Al  Al17  1  0.10966359  0.43446286  0.89119683  1
  Al  Al18  1  0.22435192  0.53969132  0.64753911  1
  Al  Al19  1  0.88912680  0.54816080  0.14125344  1
  Al  Al20  1  0.44315559  0.42692002  0.89745653  1
  Al  Al21  1  0.55310586  0.54007175  0.65485682  1
  Al  Al22  1  0.11642373  0.75854547  0.39383422  1
  Al  Al23  1  0.22069176  0.86899438  0.14705231  1
  Al  Al24  1  0.77400401  0.76098740  0.89464163  1
  Al  Al25  1  0.88994293  0.87160491  0.59408869  1
  Al  Al26  1  0.43841114  0.76513587  0.39587108  1
  Al  Al27  1  0.55909584  0.86987887  0.14604238  1
  Al  Al28  1  0.11674749  0.75824326  0.89435678  1
  Al  Al29  1  0.22431827  0.86924309  0.64754973  1
  Al  Al30  1  0.77779178  0.76265743  0.39315837  1
  Al  Al31  1  0.88895531  0.87225046  0.09129126  1
  Al  Al32  1  0.44311897  0.76320484  0.89739989  1
  Al  Al33  1  0.55635503  0.86965550  0.64708290  1
  Gd  Gd34  1  0.21977240  0.20682381  0.14529828  1
  Gd  Gd35  1  0.77675314  0.42871929  0.39215791  1
  N  N36  1  0.22089181  0.20627893  0.36779316  1
  N  N37  1  0.09880287  0.07650365  0.07484811  1
  N  N38  1  0.88700649  0.20574579  0.84158877  1
  N  N39  1  0.77523222  0.10142599  0.58760392  1
  N  N40  1  0.55424439  0.20624738  0.33788870  1
  N  N41  1  0.47301782  0.08019754  0.07761353  1
  N  N42  1  0.22222319  0.20546600  0.84202609  1
  N  N43  1  0.10873414  0.09282593  0.59504346  1
  N  N44  1  0.90646692  0.17472292  0.32750784  1
  N  N45  1  0.77232013  0.09933046  0.08527155  1
  N  N46  1  0.55519951  0.20803786  0.83456590  1
  N  N47  1  0.44804346  0.09257582  0.59364678  1
  N  N48  1  0.22248194  0.53708098  0.33740423  1
  N  N49  1  0.09901033  0.45796810  0.07468013  1
  N  N50  1  0.88703706  0.54048563  0.84160898  1
  N  N51  1  0.77720567  0.42801271  0.61282238  1
  N  N52  1  0.52285929  0.55533314  0.32640020  1
  N  N53  1  0.44220151  0.42563268  0.08614294  1
  N  N54  1  0.22532173  0.53928436  0.83425136  1
  N  N55  1  0.10875005  0.43166532  0.59503176  1
  N  N56  1  0.90687440  0.55242678  0.32710228  1
  N  N57  1  0.77870121  0.42736491  0.09456210  1
  N  N58  1  0.55286107  0.54019122  0.84446307  1
  N  N59  1  0.44563108  0.42819826  0.58677917  1
  N  N60  1  0.22234322  0.87404895  0.33739776  1
  N  N61  1  0.11714122  0.75810049  0.08776509  1
  N  N62  1  0.88987589  0.87170852  0.86989013  1
  N  N63  1  0.77528440  0.75645242  0.58731853  1
  N  N64  1  0.55424827  0.87295623  0.33772183  1
  N  N65  1  0.44210514  0.76557935  0.08608352  1
  N  N66  1  0.22525553  0.86867591  0.83428103  1
  N  N67  1  0.11865669  0.75728378  0.58657013  1
  N  N68  1  0.89076819  0.87149967  0.37483396  1
  N  N69  1  0.77231808  0.76179012  0.08521453  1
  N  N70  1  0.55523137  0.86998032  0.83451526  1
  N  N71  1  0.44560969  0.75943044  0.58674043  1
