# generated using pymatgen
data_GdAl17N18
_symmetry_space_group_name_H-M   'P 1'
_cell_length_a   9.51312616
_cell_length_b   9.51899500
_cell_length_c   10.34670765
_cell_angle_alpha   89.89598961
_cell_angle_beta   89.40447092
_cell_angle_gamma   59.98782386
_symmetry_Int_Tables_number   1
_chemical_formula_structural   GdAl17N18
_chemical_formula_sum   'Gd2 Al34 N36'
_cell_volume   811.27312726
_cell_formula_units_Z   2
loop_
 _symmetry_equiv_pos_site_id
 _symmetry_equiv_pos_as_xyz
  1  'x, y, z'
loop_
 _atom_site_type_symbol
 _atom_site_label
 _atom_site_symmetry_multiplicity
 _atom_site_fract_x
 _atom_site_fract_y
 _atom_site_fract_z
 _atom_site_occupancy
  Al  Al0  1  0.12434112  0.08114233  0.41787635  1
  Al  Al1  1  0.78095551  0.08921295  0.82815856  1
  Al  Al2  1  0.88806446  0.19957157  0.59111971  1
  Al  Al3  1  0.44864725  0.09263728  0.40809480  1
  Al  Al4  1  0.55431016  0.20706127  0.14901266  1
  Al  Al5  1  0.11428059  0.08692151  0.89137539  1
  Al  Al6  1  0.22581321  0.20404471  0.65595017  1
  Al  Al7  1  0.78650274  0.08592438  0.33058674  1
  Al  Al8  1  0.87455843  0.20705460  0.06655923  1
  Al  Al9  1  0.45153369  0.09057420  0.89752272  1
  Al  Al10  1  0.55024937  0.20968428  0.64998270  1
  Al  Al11  1  0.12475734  0.42818898  0.41775353  1
  Al  Al12  1  0.21658478  0.54448953  0.14986579  1
  Al  Al13  1  0.77851910  0.42756348  0.83009501  1
  Al  Al14  1  0.88841486  0.54695191  0.59091346  1
  Al  Al15  1  0.44010147  0.42910548  0.39796030  1
  Al  Al16  1  0.54102987  0.54568143  0.14272938  1
  Al  Al17  1  0.11454205  0.43129065  0.89194084  1
  Al  Al18  1  0.22437698  0.54230983  0.65265761  1
  Al  Al19  1  0.87485256  0.55062427  0.06701178  1
  Al  Al20  1  0.44369018  0.42751498  0.89890750  1
  Al  Al21  1  0.54951154  0.54228703  0.64797135  1
  Al  Al22  1  0.11785231  0.75798540  0.39816416  1
  Al  Al23  1  0.21647239  0.87101974  0.14952822  1
  Al  Al24  1  0.78112276  0.76297255  0.82810708  1
  Al  Al25  1  0.88374780  0.87552011  0.57733021  1
  Al  Al26  1  0.43981330  0.76474875  0.39790608  1
  Al  Al27  1  0.55464942  0.87080282  0.14922432  1
  Al  Al28  1  0.11729467  0.75771189  0.90275302  1
  Al  Al29  1  0.22432244  0.86714729  0.65257653  1
  Al  Al30  1  0.78655123  0.76202366  0.33106692  1
  Al  Al31  1  0.88156495  0.87540549  0.08111996  1
  Al  Al32  1  0.44369486  0.76170911  0.89886628  1
  Al  Al33  1  0.55031550  0.87397200  0.64987975  1
  Gd  Gd34  1  0.21717421  0.20676578  0.15055814  1
  Gd  Gd35  1  0.79049218  0.42231583  0.34088916  1
  N  N36  1  0.21974668  0.20708148  0.36987072  1
  N  N37  1  0.10039819  0.07645964  0.07545723  1
  N  N38  1  0.88032318  0.20810093  0.87991764  1
  N  N39  1  0.78225375  0.08793581  0.64409954  1
  N  N40  1  0.54922068  0.20858943  0.33914112  1
  N  N41  1  0.47509429  0.07860263  0.07941677  1
  N  N42  1  0.22354377  0.20467423  0.84548495  1
  N  N43  1  0.12090493  0.08792685  0.60501924  1
  N  N44  1  0.90032511  0.17301696  0.40793977  1
  N  N45  1  0.78349549  0.09220346  0.14323152  1
  N  N46  1  0.54795561  0.21106042  0.83689457  1
  N  N47  1  0.44896661  0.09256653  0.59318897  1
  N  N48  1  0.22152074  0.53747717  0.33771690  1
  N  N49  1  0.10090332  0.45443189  0.07631345  1
  N  N50  1  0.88054587  0.54471311  0.88048262  1
  N  N51  1  0.78274999  0.42601065  0.63372967  1
  N  N52  1  0.52215084  0.55594513  0.32951217  1
  N  N53  1  0.44114177  0.42612470  0.08584532  1
  N  N54  1  0.22371737  0.54237214  0.83690639  1
  N  N55  1  0.12120462  0.42504582  0.60495555  1
  N  N56  1  0.90090332  0.56103320  0.40812307  1
  N  N57  1  0.77498309  0.42857514  0.11735253  1
  N  N58  1  0.54713644  0.54302718  0.83673717  1
  N  N59  1  0.44627445  0.42765348  0.58585769  1
  N  N60  1  0.22119268  0.87532217  0.33748369  1
  N  N61  1  0.11517499  0.75841273  0.09098058  1
  N  N62  1  0.88260444  0.87517915  0.89450921  1
  N  N63  1  0.78236952  0.76412514  0.64405084  1
  N  N64  1  0.54923413  0.87611060  0.33934721  1
  N  N65  1  0.44121723  0.76530117  0.08582540  1
  N  N66  1  0.22378664  0.86674612  0.83670928  1
  N  N67  1  0.11829426  0.75788580  0.58654615  1
  N  N68  1  0.88481300  0.87486735  0.39070413  1
  N  N69  1  0.78386268  0.75628047  0.14377059  1
  N  N70  1  0.54809094  0.87395196  0.83677315  1
  N  N71  1  0.44611735  0.76029958  0.58576753  1
