# generated using pymatgen
data_GdAl17N18
_symmetry_space_group_name_H-M   'P 1'
_cell_length_a   9.52512936
_cell_length_b   9.51113655
_cell_length_c   10.30415590
_cell_angle_alpha   89.89953634
_cell_angle_beta   89.51230139
_cell_angle_gamma   60.08473312
_symmetry_Int_Tables_number   1
_chemical_formula_structural   GdAl17N18
_chemical_formula_sum   'Gd2 Al34 N36'
_cell_volume   809.09404372
_cell_formula_units_Z   2
loop_
 _symmetry_equiv_pos_site_id
 _symmetry_equiv_pos_as_xyz
  1  'x, y, z'
loop_
 _atom_site_type_symbol
 _atom_site_label
 _atom_site_symmetry_multiplicity
 _atom_site_fract_x
 _atom_site_fract_y
 _atom_site_fract_z
 _atom_site_occupancy
  Al  Al0  1  0.11547047  0.08719151  0.40876373  1
  Al  Al1  1  0.77875035  0.08834565  0.83175044  1
  Al  Al2  1  0.89539044  0.20452443  0.65811703  1
  Al  Al3  1  0.44999962  0.09205961  0.40783884  1
  Al  Al4  1  0.55081243  0.20866143  0.14494290  1
  Al  Al5  1  0.11145759  0.08928819  0.89343344  1
  Al  Al6  1  0.22626359  0.20284404  0.64815509  1
  Al  Al7  1  0.78382367  0.08279616  0.32360640  1
  Al  Al8  1  0.89113750  0.19944281  0.13810957  1
  Al  Al9  1  0.44696684  0.09291866  0.89518882  1
  Al  Al10  1  0.55245711  0.20919794  0.64819247  1
  Al  Al11  1  0.11433814  0.43185111  0.41201161  1
  Al  Al12  1  0.21689084  0.54657787  0.14907283  1
  Al  Al13  1  0.77430642  0.42636304  0.89604048  1
  Al  Al14  1  0.89480845  0.53389182  0.65827051  1
  Al  Al15  1  0.43819186  0.43020779  0.39597648  1
  Al  Al16  1  0.54486946  0.54396377  0.14249080  1
  Al  Al17  1  0.11302113  0.43128206  0.89100764  1
  Al  Al18  1  0.22493715  0.54200786  0.64941491  1
  Al  Al19  1  0.88614732  0.54508835  0.12051267  1
  Al  Al20  1  0.44183043  0.42756225  0.89921420  1
  Al  Al21  1  0.55376508  0.53995644  0.65616128  1
  Al  Al22  1  0.11833498  0.75749002  0.39719624  1
  Al  Al23  1  0.21827339  0.86995602  0.14871481  1
  Al  Al24  1  0.77818951  0.76629538  0.83262485  1
  Al  Al25  1  0.88340815  0.87492462  0.57736679  1
  Al  Al26  1  0.43881412  0.76579765  0.39606131  1
  Al  Al27  1  0.55029361  0.87464003  0.14540251  1
  Al  Al28  1  0.11909966  0.75726746  0.89931780  1
  Al  Al29  1  0.22385707  0.86778525  0.64870507  1
  Al  Al30  1  0.78509361  0.76411402  0.32349359  1
  Al  Al31  1  0.88160122  0.87666226  0.07471999  1
  Al  Al32  1  0.44196634  0.76333526  0.89884274  1
  Al  Al33  1  0.55266280  0.87180136  0.64881270  1
  Gd  Gd34  1  0.21458846  0.21105553  0.15503781  1
  Gd  Gd35  1  0.77432389  0.42827291  0.39717588  1
  N  N36  1  0.22453469  0.20528938  0.37390406  1
  N  N37  1  0.10111499  0.07746906  0.07430760  1
  N  N38  1  0.89080170  0.20521393  0.84457998  1
  N  N39  1  0.78241599  0.08934567  0.63929372  1
  N  N40  1  0.55023609  0.20897227  0.33812891  1
  N  N41  1  0.46579142  0.08399732  0.07820197  1
  N  N42  1  0.22271507  0.20462439  0.84011208  1
  N  N43  1  0.11257710  0.09091440  0.59567927  1
  N  N44  1  0.91443139  0.17779761  0.32607791  1
  N  N45  1  0.77541514  0.08992134  0.13341522  1
  N  N46  1  0.54835984  0.21079367  0.83697523  1
  N  N47  1  0.45083199  0.09115765  0.59328060  1
  N  N48  1  0.22121746  0.53756687  0.33808533  1
  N  N49  1  0.10079856  0.45674039  0.07216797  1
  N  N50  1  0.88855483  0.53715083  0.84947407  1
  N  N51  1  0.77988856  0.42688240  0.61654537  1
  N  N52  1  0.52206028  0.55637890  0.32494975  1
  N  N53  1  0.43921994  0.42802968  0.08576729  1
  N  N54  1  0.22455204  0.54130137  0.83439509  1
  N  N55  1  0.11414463  0.42903798  0.59968752  1
  N  N56  1  0.91103421  0.54290202  0.33615150  1
  N  N57  1  0.77379551  0.42758119  0.08857130  1
  N  N58  1  0.55102287  0.54065062  0.84305157  1
  N  N59  1  0.44740426  0.42835372  0.58590215  1
  N  N60  1  0.22185817  0.87429209  0.33775177  1
  N  N61  1  0.11447117  0.76004161  0.08883129  1
  N  N62  1  0.88621914  0.87349431  0.88971703  1
  N  N63  1  0.78296181  0.76176419  0.64170292  1
  N  N64  1  0.55015585  0.87576484  0.33755915  1
  N  N65  1  0.44042275  0.76533377  0.08532199  1
  N  N66  1  0.22404594  0.86856599  0.83423153  1
  N  N67  1  0.11783998  0.75778349  0.58558297  1
  N  N68  1  0.88506868  0.87408763  0.39014337  1
  N  N69  1  0.77556842  0.76778074  0.13287172  1
  N  N70  1  0.54804822  0.87424423  0.83734022  1
  N  N71  1  0.44720191  0.75840115  0.58617664  1
