# generated using pymatgen
data_GdAl17N18
_symmetry_space_group_name_H-M   'P 1'
_cell_length_a   9.52269889
_cell_length_b   9.51608494
_cell_length_c   10.25846661
_cell_angle_alpha   89.91054266
_cell_angle_beta   89.75770163
_cell_angle_gamma   60.13538720
_symmetry_Int_Tables_number   1
_chemical_formula_structural   GdAl17N18
_chemical_formula_sum   'Gd2 Al34 N36'
_cell_volume   806.15461660
_cell_formula_units_Z   2
loop_
 _symmetry_equiv_pos_site_id
 _symmetry_equiv_pos_as_xyz
  1  'x, y, z'
loop_
 _atom_site_type_symbol
 _atom_site_label
 _atom_site_symmetry_multiplicity
 _atom_site_fract_x
 _atom_site_fract_y
 _atom_site_fract_z
 _atom_site_occupancy
  Al  Al0  1  0.11454653  0.08582865  0.40802634  1
  Al  Al1  1  0.77255105  0.10026370  0.88984394  1
  Al  Al2  1  0.88874459  0.20253028  0.65888479  1
  Al  Al3  1  0.44834644  0.09163543  0.40779885  1
  Al  Al4  1  0.55499168  0.20696229  0.14301525  1
  Al  Al5  1  0.11108039  0.08990236  0.89245853  1
  Al  Al6  1  0.22341220  0.20484958  0.64737480  1
  Al  Al7  1  0.77972659  0.08895361  0.36464848  1
  Al  Al8  1  0.89043026  0.19786884  0.13801547  1
  Al  Al9  1  0.44730094  0.09302364  0.89294793  1
  Al  Al10  1  0.55825736  0.20639515  0.64914741  1
  Al  Al11  1  0.11465997  0.43076845  0.40856630  1
  Al  Al12  1  0.21932223  0.54515615  0.14830634  1
  Al  Al13  1  0.77633912  0.43022953  0.89915550  1
  Al  Al14  1  0.89351328  0.53340086  0.65752587  1
  Al  Al15  1  0.43897568  0.42912710  0.39695176  1
  Al  Al16  1  0.54689469  0.54334614  0.14266847  1
  Al  Al17  1  0.11025949  0.43379640  0.89294994  1
  Al  Al18  1  0.22396240  0.54097215  0.64836992  1
  Al  Al19  1  0.89107554  0.54212768  0.13914283  1
  Al  Al20  1  0.44149800  0.42911314  0.89839331  1
  Al  Al21  1  0.55360865  0.53981246  0.65618356  1
  Al  Al22  1  0.11980197  0.75552664  0.39674480  1
  Al  Al23  1  0.21902929  0.86937581  0.14830257  1
  Al  Al24  1  0.77897637  0.76687185  0.83046904  1
  Al  Al25  1  0.88430035  0.87373580  0.57819644  1
  Al  Al26  1  0.43883410  0.76479430  0.39692181  1
  Al  Al27  1  0.55137942  0.87378122  0.14401718  1
  Al  Al28  1  0.11904722  0.75743744  0.89759532  1
  Al  Al29  1  0.22271162  0.86888091  0.64851973  1
  Al  Al30  1  0.78273316  0.76588282  0.32414242  1
  Al  Al31  1  0.88529717  0.87048807  0.07627791  1
  Al  Al32  1  0.44252868  0.76371112  0.89845438  1
  Al  Al33  1  0.55129210  0.87286657  0.64753892  1
  Gd  Gd34  1  0.21837848  0.20820193  0.15117447  1
  Gd  Gd35  1  0.77640701  0.42593077  0.39680901  1
  N  N36  1  0.22304710  0.20437045  0.37123269  1
  N  N37  1  0.10134508  0.07680873  0.07434622  1
  N  N38  1  0.88807251  0.20705937  0.84494788  1
  N  N39  1  0.77753488  0.09819141  0.60175677  1
  N  N40  1  0.55249279  0.20630504  0.33458945  1
  N  N41  1  0.46862918  0.08241477  0.07660900  1
  N  N42  1  0.22161756  0.20663650  0.84062518  1
  N  N43  1  0.10932190  0.09254119  0.59590593  1
  N  N44  1  0.91115400  0.17433077  0.32327395  1
  N  N45  1  0.77213835  0.09834655  0.09392580  1
  N  N46  1  0.55216418  0.21006420  0.83709661  1
  N  N47  1  0.44860637  0.09336278  0.59384286  1
  N  N48  1  0.22270737  0.53591967  0.33781082  1
  N  N49  1  0.09994992  0.45711167  0.07453604  1
  N  N50  1  0.88963619  0.53750156  0.84483723  1
  N  N51  1  0.77843516  0.42702432  0.61530050  1
  N  N52  1  0.52383744  0.55469959  0.32659462  1
  N  N53  1  0.44024934  0.42802618  0.08576758  1
  N  N54  1  0.22412162  0.54078618  0.83424058  1
  N  N55  1  0.11116300  0.43024108  0.59561772  1
  N  N56  1  0.91204456  0.54084675  0.32827551  1
  N  N57  1  0.77673178  0.42865933  0.09254662  1
  N  N58  1  0.55232530  0.54115420  0.84423506  1
  N  N59  1  0.44616909  0.42788793  0.58693479  1
  N  N60  1  0.22213657  0.87318190  0.33787193  1
  N  N61  1  0.11614676  0.75871225  0.08874695  1
  N  N62  1  0.88829729  0.87157696  0.88705357  1
  N  N63  1  0.78119801  0.76193095  0.63785315  1
  N  N64  1  0.54948809  0.87540283  0.33842383  1
  N  N65  1  0.44086389  0.76495135  0.08574011  1
  N  N66  1  0.22423543  0.86919547  0.83436150  1
  N  N67  1  0.11762926  0.75752022  0.58594131  1
  N  N68  1  0.88920634  0.86810408  0.38641907  1
  N  N69  1  0.77564871  0.76733752  0.13406612  1
  N  N70  1  0.54870063  0.87434644  0.83649242  1
  N  N71  1  0.44565841  0.75894796  0.58669243  1
