# generated using pymatgen
data_GdAl17N18
_symmetry_space_group_name_H-M   'P 1'
_cell_length_a   9.53449340
_cell_length_b   9.51493564
_cell_length_c   10.30200171
_cell_angle_alpha   90.14227961
_cell_angle_beta   89.58991832
_cell_angle_gamma   60.04621774
_symmetry_Int_Tables_number   1
_chemical_formula_structural   GdAl17N18
_chemical_formula_sum   'Gd2 Al34 N36'
_cell_volume   809.72223002
_cell_formula_units_Z   2
loop_
 _symmetry_equiv_pos_site_id
 _symmetry_equiv_pos_as_xyz
  1  'x, y, z'
loop_
 _atom_site_type_symbol
 _atom_site_label
 _atom_site_symmetry_multiplicity
 _atom_site_fract_x
 _atom_site_fract_y
 _atom_site_fract_z
 _atom_site_occupancy
  Al  Al0  1  0.10858763  0.09065140  0.32077731  1
  Al  Al1  1  0.77606237  0.09156786  0.81022038  1
  Al  Al2  1  0.88820960  0.20052352  0.56512136  1
  Al  Al3  1  0.45529527  0.08863594  0.31618470  1
  Al  Al4  1  0.56086857  0.20503685  0.06300475  1
  Al  Al5  1  0.10410428  0.09981650  0.80071528  1
  Al  Al6  1  0.22815366  0.19585189  0.56542993  1
  Al  Al7  1  0.78142137  0.08844066  0.30976398  1
  Al  Al8  1  0.88422849  0.20296569  0.05013960  1
  Al  Al9  1  0.44654381  0.09357037  0.80285497  1
  Al  Al10  1  0.55819235  0.20520283  0.55985599  1
  Al  Al11  1  0.11915370  0.43078200  0.37476113  1
  Al  Al12  1  0.21300815  0.54772922  0.13401207  1
  Al  Al13  1  0.77265012  0.42902021  0.80987174  1
  Al  Al14  1  0.88346896  0.54585925  0.56938505  1
  Al  Al15  1  0.44892902  0.42505741  0.31231697  1
  Al  Al16  1  0.54949146  0.54230783  0.05121220  1
  Al  Al17  1  0.10548825  0.43063174  0.81199607  1
  Al  Al18  1  0.22209363  0.54499006  0.62730698  1
  Al  Al19  1  0.88375203  0.54741282  0.04357139  1
  Al  Al20  1  0.44759200  0.42432018  0.80986607  1
  Al  Al21  1  0.55251111  0.53981229  0.56300443  1
  Al  Al22  1  0.11802733  0.75828770  0.38299812  1
  Al  Al23  1  0.21582142  0.86712266  0.13527513  1
  Al  Al24  1  0.77386539  0.76815945  0.80874338  1
  Al  Al25  1  0.88086168  0.87655353  0.55899345  1
  Al  Al26  1  0.44909555  0.75934337  0.31362924  1
  Al  Al27  1  0.56172428  0.86871501  0.06322863  1
  Al  Al28  1  0.11630800  0.75891299  0.88211792  1
  Al  Al29  1  0.22115288  0.86654816  0.62692758  1
  Al  Al30  1  0.78325125  0.76315034  0.30926925  1
  Al  Al31  1  0.88195414  0.87538903  0.06187407  1
  Al  Al32  1  0.44734989  0.76176246  0.81071167  1
  Al  Al33  1  0.55823100  0.86914426  0.55914332  1
  Gd  Gd34  1  0.22627077  0.20119852  0.06202674  1
  Gd  Gd35  1  0.78627832  0.42543423  0.30327167  1
  N  N36  1  0.22729383  0.19940681  0.37163655  1
  N  N37  1  0.08418398  0.09267494  0.13351227  1
  N  N38  1  0.88710929  0.20369239  0.86297600  1
  N  N39  1  0.77588243  0.09250120  0.62457244  1
  N  N40  1  0.55906400  0.20611196  0.37357782  1
  N  N41  1  0.47894549  0.07835612  0.13421823  1
  N  N42  1  0.22009503  0.20656162  0.84013694  1
  N  N43  1  0.10857061  0.09536364  0.61447878  1
  N  N44  1  0.89862170  0.17864888  0.38454378  1
  N  N45  1  0.77788672  0.09632462  0.12081250  1
  N  N46  1  0.55253660  0.20585345  0.87255433  1
  N  N47  1  0.45010681  0.09073295  0.61617797  1
  N  N48  1  0.22186241  0.54195320  0.32438520  1
  N  N49  1  0.09318225  0.45578109  0.09316566  1
  N  N50  1  0.88210870  0.54487304  0.85491789  1
  N  N51  1  0.77668358  0.42692005  0.61825392  1
  N  N52  1  0.53370529  0.54959383  0.38011303  1
  N  N53  1  0.44957979  0.42640654  0.12142182  1
  N  N54  1  0.21671853  0.54595298  0.81510869  1
  N  N55  1  0.11394160  0.42576093  0.59751639  1
  N  N56  1  0.89799841  0.55819521  0.38685677  1
  N  N57  1  0.77505553  0.43039011  0.08442103  1
  N  N58  1  0.54854864  0.54218195  0.86548391  1
  N  N59  1  0.45200576  0.42210478  0.62141060  1
  N  N60  1  0.22454931  0.86519094  0.32552343  1
  N  N61  1  0.11512612  0.75985593  0.06906342  1
  N  N62  1  0.88201551  0.87552260  0.87314106  1
  N  N63  1  0.77494875  0.76676809  0.62400325  1
  N  N64  1  0.56081007  0.86700130  0.37289040  1
  N  N65  1  0.44945601  0.75968737  0.12057321  1
  N  N66  1  0.21741949  0.87177085  0.81934426  1
  N  N67  1  0.11385594  0.75921830  0.56832528  1
  N  N68  1  0.88527746  0.87465715  0.36963316  1
  N  N69  1  0.77857795  0.75855576  0.12074368  1
  N  N70  1  0.55207940  0.87619435  0.87301263  1
  N  N71  1  0.45160752  0.75905453  0.62172757  1
