# generated using pymatgen
data_GdAl17N18
_symmetry_space_group_name_H-M   'P 1'
_cell_length_a   9.48687703
_cell_length_b   9.52983455
_cell_length_c   10.46996257
_cell_angle_alpha   90.05070984
_cell_angle_beta   90.04506662
_cell_angle_gamma   59.83452642
_symmetry_Int_Tables_number   1
_chemical_formula_structural   GdAl17N18
_chemical_formula_sum   'Gd2 Al34 N36'
_cell_volume   818.38492094
_cell_formula_units_Z   2
loop_
 _symmetry_equiv_pos_site_id
 _symmetry_equiv_pos_as_xyz
  1  'x, y, z'
loop_
 _atom_site_type_symbol
 _atom_site_label
 _atom_site_symmetry_multiplicity
 _atom_site_fract_x
 _atom_site_fract_y
 _atom_site_fract_z
 _atom_site_occupancy
  Al  Al0  1  0.12066087  0.08294093  0.40653409  1
  Al  Al1  1  0.78012047  0.08949500  0.81597055  1
  Al  Al2  1  0.88538981  0.20297766  0.57837862  1
  Al  Al3  1  0.44025148  0.09603887  0.40323729  1
  Al  Al4  1  0.56288636  0.21142677  0.06455165  1
  Al  Al5  1  0.11552038  0.08628858  0.88132531  1
  Al  Al6  1  0.22633036  0.20299078  0.64651247  1
  Al  Al7  1  0.77837136  0.09030765  0.32011091  1
  Al  Al8  1  0.87857200  0.20530859  0.05222832  1
  Al  Al9  1  0.44759877  0.09160500  0.88648107  1
  Al  Al10  1  0.56103149  0.20598108  0.57920435  1
  Al  Al11  1  0.11945764  0.42913791  0.40673560  1
  Al  Al12  1  0.21994337  0.54481151  0.13888544  1
  Al  Al13  1  0.77765363  0.42816726  0.81512826  1
  Al  Al14  1  0.88550494  0.54438133  0.57855277  1
  Al  Al15  1  0.43861404  0.42979303  0.35088117  1
  Al  Al16  1  0.55129522  0.54181497  0.05834679  1
  Al  Al17  1  0.11630282  0.43089500  0.88213716  1
  Al  Al18  1  0.21592308  0.54524365  0.64302133  1
  Al  Al19  1  0.87992668  0.54978374  0.05279728  1
  Al  Al20  1  0.44912371  0.42650251  0.82245925  1
  Al  Al21  1  0.54933137  0.54468930  0.57554211  1
  Al  Al22  1  0.11556758  0.76000062  0.38828858  1
  Al  Al23  1  0.21234591  0.87287123  0.13891253  1
  Al  Al24  1  0.77873291  0.76320240  0.81635033  1
  Al  Al25  1  0.88243274  0.87469259  0.56575641  1
  Al  Al26  1  0.44322796  0.76458640  0.32002959  1
  Al  Al27  1  0.56367804  0.85963150  0.06703177  1
  Al  Al28  1  0.11664858  0.75797642  0.89461215  1
  Al  Al29  1  0.21548713  0.87192251  0.64335038  1
  Al  Al30  1  0.77897870  0.76414816  0.32016161  1
  Al  Al31  1  0.88061047  0.87624890  0.07135272  1
  Al  Al32  1  0.45042369  0.75806651  0.81691369  1
  Al  Al33  1  0.55971243  0.86313579  0.57368707  1
  Gd  Gd34  1  0.21846139  0.20797521  0.14254183  1
  Gd  Gd35  1  0.77778297  0.42679424  0.31618297  1
  N  N36  1  0.21831568  0.20736012  0.35880805  1
  N  N37  1  0.10475092  0.07517240  0.06246526  1
  N  N38  1  0.88247480  0.20723298  0.86684816  1
  N  N39  1  0.78109129  0.08808510  0.63432116  1
  N  N40  1  0.55834725  0.20803544  0.38837443  1
  N  N41  1  0.46826262  0.08280808  0.07274052  1
  N  N42  1  0.22413157  0.20419665  0.83232205  1
  N  N43  1  0.11896444  0.08930570  0.59096258  1
  N  N44  1  0.89407603  0.18103501  0.39578494  1
  N  N45  1  0.77862004  0.09702614  0.13322606  1
  N  N46  1  0.56071060  0.20831217  0.87413316  1
  N  N47  1  0.44596616  0.09209352  0.59047799  1
  N  N48  1  0.21402610  0.54079253  0.32783432  1
  N  N49  1  0.10560166  0.45433852  0.06359801  1
  N  N50  1  0.88366955  0.54300159  0.86707718  1
  N  N51  1  0.77701605  0.42814266  0.62763927  1
  N  N52  1  0.52371712  0.55945138  0.39557224  1
  N  N53  1  0.44805953  0.42866652  0.11598535  1
  N  N54  1  0.21707991  0.54636345  0.82522735  1
  N  N55  1  0.11894381  0.42429896  0.59102703  1
  N  N56  1  0.89369668  0.55749057  0.39547332  1
  N  N57  1  0.78152013  0.42672056  0.09919877  1
  N  N58  1  0.55390638  0.54137794  0.87411656  1
  N  N59  1  0.44828642  0.42586040  0.62788923  1
  N  N60  1  0.21262177  0.87948617  0.32499777  1
  N  N61  1  0.11485921  0.75868500  0.07978406  1
  N  N62  1  0.88144254  0.87532936  0.88468303  1
  N  N63  1  0.77883321  0.76415407  0.63385258  1
  N  N64  1  0.55700601  0.86653590  0.38419511  1
  N  N65  1  0.45098857  0.75675572  0.13222566  1
  N  N66  1  0.21701534  0.86938939  0.82609514  1
  N  N67  1  0.11708675  0.75800219  0.57360934  1
  N  N68  1  0.88123753  0.87595926  0.37953364  1
  N  N69  1  0.77926833  0.75785072  0.13372903  1
  N  N70  1  0.56055594  0.86105488  0.87911488  1
  N  N71  1  0.44917016  0.76010771  0.63407382  1
