# generated using pymatgen
data_GdAl17N18
_symmetry_space_group_name_H-M   'P 1'
_cell_length_a   9.53368870
_cell_length_b   9.51545869
_cell_length_c   10.30503204
_cell_angle_alpha   89.81837879
_cell_angle_beta   89.42915701
_cell_angle_gamma   60.06998728
_symmetry_Int_Tables_number   1
_chemical_formula_structural   GdAl17N18
_chemical_formula_sum   'Gd2 Al34 N36'
_cell_volume   810.12872206
_cell_formula_units_Z   2
loop_
 _symmetry_equiv_pos_site_id
 _symmetry_equiv_pos_as_xyz
  1  'x, y, z'
loop_
 _atom_site_type_symbol
 _atom_site_label
 _atom_site_symmetry_multiplicity
 _atom_site_fract_x
 _atom_site_fract_y
 _atom_site_fract_z
 _atom_site_occupancy
  Al  Al0  1  0.11573198  0.08726669  0.40857119  1
  Al  Al1  1  0.77872798  0.08746337  0.83189389  1
  Al  Al2  1  0.89578171  0.20458436  0.65811992  1
  Al  Al3  1  0.45040244  0.09192745  0.40746102  1
  Al  Al4  1  0.55096504  0.20839158  0.14490337  1
  Al  Al5  1  0.11153413  0.08875860  0.89360442  1
  Al  Al6  1  0.22728394  0.20170788  0.64973414  1
  Al  Al7  1  0.78416542  0.08281617  0.32305990  1
  Al  Al8  1  0.89122487  0.19915665  0.13751951  1
  Al  Al9  1  0.44787689  0.09192594  0.89573124  1
  Al  Al10  1  0.55246287  0.20934667  0.64803087  1
  Al  Al11  1  0.11898196  0.42995902  0.41566126  1
  Al  Al12  1  0.21679072  0.54619460  0.14909747  1
  Al  Al13  1  0.77129533  0.42413557  0.89282776  1
  Al  Al14  1  0.89303535  0.54052483  0.62237350  1
  Al  Al15  1  0.43763258  0.43077145  0.39543977  1
  Al  Al16  1  0.54464811  0.54385139  0.14233277  1
  Al  Al17  1  0.11585947  0.42961795  0.88908883  1
  Al  Al18  1  0.22634527  0.54217334  0.65048666  1
  Al  Al19  1  0.87952638  0.55154569  0.07288283  1
  Al  Al20  1  0.44152427  0.42740933  0.89962374  1
  Al  Al21  1  0.55341425  0.54033430  0.65577481  1
  Al  Al22  1  0.11777788  0.75767507  0.39683426  1
  Al  Al23  1  0.21855615  0.86982246  0.14889986  1
  Al  Al24  1  0.77905666  0.76458439  0.83008541  1
  Al  Al25  1  0.88366600  0.87628704  0.57653645  1
  Al  Al26  1  0.43880646  0.76622048  0.39586434  1
  Al  Al27  1  0.55207550  0.87312764  0.14688347  1
  Al  Al28  1  0.11871823  0.75765620  0.89989521  1
  Al  Al29  1  0.22379087  0.86780866  0.64855197  1
  Al  Al30  1  0.78706548  0.76028342  0.32647993  1
  Al  Al31  1  0.88187178  0.87555364  0.07622017  1
  Al  Al32  1  0.44179234  0.76348665  0.89877707  1
  Al  Al33  1  0.55176348  0.87250916  0.64913000  1
  Gd  Gd34  1  0.21443883  0.21073973  0.15450896  1
  Gd  Gd35  1  0.77225473  0.42623281  0.39476916  1
  N  N36  1  0.22456779  0.20583238  0.37352457  1
  N  N37  1  0.10111061  0.07708147  0.07397973  1
  N  N38  1  0.89117429  0.20406326  0.84414985  1
  N  N39  1  0.78243741  0.08972734  0.63944766  1
  N  N40  1  0.55041026  0.20947481  0.33811662  1
  N  N41  1  0.46742915  0.08233165  0.07853359  1
  N  N42  1  0.22323973  0.20353499  0.84091536  1
  N  N43  1  0.11283913  0.09110762  0.59571427  1
  N  N44  1  0.91625742  0.17624088  0.32491063  1
  N  N45  1  0.77546801  0.08931054  0.13320788  1
  N  N46  1  0.54820822  0.21076137  0.83691043  1
  N  N47  1  0.45112854  0.09106117  0.59312453  1
  N  N48  1  0.22070032  0.53752898  0.33752776  1
  N  N49  1  0.10241801  0.45556246  0.07329304  1
  N  N50  1  0.88366601  0.54196538  0.87180217  1
  N  N51  1  0.77941943  0.42693307  0.61771344  1
  N  N52  1  0.51982409  0.55797260  0.32441077  1
  N  N53  1  0.43917373  0.42775745  0.08577926  1
  N  N54  1  0.22474236  0.54193088  0.83502854  1
  N  N55  1  0.12040646  0.42581366  0.60447590  1
  N  N56  1  0.90306800  0.55399380  0.38671538  1
  N  N57  1  0.77233630  0.42634277  0.08857393  1
  N  N58  1  0.54948985  0.54087406  0.84234157  1
  N  N59  1  0.44786299  0.42854359  0.58557923  1
  N  N60  1  0.22199554  0.87439307  0.33793016  1
  N  N61  1  0.11473198  0.75994082  0.08914349  1
  N  N62  1  0.88555730  0.87266398  0.89064689  1
  N  N63  1  0.78287612  0.76399992  0.64387727  1
  N  N64  1  0.55019266  0.87616702  0.33759417  1
  N  N65  1  0.44108719  0.76523564  0.08511642  1
  N  N66  1  0.22389870  0.86845873  0.83410599  1
  N  N67  1  0.11789963  0.75764402  0.58555344  1
  N  N68  1  0.88477973  0.87549652  0.38970361  1
  N  N69  1  0.78024200  0.76082340  0.13735145  1
  N  N70  1  0.54812150  0.87395996  0.83705022  1
  N  N71  1  0.44731750  0.75866791  0.58617593  1
