# generated using pymatgen
data_GdAl17N18
_symmetry_space_group_name_H-M   'P 1'
_cell_length_a   9.51091430
_cell_length_b   9.57277619
_cell_length_c   10.43278583
_cell_angle_alpha   89.97774728
_cell_angle_beta   90.14944516
_cell_angle_gamma   59.76014197
_symmetry_Int_Tables_number   1
_chemical_formula_structural   GdAl17N18
_chemical_formula_sum   'Gd2 Al34 N36'
_cell_volume   820.60473598
_cell_formula_units_Z   2
loop_
 _symmetry_equiv_pos_site_id
 _symmetry_equiv_pos_as_xyz
  1  'x, y, z'
loop_
 _atom_site_type_symbol
 _atom_site_label
 _atom_site_symmetry_multiplicity
 _atom_site_fract_x
 _atom_site_fract_y
 _atom_site_fract_z
 _atom_site_occupancy
  Al  Al0  1  0.12091896  0.08376503  0.40549116  1
  Al  Al1  1  0.78616869  0.08655786  0.81624338  1
  Al  Al2  1  0.88484412  0.20124209  0.57593064  1
  Al  Al3  1  0.44538169  0.10074458  0.40507527  1
  Al  Al4  1  0.56084418  0.20699707  0.10771841  1
  Al  Al5  1  0.11435041  0.08818407  0.88155855  1
  Al  Al6  1  0.22128508  0.20542920  0.64472459  1
  Al  Al7  1  0.77994812  0.08898680  0.32017020  1
  Al  Al8  1  0.88096158  0.20398134  0.05321284  1
  Al  Al9  1  0.44756046  0.09530448  0.87824486  1
  Al  Al10  1  0.55159064  0.20768599  0.63971872  1
  Al  Al11  1  0.12016367  0.42991970  0.40509411  1
  Al  Al12  1  0.22220028  0.54279773  0.13897629  1
  Al  Al13  1  0.77644430  0.42834106  0.81201108  1
  Al  Al14  1  0.88571886  0.54572396  0.57660616  1
  Al  Al15  1  0.43679537  0.42306390  0.39693765  1
  Al  Al16  1  0.55939803  0.53727547  0.05366539  1
  Al  Al17  1  0.11335068  0.43125838  0.88122261  1
  Al  Al18  1  0.21863391  0.54414855  0.64280211  1
  Al  Al19  1  0.87981936  0.54952340  0.05369831  1
  Al  Al20  1  0.43866004  0.42733301  0.87792533  1
  Al  Al21  1  0.55251603  0.53948769  0.57787734  1
  Al  Al22  1  0.11797566  0.75741559  0.38583398  1
  Al  Al23  1  0.22319448  0.86755630  0.13841803  1
  Al  Al24  1  0.78015760  0.76259476  0.81444304  1
  Al  Al25  1  0.88413977  0.87526772  0.56323916  1
  Al  Al26  1  0.43353218  0.77092545  0.39642332  1
  Al  Al27  1  0.56742264  0.86336258  0.05942717  1
  Al  Al28  1  0.11535797  0.75844054  0.89418516  1
  Al  Al29  1  0.21898931  0.87055511  0.64325086  1
  Al  Al30  1  0.77634603  0.76657015  0.32052151  1
  Al  Al31  1  0.88404495  0.87412317  0.07238791  1
  Al  Al32  1  0.43766668  0.76442015  0.87490439  1
  Al  Al33  1  0.56171950  0.86951078  0.58111022  1
  Gd  Gd34  1  0.22278083  0.20514304  0.14288096  1
  Gd  Gd35  1  0.77949418  0.42687802  0.31755479  1
  N  N36  1  0.21918939  0.20744240  0.36039304  1
  N  N37  1  0.10646311  0.07476287  0.06465845  1
  N  N38  1  0.88176749  0.20815103  0.86814341  1
  N  N39  1  0.78408433  0.08612739  0.63306907  1
  N  N40  1  0.55249505  0.20694076  0.34510286  1
  N  N41  1  0.47066696  0.08576744  0.06208936  1
  N  N42  1  0.22060857  0.20609383  0.83177824  1
  N  N43  1  0.11725256  0.08962400  0.59139547  1
  N  N44  1  0.89562304  0.17876777  0.39369582  1
  N  N45  1  0.78493566  0.09359476  0.13075708  1
  N  N46  1  0.55341426  0.20844689  0.82978552  1
  N  N47  1  0.44392940  0.09681973  0.59259874  1
  N  N48  1  0.22236749  0.53643057  0.32623686  1
  N  N49  1  0.10514655  0.45303044  0.06492594  1
  N  N50  1  0.88135550  0.54362572  0.86751772  1
  N  N51  1  0.77840150  0.42702596  0.62563204  1
  N  N52  1  0.53136262  0.55029681  0.38980354  1
  N  N53  1  0.44117261  0.42713934  0.06911552  1
  N  N54  1  0.21775402  0.54553856  0.82518461  1
  N  N55  1  0.11717016  0.42624213  0.59158913  1
  N  N56  1  0.89486608  0.55959433  0.39383702  1
  N  N57  1  0.78122204  0.42591607  0.09991228  1
  N  N58  1  0.55550517  0.53775703  0.86415432  1
  N  N59  1  0.43862235  0.42486879  0.58748528  1
  N  N60  1  0.22184073  0.87541018  0.32590367  1
  N  N61  1  0.11734310  0.75771729  0.08134710  1
  N  N62  1  0.88218763  0.87451129  0.88536869  1
  N  N63  1  0.78204863  0.76391540  0.63300898  1
  N  N64  1  0.55972739  0.87201454  0.38662143  1
  N  N65  1  0.44012804  0.76355401  0.07221642  1
  N  N66  1  0.21684124  0.87005346  0.82519792  1
  N  N67  1  0.11765194  0.75791030  0.57353986  1
  N  N68  1  0.88450878  0.87426523  0.37642250  1
  N  N69  1  0.77791029  0.75874821  0.13216357  1
  N  N70  1  0.56100549  0.86677025  0.86688819  1
  N  N71  1  0.43827730  0.76696330  0.59105719  1
