# generated using pymatgen
data_GdAl17N18
_symmetry_space_group_name_H-M   'P 1'
_cell_length_a   9.48978913
_cell_length_b   9.53617015
_cell_length_c   10.46761656
_cell_angle_alpha   89.94418306
_cell_angle_beta   90.00223470
_cell_angle_gamma   59.82903729
_symmetry_Int_Tables_number   1
_chemical_formula_structural   GdAl17N18
_chemical_formula_sum   'Gd2 Al34 N36'
_cell_volume   818.95105925
_cell_formula_units_Z   2
loop_
 _symmetry_equiv_pos_site_id
 _symmetry_equiv_pos_as_xyz
  1  'x, y, z'
loop_
 _atom_site_type_symbol
 _atom_site_label
 _atom_site_symmetry_multiplicity
 _atom_site_fract_x
 _atom_site_fract_y
 _atom_site_fract_z
 _atom_site_occupancy
  Al  Al0  1  0.12139281  0.08396638  0.40637906  1
  Al  Al1  1  0.78455026  0.08735419  0.81536018  1
  Al  Al2  1  0.88441670  0.20180530  0.57725478  1
  Al  Al3  1  0.44821966  0.09424444  0.40082647  1
  Al  Al4  1  0.55658002  0.20815902  0.13896372  1
  Al  Al5  1  0.11442936  0.08841133  0.88038181  1
  Al  Al6  1  0.22187237  0.20609576  0.64381790  1
  Al  Al7  1  0.78763346  0.08519363  0.31977490  1
  Al  Al8  1  0.87922579  0.20360593  0.05212392  1
  Al  Al9  1  0.44959495  0.09603605  0.88262604  1
  Al  Al10  1  0.54948827  0.20893079  0.64200552  1
  Al  Al11  1  0.11983635  0.42995748  0.40566415  1
  Al  Al12  1  0.22092783  0.54315573  0.13850008  1
  Al  Al13  1  0.77369872  0.42930850  0.81216942  1
  Al  Al14  1  0.88380307  0.54692833  0.57633275  1
  Al  Al15  1  0.43618572  0.42344845  0.39162011  1
  Al  Al16  1  0.55954322  0.53622600  0.05559280  1
  Al  Al17  1  0.11421508  0.43014392  0.88012698  1
  Al  Al18  1  0.22114108  0.54197367  0.64227399  1
  Al  Al19  1  0.88062622  0.54839625  0.05203872  1
  Al  Al20  1  0.44018749  0.42293596  0.88510445  1
  Al  Al21  1  0.55231656  0.53876425  0.57243627  1
  Al  Al22  1  0.11910981  0.75693084  0.38711213  1
  Al  Al23  1  0.22170334  0.86858695  0.13861674  1
  Al  Al24  1  0.78322365  0.76149793  0.81567346  1
  Al  Al25  1  0.88342019  0.87474646  0.56379726  1
  Al  Al26  1  0.43673696  0.77396477  0.39437145  1
  Al  Al27  1  0.56436291  0.86686020  0.08714571  1
  Al  Al28  1  0.11719900  0.75719091  0.89297253  1
  Al  Al29  1  0.21931134  0.86977263  0.64291326  1
  Al  Al30  1  0.77761506  0.76602636  0.31994759  1
  Al  Al31  1  0.88444635  0.87569747  0.07059031  1
  Al  Al32  1  0.43807983  0.76594215  0.87840757  1
  Al  Al33  1  0.55294125  0.87463784  0.62437729  1
  Gd  Gd34  1  0.22212457  0.20432114  0.14257878  1
  Gd  Gd35  1  0.78137081  0.42670482  0.31617246  1
  N  N36  1  0.21838185  0.20838944  0.35948070  1
  N  N37  1  0.10581743  0.07500618  0.06287863  1
  N  N38  1  0.88096260  0.20826468  0.86760806  1
  N  N39  1  0.78286921  0.08642221  0.63248522  1
  N  N40  1  0.54897850  0.20798350  0.32658223  1
  N  N41  1  0.47499578  0.08556881  0.06319891  1
  N  N42  1  0.22256774  0.20535925  0.83105704  1
  N  N43  1  0.11749852  0.08972678  0.59180285  1
  N  N44  1  0.89519453  0.17999180  0.39610224  1
  N  N45  1  0.78717113  0.09226201  0.13361509  1
  N  N46  1  0.55094584  0.20961806  0.82459337  1
  N  N47  1  0.44494794  0.09710972  0.58581415  1
  N  N48  1  0.22069301  0.53717169  0.32493679  1
  N  N49  1  0.10609754  0.45137616  0.06331137  1
  N  N50  1  0.88108578  0.54318366  0.86748798  1
  N  N51  1  0.77587604  0.42829215  0.62627225  1
  N  N52  1  0.53162987  0.55095639  0.38609899  1
  N  N53  1  0.44284551  0.42373632  0.07453242  1
  N  N54  1  0.22107695  0.54301866  0.82485554  1
  N  N55  1  0.11612643  0.42684526  0.59159237  1
  N  N56  1  0.89439040  0.56009857  0.39477562  1
  N  N57  1  0.78162049  0.42567967  0.09977520  1
  N  N58  1  0.55409289  0.53760076  0.86805476  1
  N  N59  1  0.43923715  0.42167180  0.57956261  1
  N  N60  1  0.22128506  0.87572165  0.32551840  1
  N  N61  1  0.11848530  0.75728510  0.07927522  1
  N  N62  1  0.88282073  0.87505197  0.88498882  1
  N  N63  1  0.78269452  0.76354809  0.63384292  1
  N  N64  1  0.55448078  0.87551031  0.35669405  1
  N  N65  1  0.44085608  0.76572146  0.07057785  1
  N  N66  1  0.21823904  0.86941207  0.82437855  1
  N  N67  1  0.11828003  0.75683623  0.57398172  1
  N  N68  1  0.88513655  0.87339656  0.37852935  1
  N  N69  1  0.78389786  0.75591316  0.13047032  1
  N  N70  1  0.55390068  0.87282941  0.84098682  1
  N  N71  1  0.43851288  0.76787139  0.58631296  1
