# generated using pymatgen
data_GdAl17N18
_symmetry_space_group_name_H-M   'P 1'
_cell_length_a   9.52370490
_cell_length_b   9.52646470
_cell_length_c   10.13804152
_cell_angle_alpha   89.98916470
_cell_angle_beta   89.89925443
_cell_angle_gamma   59.99878417
_symmetry_Int_Tables_number   1
_chemical_formula_structural   GdAl17N18
_chemical_formula_sum   'Gd2 Al34 N36'
_cell_volume   796.55590190
_cell_formula_units_Z   2
loop_
 _symmetry_equiv_pos_site_id
 _symmetry_equiv_pos_as_xyz
  1  'x, y, z'
loop_
 _atom_site_type_symbol
 _atom_site_label
 _atom_site_symmetry_multiplicity
 _atom_site_fract_x
 _atom_site_fract_y
 _atom_site_fract_z
 _atom_site_occupancy
  Al  Al0  1  0.11087015  0.08507541  0.31759220  1
  Al  Al1  1  0.77574110  0.09343552  0.81158982  1
  Al  Al2  1  0.89027408  0.19874915  0.56768453  1
  Al  Al3  1  0.45257549  0.09037517  0.31780054  1
  Al  Al4  1  0.56156276  0.20346064  0.06316834  1
  Al  Al5  1  0.11221303  0.09239543  0.80352043  1
  Al  Al6  1  0.22242412  0.20541208  0.56087492  1
  Al  Al7  1  0.77922690  0.08955712  0.31200970  1
  Al  Al8  1  0.88674294  0.20018597  0.05330716  1
  Al  Al9  1  0.44681705  0.09319990  0.80389981  1
  Al  Al10  1  0.55670905  0.20641247  0.56161482  1
  Al  Al11  1  0.11077850  0.43745996  0.31770804  1
  Al  Al12  1  0.22057154  0.54322254  0.06471364  1
  Al  Al13  1  0.77771115  0.42774393  0.81214519  1
  Al  Al14  1  0.89021440  0.54423219  0.56773243  1
  Al  Al15  1  0.44031868  0.42927849  0.31287823  1
  Al  Al16  1  0.55274439  0.54028254  0.05350743  1
  Al  Al17  1  0.11218816  0.42863765  0.80351331  1
  Al  Al18  1  0.22435899  0.53793875  0.56407651  1
  Al  Al19  1  0.88665552  0.54650188  0.05333050  1
  Al  Al20  1  0.44349013  0.42616221  0.81199083  1
  Al  Al21  1  0.54890099  0.54216020  0.56748874  1
  Al  Al22  1  0.11100772  0.76116377  0.33688164  1
  Al  Al23  1  0.22063932  0.86961269  0.06457811  1
  Al  Al24  1  0.77572468  0.76406658  0.81159297  1
  Al  Al25  1  0.88601673  0.87360317  0.56427318  1
  Al  Al26  1  0.44031379  0.76370101  0.31283207  1
  Al  Al27  1  0.56149994  0.86836584  0.06314376  1
  Al  Al28  1  0.11007447  0.76156260  0.83395232  1
  Al  Al29  1  0.22436628  0.87095399  0.56406061  1
  Al  Al30  1  0.77917826  0.76455031  0.31201061  1
  Al  Al31  1  0.88666156  0.87334922  0.06472518  1
  Al  Al32  1  0.44352079  0.76353787  0.81194416  1
  Al  Al33  1  0.55669276  0.87012621  0.56159345  1
  Gd  Gd34  1  0.22331492  0.20519279  0.06707611  1
  Gd  Gd35  1  0.77994080  0.42667668  0.31365243  1
  N  N36  1  0.22121274  0.20607679  0.36411540  1
  N  N37  1  0.09354855  0.08088006  0.13121670  1
  N  N38  1  0.89110220  0.20170234  0.86370216  1
  N  N39  1  0.77486248  0.09350699  0.62450294  1
  N  N40  1  0.55761819  0.20783145  0.37267705  1
  N  N41  1  0.47726061  0.07803535  0.13249095  1
  N  N42  1  0.22274524  0.20524794  0.84602029  1
  N  N43  1  0.11303993  0.09237640  0.61713023  1
  N  N44  1  0.90093182  0.17543494  0.38393092  1
  N  N45  1  0.77784449  0.09584220  0.12131962  1
  N  N46  1  0.55425174  0.20502363  0.87201132  1
  N  N47  1  0.44696911  0.09311968  0.61425818  1
  N  N48  1  0.22594452  0.53701554  0.37473970  1
  N  N49  1  0.09334954  0.45917518  0.13137862  1
  N  N50  1  0.89108745  0.54044113  0.86370904  1
  N  N51  1  0.77757836  0.42779317  0.61661179  1
  N  N52  1  0.52663134  0.55333727  0.38107990  1
  N  N53  1  0.44516793  0.42732981  0.12083798  1
  N  N54  1  0.22322752  0.53463556  0.87235210  1
  N  N55  1  0.11301372  0.42781137  0.61712949  1
  N  N56  1  0.90082806  0.55699366  0.38399935  1
  N  N57  1  0.77894571  0.42718032  0.09096010  1
  N  N58  1  0.55188556  0.54066368  0.86510579  1
  N  N59  1  0.44416414  0.42549974  0.62423884  1
  N  N60  1  0.22594959  0.87037889  0.37470572  1
  N  N61  1  0.10958444  0.76193754  0.10759181  1
  N  N62  1  0.88422146  0.87450674  0.87334606  1
  N  N63  1  0.77483282  0.76485334  0.62451593  1
  N  N64  1  0.55757274  0.86788760  0.37266106  1
  N  N65  1  0.44518981  0.76078347  0.12079089  1
  N  N66  1  0.22325701  0.87532686  0.87224676  1
  N  N67  1  0.11017281  0.76151955  0.61178410  1
  N  N68  1  0.88518931  0.87405156  0.37235523  1
  N  N69  1  0.77776885  0.75970842  0.12131781  1
  N  N70  1  0.55424037  0.87396029  0.87198895  1
  N  N71  1  0.44418194  0.76351789  0.62420577  1
