# generated using pymatgen
data_GdAl17N18
_symmetry_space_group_name_H-M   'P 1'
_cell_length_a   9.55557402
_cell_length_b   9.53910750
_cell_length_c   10.27275955
_cell_angle_alpha   89.68305941
_cell_angle_beta   89.24926426
_cell_angle_gamma   59.96890691
_symmetry_Int_Tables_number   1
_chemical_formula_structural   GdAl17N18
_chemical_formula_sum   'Gd2 Al34 N36'
_cell_volume   810.60361504
_cell_formula_units_Z   2
loop_
 _symmetry_equiv_pos_site_id
 _symmetry_equiv_pos_as_xyz
  1  'x, y, z'
loop_
 _atom_site_type_symbol
 _atom_site_label
 _atom_site_symmetry_multiplicity
 _atom_site_fract_x
 _atom_site_fract_y
 _atom_site_fract_z
 _atom_site_occupancy
  Al  Al0  1  0.11765996  0.08544820  0.41446607  1
  Al  Al1  1  0.77834181  0.08691131  0.83116880  1
  Al  Al2  1  0.89279257  0.20851882  0.64919565  1
  Al  Al3  1  0.45040279  0.09173716  0.40791951  1
  Al  Al4  1  0.54999801  0.20742970  0.14668383  1
  Al  Al5  1  0.11393032  0.08700753  0.88956836  1
  Al  Al6  1  0.22732021  0.20383526  0.65282298  1
  Al  Al7  1  0.78616335  0.08460039  0.32453643  1
  Al  Al8  1  0.88298564  0.19931084  0.10249061  1
  Al  Al9  1  0.44978451  0.09035587  0.89710767  1
  Al  Al10  1  0.55186749  0.21002152  0.64851834  1
  Al  Al11  1  0.12641573  0.42724057  0.41658290  1
  Al  Al12  1  0.21712472  0.54381828  0.15006719  1
  Al  Al13  1  0.76876373  0.43126853  0.88641861  1
  Al  Al14  1  0.89007444  0.54832643  0.59093993  1
  Al  Al15  1  0.43922700  0.42949185  0.39690746  1
  Al  Al16  1  0.53951399  0.54539918  0.14236867  1
  Al  Al17  1  0.11476422  0.43011865  0.89066882  1
  Al  Al18  1  0.22521845  0.54250770  0.65156736  1
  Al  Al19  1  0.87911573  0.55239383  0.07077261  1
  Al  Al20  1  0.44166530  0.42718686  0.89859102  1
  Al  Al21  1  0.55551852  0.53987017  0.65023365  1
  Al  Al22  1  0.11792086  0.75850362  0.39713565  1
  Al  Al23  1  0.21690525  0.86914751  0.14999992  1
  Al  Al24  1  0.78116772  0.76170335  0.82725229  1
  Al  Al25  1  0.88392639  0.87829762  0.57682869  1
  Al  Al26  1  0.43901683  0.76508928  0.39724446  1
  Al  Al27  1  0.55351871  0.87065779  0.14937535  1
  Al  Al28  1  0.11799061  0.75725203  0.90121641  1
  Al  Al29  1  0.22490536  0.86650042  0.65010773  1
  Al  Al30  1  0.78738605  0.76234208  0.33137554  1
  Al  Al31  1  0.88178065  0.87248640  0.07854985  1
  Al  Al32  1  0.44207301  0.76330231  0.89826019  1
  Al  Al33  1  0.55123206  0.87343326  0.64897024  1
  Gd  Gd34  1  0.21373681  0.20532588  0.15340552  1
  Gd  Gd35  1  0.77902562  0.42738233  0.37208012  1
  N  N36  1  0.22428200  0.20523936  0.37294430  1
  N  N37  1  0.10008670  0.07377060  0.07122275  1
  N  N38  1  0.88726636  0.20693465  0.85134820  1
  N  N39  1  0.78259102  0.09058473  0.64156333  1
  N  N40  1  0.55051100  0.20854271  0.33843158  1
  N  N41  1  0.46931397  0.07956518  0.08054035  1
  N  N42  1  0.22407788  0.20377571  0.84407513  1
  N  N43  1  0.11625573  0.09042470  0.60266956  1
  N  N44  1  0.91453453  0.17177021  0.34827862  1
  N  N45  1  0.77559851  0.08833313  0.13357783  1
  N  N46  1  0.54799472  0.21032383  0.83783780  1
  N  N47  1  0.45064418  0.09228232  0.59396724  1
  N  N48  1  0.22231692  0.53763838  0.33802398  1
  N  N49  1  0.10273963  0.45229714  0.07766916  1
  N  N50  1  0.88185293  0.54536358  0.88158398  1
  N  N51  1  0.77905572  0.42971338  0.60771357  1
  N  N52  1  0.51815038  0.55767738  0.32557471  1
  N  N53  1  0.43932418  0.42646989  0.08544243  1
  N  N54  1  0.22388140  0.54183229  0.83693664  1
  N  N55  1  0.12139542  0.42573701  0.60555700  1
  N  N56  1  0.90618490  0.56081132  0.40362861  1
  N  N57  1  0.76920628  0.42918485  0.09311714  1
  N  N58  1  0.54870862  0.54165428  0.83952145  1
  N  N59  1  0.44687849  0.42883130  0.58667155  1
  N  N60  1  0.22325503  0.87450705  0.33869252  1
  N  N61  1  0.11433810  0.75818374  0.09097012  1
  N  N62  1  0.88460086  0.87201154  0.89188417  1
  N  N63  1  0.78239726  0.76550730  0.64233096  1
  N  N64  1  0.55098210  0.87463047  0.34031255  1
  N  N65  1  0.44022932  0.76563313  0.08565453  1
  N  N66  1  0.22433718  0.86638515  0.83530667  1
  N  N67  1  0.11779171  0.75848220  0.58653294  1
  N  N68  1  0.88516270  0.87632381  0.38966106  1
  N  N69  1  0.78218458  0.75725342  0.14317464  1
  N  N70  1  0.54892050  0.87321501  0.83719525  1
  N  N71  1  0.44663806  0.75993402  0.58666698  1
