# generated using pymatgen
data_GdAl17N18
_symmetry_space_group_name_H-M   'P 1'
_cell_length_a   9.50897906
_cell_length_b   9.51312191
_cell_length_c   10.12981284
_cell_angle_alpha   89.99999582
_cell_angle_beta   89.92923662
_cell_angle_gamma   59.98558579
_symmetry_Int_Tables_number   1
_chemical_formula_structural   GdAl17N18
_chemical_formula_sum   'Gd2 Al34 N36'
_cell_volume   793.46078245
_cell_formula_units_Z   2
loop_
 _symmetry_equiv_pos_site_id
 _symmetry_equiv_pos_as_xyz
  1  'x, y, z'
loop_
 _atom_site_type_symbol
 _atom_site_label
 _atom_site_symmetry_multiplicity
 _atom_site_fract_x
 _atom_site_fract_y
 _atom_site_fract_z
 _atom_site_occupancy
  Al  Al0  1  0.11319481  0.08691281  0.41207608  1
  Al  Al1  1  0.77659956  0.09321254  0.90354324  1
  Al  Al2  1  0.88734488  0.20405516  0.66134327  1
  Al  Al3  1  0.44718348  0.09308731  0.41182778  1
  Al  Al4  1  0.56073289  0.20330578  0.15210996  1
  Al  Al5  1  0.10967273  0.08914875  0.89733650  1
  Al  Al6  1  0.22207011  0.20564400  0.65298883  1
  Al  Al7  1  0.78034415  0.08802039  0.40223494  1
  Al  Al8  1  0.88912736  0.19509023  0.14738215  1
  Al  Al9  1  0.45105342  0.09115235  0.89759479  1
  Al  Al10  1  0.55711796  0.20651345  0.65298676  1
  Al  Al11  1  0.11319481  0.43325047  0.41207607  1
  Al  Al12  1  0.22034137  0.54447481  0.15291808  1
  Al  Al13  1  0.77757511  0.42789149  0.90405785  1
  Al  Al14  1  0.88734489  0.54195808  0.66134327  1
  Al  Al15  1  0.43820597  0.43002620  0.40187827  1
  Al  Al16  1  0.54744347  0.54295732  0.14708717  1
  Al  Al17  1  0.10967273  0.43453661  0.89733650  1
  Al  Al18  1  0.22301813  0.54120260  0.65326223  1
  Al  Al19  1  0.88912738  0.54914051  0.14738215  1
  Al  Al20  1  0.44310337  0.42691846  0.90320421  1
  Al  Al21  1  0.55293191  0.54021310  0.66116810  1
  Al  Al22  1  0.11062353  0.76136727  0.40141599  1
  Al  Al23  1  0.22034136  0.86854190  0.15291808  1
  Al  Al24  1  0.77659956  0.76354600  0.90354324  1
  Al  Al25  1  0.88948385  0.87193714  0.65264291  1
  Al  Al26  1  0.43820595  0.76512594  0.40187827  1
  Al  Al27  1  0.56073291  0.86931944  0.15210996  1
  Al  Al28  1  0.11152667  0.76091571  0.90354963  1
  Al  Al29  1  0.22301812  0.86913736  0.65326223  1
  Al  Al30  1  0.78034415  0.76499357  0.40223495  1
  Al  Al31  1  0.88882492  0.87226660  0.15223008  1
  Al  Al32  1  0.44310337  0.76333627  0.90320421  1
  Al  Al33  1  0.55711796  0.86972669  0.65298676  1
  Gd  Gd34  1  0.22031448  0.20652179  0.15169418  1
  Gd  Gd35  1  0.77679056  0.42828377  0.39749720  1
  N  N36  1  0.22081071  0.20627369  0.37447168  1
  N  N37  1  0.09932620  0.07646028  0.08113410  1
  N  N38  1  0.88642844  0.20477514  0.84825031  1
  N  N39  1  0.77853195  0.09441371  0.59321393  1
  N  N40  1  0.55549200  0.20548073  0.34482186  1
  N  N41  1  0.47342617  0.07996598  0.08396830  1
  N  N42  1  0.22231088  0.20552361  0.84841334  1
  N  N43  1  0.10866946  0.09299180  0.60163203  1
  N  N44  1  0.90623351  0.17341273  0.33444943  1
  N  N45  1  0.77626576  0.09209926  0.09166697  1
  N  N46  1  0.55681411  0.20707552  0.84119909  1
  N  N47  1  0.44782269  0.09276771  0.60022055  1
  N  N48  1  0.22129828  0.53857398  0.34419552  1
  N  N49  1  0.09932623  0.45757159  0.08113411  1
  N  N50  1  0.88642844  0.54215453  0.84825032  1
  N  N51  1  0.77717374  0.42809220  0.61891041  1
  N  N52  1  0.52253629  0.55541091  0.33240356  1
  N  N53  1  0.44247086  0.42531708  0.09236943  1
  N  N54  1  0.22403993  0.54116637  0.84088006  1
  N  N55  1  0.10866947  0.43169685  0.60163203  1
  N  N56  1  0.90623351  0.55371187  0.33444942  1
  N  N57  1  0.77901880  0.42716965  0.10122887  1
  N  N58  1  0.55293307  0.54021252  0.85076657  1
  N  N59  1  0.44534360  0.42845112  0.59325342  1
  N  N60  1  0.22129827  0.87348584  0.34419551  1
  N  N61  1  0.11095752  0.76120028  0.09410651  1
  N  N62  1  0.88948730  0.87193541  0.84295307  1
  N  N63  1  0.77853195  0.76041246  0.59321393  1
  N  N64  1  0.55549200  0.87238538  0.34482186  1
  N  N65  1  0.44247085  0.76557018  0.09236943  1
  N  N66  1  0.22403993  0.86815179  0.84088006  1
  N  N67  1  0.11072116  0.76131847  0.59178373  1
  N  N68  1  0.88932535  0.87201638  0.34269856  1
  N  N69  1  0.77626577  0.76499310  0.09166697  1
  N  N70  1  0.55681411  0.86946849  0.84119909  1
  N  N71  1  0.44534359  0.75956339  0.59325342  1
