# generated using pymatgen
data_GdAl17N18
_symmetry_space_group_name_H-M   'P 1'
_cell_length_a   9.51555061
_cell_length_b   9.51086836
_cell_length_c   10.26356494
_cell_angle_alpha   89.94536319
_cell_angle_beta   89.77423844
_cell_angle_gamma   60.15231054
_symmetry_Int_Tables_number   1
_chemical_formula_structural   GdAl17N18
_chemical_formula_sum   'Gd2 Al34 N36'
_cell_volume   805.64515425
_cell_formula_units_Z   2
loop_
 _symmetry_equiv_pos_site_id
 _symmetry_equiv_pos_as_xyz
  1  'x, y, z'
loop_
 _atom_site_type_symbol
 _atom_site_label
 _atom_site_symmetry_multiplicity
 _atom_site_fract_x
 _atom_site_fract_y
 _atom_site_fract_z
 _atom_site_occupancy
  Al  Al0  1  0.11377576  0.08601965  0.40723717  1
  Al  Al1  1  0.77179690  0.10199563  0.89697690  1
  Al  Al2  1  0.88807023  0.20266288  0.65717135  1
  Al  Al3  1  0.44799317  0.09179132  0.40719105  1
  Al  Al4  1  0.55795939  0.20538749  0.14554007  1
  Al  Al5  1  0.11007780  0.08997575  0.89233209  1
  Al  Al6  1  0.22312756  0.20475493  0.64738079  1
  Al  Al7  1  0.77755524  0.09337897  0.39027603  1
  Al  Al8  1  0.88913194  0.19619557  0.14103268  1
  Al  Al9  1  0.44815080  0.09306136  0.89277053  1
  Al  Al10  1  0.55784198  0.20676838  0.64797343  1
  Al  Al11  1  0.11456739  0.43093318  0.40814971  1
  Al  Al12  1  0.21980387  0.54481431  0.14802286  1
  Al  Al13  1  0.77667458  0.42914095  0.89900571  1
  Al  Al14  1  0.89345184  0.53293990  0.65777421  1
  Al  Al15  1  0.43896180  0.42920201  0.39652137  1
  Al  Al16  1  0.54699328  0.54311147  0.14241789  1
  Al  Al17  1  0.11033937  0.43370095  0.89292434  1
  Al  Al18  1  0.22446387  0.54040486  0.64849575  1
  Al  Al19  1  0.89101937  0.54221600  0.13880334  1
  Al  Al20  1  0.44238396  0.42807474  0.89820687  1
  Al  Al21  1  0.55348448  0.54004666  0.65602542  1
  Al  Al22  1  0.11942826  0.75575560  0.39616754  1
  Al  Al23  1  0.21889411  0.86956304  0.14812262  1
  Al  Al24  1  0.77903431  0.76688148  0.83097884  1
  Al  Al25  1  0.88662075  0.86927685  0.57847707  1
  Al  Al26  1  0.43879955  0.76500778  0.39660515  1
  Al  Al27  1  0.55130387  0.87407846  0.14381249  1
  Al  Al28  1  0.11908517  0.75732030  0.89716907  1
  Al  Al29  1  0.22309662  0.86891248  0.64861511  1
  Al  Al30  1  0.78303255  0.76723297  0.32338356  1
  Al  Al31  1  0.88559465  0.87078999  0.07610470  1
  Al  Al32  1  0.44261160  0.76365559  0.89851016  1
  Al  Al33  1  0.55094570  0.87299644  0.64775459  1
  Gd  Gd34  1  0.21847878  0.20829978  0.15036383  1
  Gd  Gd35  1  0.77643543  0.42729326  0.39575792  1
  N  N36  1  0.22250885  0.20451997  0.37054795  1
  N  N37  1  0.09987251  0.07741264  0.07463994  1
  N  N38  1  0.88722978  0.20589857  0.84219329  1
  N  N39  1  0.77575910  0.10113723  0.58708069  1
  N  N40  1  0.55430790  0.20557442  0.33631240  1
  N  N41  1  0.46944830  0.08283332  0.07666152  1
  N  N42  1  0.22172422  0.20640527  0.84069704  1
  N  N43  1  0.10893850  0.09232767  0.59540880  1
  N  N44  1  0.90821776  0.17351182  0.32560741  1
  N  N45  1  0.77116137  0.10049269  0.08621766  1
  N  N46  1  0.55461606  0.20873859  0.83480578  1
  N  N47  1  0.44849595  0.09327660  0.59349043  1
  N  N48  1  0.22281788  0.53588535  0.33754338  1
  N  N49  1  0.09990628  0.45728843  0.07421797  1
  N  N50  1  0.88960820  0.53705794  0.84480994  1
  N  N51  1  0.77810262  0.42709854  0.61444392  1
  N  N52  1  0.52361061  0.55500685  0.32628277  1
  N  N53  1  0.44100987  0.42683472  0.08583586  1
  N  N54  1  0.22473991  0.54014169  0.83418467  1
  N  N55  1  0.11101898  0.43021215  0.59538315  1
  N  N56  1  0.91221130  0.54166416  0.32752348  1
  N  N57  1  0.77715719  0.42775486  0.09278230  1
  N  N58  1  0.55252119  0.54098731  0.84408279  1
  N  N59  1  0.44617915  0.42804152  0.58666411  1
  N  N60  1  0.22213840  0.87320959  0.33757312  1
  N  N61  1  0.11627939  0.75858205  0.08845742  1
  N  N62  1  0.88868509  0.87196919  0.88559814  1
  N  N63  1  0.78086360  0.76175661  0.63864946  1
  N  N64  1  0.54951649  0.87547314  0.33804646  1
  N  N65  1  0.44084841  0.76501423  0.08557202  1
  N  N66  1  0.22443746  0.86919698  0.83431279  1
  N  N67  1  0.11841790  0.75704817  0.58638644  1
  N  N68  1  0.88953502  0.86785100  0.38752073  1
  N  N69  1  0.77569708  0.76778612  0.13346336  1
  N  N70  1  0.54866642  0.87438318  0.83650495  1
  N  N71  1  0.44568340  0.75903347  0.58650044  1
