# generated using pymatgen
data_GdAl17N18
_symmetry_space_group_name_H-M   'P 1'
_cell_length_a   9.49038549
_cell_length_b   9.54064199
_cell_length_c   10.46741317
_cell_angle_alpha   90.05898787
_cell_angle_beta   90.06061502
_cell_angle_gamma   59.83128675
_symmetry_Int_Tables_number   1
_chemical_formula_structural   GdAl17N18
_chemical_formula_sum   'Gd2 Al34 N36'
_cell_volume   819.38930939
_cell_formula_units_Z   2
loop_
 _symmetry_equiv_pos_site_id
 _symmetry_equiv_pos_as_xyz
  1  'x, y, z'
loop_
 _atom_site_type_symbol
 _atom_site_label
 _atom_site_symmetry_multiplicity
 _atom_site_fract_x
 _atom_site_fract_y
 _atom_site_fract_z
 _atom_site_occupancy
  Al  Al0  1  0.12065695  0.08285164  0.40647016  1
  Al  Al1  1  0.78066842  0.08912123  0.81542571  1
  Al  Al2  1  0.88544588  0.20283066  0.57808650  1
  Al  Al3  1  0.44056716  0.09583288  0.40269429  1
  Al  Al4  1  0.56390448  0.20923860  0.06439039  1
  Al  Al5  1  0.11540448  0.08630086  0.88131212  1
  Al  Al6  1  0.22609919  0.20314204  0.64629846  1
  Al  Al7  1  0.77785999  0.09039289  0.32016812  1
  Al  Al8  1  0.87848176  0.20545122  0.05218020  1
  Al  Al9  1  0.44746111  0.09085804  0.88586875  1
  Al  Al10  1  0.56218803  0.20297152  0.58039234  1
  Al  Al11  1  0.11942900  0.42915329  0.40640268  1
  Al  Al12  1  0.22291744  0.54338574  0.13878544  1
  Al  Al13  1  0.77802745  0.42794290  0.81443726  1
  Al  Al14  1  0.88582622  0.54444069  0.57842177  1
  Al  Al15  1  0.43362899  0.43222424  0.38595481  1
  Al  Al16  1  0.55251106  0.54365067  0.05771634  1
  Al  Al17  1  0.11577505  0.43070446  0.88209700  1
  Al  Al18  1  0.21808833  0.54396449  0.64289917  1
  Al  Al19  1  0.88010741  0.54992102  0.05298803  1
  Al  Al20  1  0.44412394  0.42914369  0.85155999  1
  Al  Al21  1  0.55075396  0.54638385  0.57562923  1
  Al  Al22  1  0.11561976  0.76000131  0.38780063  1
  Al  Al23  1  0.21209187  0.87298013  0.13886884  1
  Al  Al24  1  0.77866622  0.76319868  0.81625194  1
  Al  Al25  1  0.88286716  0.87427059  0.56551314  1
  Al  Al26  1  0.44344618  0.76481298  0.31951160  1
  Al  Al27  1  0.56369063  0.85974182  0.06693444  1
  Al  Al28  1  0.11613761  0.75860126  0.89471224  1
  Al  Al29  1  0.21520468  0.87195278  0.64311602  1
  Al  Al30  1  0.77891667  0.76418210  0.32018412  1
  Al  Al31  1  0.88088738  0.87595558  0.07155741  1
  Al  Al32  1  0.45032634  0.75869290  0.81631280  1
  Al  Al33  1  0.55963640  0.86323266  0.57329698  1
  Gd  Gd34  1  0.21833727  0.20823403  0.14250251  1
  Gd  Gd35  1  0.77799284  0.42628897  0.31623736  1
  N  N36  1  0.21816887  0.20735235  0.35884847  1
  N  N37  1  0.10462137  0.07530317  0.06249461  1
  N  N38  1  0.88224958  0.20736055  0.86682087  1
  N  N39  1  0.78183149  0.08759646  0.63418487  1
  N  N40  1  0.55945756  0.20566044  0.38695240  1
  N  N41  1  0.46807225  0.08258185  0.07242589  1
  N  N42  1  0.22388659  0.20423078  0.83233978  1
  N  N43  1  0.11888040  0.08928542  0.59106200  1
  N  N44  1  0.89410824  0.18065108  0.39575974  1
  N  N45  1  0.77864450  0.09713828  0.13301810  1
  N  N46  1  0.56175759  0.20519813  0.87122903  1
  N  N47  1  0.44569009  0.09155267  0.59060454  1
  N  N48  1  0.21791701  0.53895725  0.32777012  1
  N  N49  1  0.10549249  0.45461965  0.06378484  1
  N  N50  1  0.88369477  0.54304464  0.86699251  1
  N  N51  1  0.77732603  0.42793882  0.62748406  1
  N  N52  1  0.52584497  0.56121650  0.39433770  1
  N  N53  1  0.44312058  0.43118372  0.09028541  1
  N  N54  1  0.21779456  0.54597394  0.82441548  1
  N  N55  1  0.11870609  0.42443077  0.59129957  1
  N  N56  1  0.89400313  0.55760133  0.39524978  1
  N  N57  1  0.78141558  0.42688605  0.09921512  1
  N  N58  1  0.55561131  0.54273697  0.87218686  1
  N  N59  1  0.44335224  0.42780548  0.60476595  1
  N  N60  1  0.21274013  0.87953503  0.32491163  1
  N  N61  1  0.11475154  0.75853912  0.08007214  1
  N  N62  1  0.88159596  0.87514081  0.88458345  1
  N  N63  1  0.77873586  0.76419091  0.63371033  1
  N  N64  1  0.55702243  0.86673331  0.38397500  1
  N  N65  1  0.45073662  0.75728508  0.13184393  1
  N  N66  1  0.21696795  0.86935209  0.82611469  1
  N  N67  1  0.11705761  0.75781363  0.57370233  1
  N  N68  1  0.88165938  0.87560899  0.37917872  1
  N  N69  1  0.77912897  0.75797729  0.13360239  1
  N  N70  1  0.56061988  0.86094205  0.87902890  1
  N  N71  1  0.44880948  0.76083540  0.63396046  1
