# generated using pymatgen
data_GdAl17N18
_symmetry_space_group_name_H-M   'P 1'
_cell_length_a   9.49028982
_cell_length_b   9.54248358
_cell_length_c   10.46888782
_cell_angle_alpha   90.06017470
_cell_angle_beta   90.05739602
_cell_angle_gamma   59.83008134
_symmetry_Int_Tables_number   1
_chemical_formula_structural   GdAl17N18
_chemical_formula_sum   'Gd2 Al34 N36'
_cell_volume   819.64466365
_cell_formula_units_Z   2
loop_
 _symmetry_equiv_pos_site_id
 _symmetry_equiv_pos_as_xyz
  1  'x, y, z'
loop_
 _atom_site_type_symbol
 _atom_site_label
 _atom_site_symmetry_multiplicity
 _atom_site_fract_x
 _atom_site_fract_y
 _atom_site_fract_z
 _atom_site_occupancy
  Al  Al0  1  0.12068655  0.08280826  0.40649678  1
  Al  Al1  1  0.78050407  0.08927902  0.81533095  1
  Al  Al2  1  0.88544429  0.20278374  0.57803160  1
  Al  Al3  1  0.44070945  0.09585517  0.40252179  1
  Al  Al4  1  0.56455443  0.20802702  0.06446564  1
  Al  Al5  1  0.11537281  0.08631059  0.88126674  1
  Al  Al6  1  0.22606679  0.20318315  0.64623822  1
  Al  Al7  1  0.77774106  0.09037085  0.32033489  1
  Al  Al8  1  0.87850285  0.20545938  0.05212220  1
  Al  Al9  1  0.44741903  0.09078856  0.88567041  1
  Al  Al10  1  0.56225259  0.20265232  0.58043152  1
  Al  Al11  1  0.11964295  0.42919225  0.40634636  1
  Al  Al12  1  0.22288353  0.54340782  0.13882676  1
  Al  Al13  1  0.77782680  0.42794854  0.81427797  1
  Al  Al14  1  0.88593943  0.54445199  0.57841086  1
  Al  Al15  1  0.43303609  0.43254689  0.39125706  1
  Al  Al16  1  0.55322907  0.54446171  0.05770176  1
  Al  Al17  1  0.11562826  0.43069281  0.88189417  1
  Al  Al18  1  0.21906257  0.54342710  0.64307476  1
  Al  Al19  1  0.88015788  0.54995702  0.05297635  1
  Al  Al20  1  0.44241660  0.43004215  0.86187077  1
  Al  Al21  1  0.55086310  0.54662361  0.57535333  1
  Al  Al22  1  0.11581455  0.75980402  0.38771639  1
  Al  Al23  1  0.21199215  0.87306102  0.13891059  1
  Al  Al24  1  0.77861700  0.76321323  0.81621268  1
  Al  Al25  1  0.88298419  0.87416734  0.56546818  1
  Al  Al26  1  0.44354658  0.76481550  0.31949669  1
  Al  Al27  1  0.56369169  0.85977410  0.06687649  1
  Al  Al28  1  0.11595807  0.75876664  0.89453045  1
  Al  Al29  1  0.21515123  0.87193135  0.64306856  1
  Al  Al30  1  0.77892202  0.76419936  0.32024389  1
  Al  Al31  1  0.88097456  0.87586243  0.07154564  1
  Al  Al32  1  0.45031801  0.75864685  0.81619495  1
  Al  Al33  1  0.55961180  0.86325044  0.57319534  1
  Gd  Gd34  1  0.21816213  0.20827945  0.14258002  1
  Gd  Gd35  1  0.77827461  0.42614303  0.31646425  1
  N  N36  1  0.21812343  0.20735620  0.35885945  1
  N  N37  1  0.10459143  0.07530949  0.06248003  1
  N  N38  1  0.88217864  0.20741992  0.86685775  1
  N  N39  1  0.78185404  0.08758053  0.63416778  1
  N  N40  1  0.55960734  0.20528577  0.38629395  1
  N  N41  1  0.46789884  0.08253691  0.07247271  1
  N  N42  1  0.22381332  0.20422297  0.83233131  1
  N  N43  1  0.11887792  0.08926695  0.59108949  1
  N  N44  1  0.89416735  0.18049190  0.39580755  1
  N  N45  1  0.77870938  0.09717590  0.13305023  1
  N  N46  1  0.56180216  0.20484107  0.87093502  1
  N  N47  1  0.44565959  0.09147195  0.59060236  1
  N  N48  1  0.21891762  0.53849055  0.32736629  1
  N  N49  1  0.10553976  0.45459817  0.06371249  1
  N  N50  1  0.88361884  0.54304370  0.86700335  1
  N  N51  1  0.77727636  0.42792254  0.62742682  1
  N  N52  1  0.52630990  0.56137741  0.39366837  1
  N  N53  1  0.44190242  0.43177746  0.08407581  1
  N  N54  1  0.21833711  0.54569425  0.82440474  1
  N  N55  1  0.11873375  0.42449039  0.59140635  1
  N  N56  1  0.89420126  0.55765586  0.39526201  1
  N  N57  1  0.78141419  0.42686850  0.09938666  1
  N  N58  1  0.55580901  0.54300559  0.87212142  1
  N  N59  1  0.44205344  0.42827313  0.59862924  1
  N  N60  1  0.21276605  0.87955933  0.32485508  1
  N  N61  1  0.11480583  0.75850718  0.08000842  1
  N  N62  1  0.88154630  0.87517889  0.88457581  1
  N  N63  1  0.77870434  0.76420289  0.63370523  1
  N  N64  1  0.55703297  0.86678114  0.38393584  1
  N  N65  1  0.45064784  0.75741959  0.13181178  1
  N  N66  1  0.21692283  0.86939230  0.82609001  1
  N  N67  1  0.11712646  0.75765982  0.57374740  1
  N  N68  1  0.88185222  0.87546177  0.37911513  1
  N  N69  1  0.77911501  0.75799351  0.13357333  1
  N  N70  1  0.56056738  0.86095987  0.87903710  1
  N  N71  1  0.44877727  0.76085427  0.63391920  1
