# generated using pymatgen
data_GdAl17N18
_symmetry_space_group_name_H-M   'P 1'
_cell_length_a   9.53567167
_cell_length_b   9.53253239
_cell_length_c   10.29962504
_cell_angle_alpha   89.82991606
_cell_angle_beta   89.33814014
_cell_angle_gamma   59.99351730
_symmetry_Int_Tables_number   1
_chemical_formula_structural   GdAl17N18
_chemical_formula_sum   'Gd2 Al34 N36'
_cell_volume   810.68472508
_cell_formula_units_Z   2
loop_
 _symmetry_equiv_pos_site_id
 _symmetry_equiv_pos_as_xyz
  1  'x, y, z'
loop_
 _atom_site_type_symbol
 _atom_site_label
 _atom_site_symmetry_multiplicity
 _atom_site_fract_x
 _atom_site_fract_y
 _atom_site_fract_z
 _atom_site_occupancy
  Al  Al0  1  0.12455253  0.08117612  0.41753758  1
  Al  Al1  1  0.78056106  0.08897564  0.82806346  1
  Al  Al2  1  0.88809937  0.20139695  0.59226651  1
  Al  Al3  1  0.44960860  0.09223493  0.40799044  1
  Al  Al4  1  0.55335745  0.20699422  0.14854449  1
  Al  Al5  1  0.11449723  0.08667765  0.89018091  1
  Al  Al6  1  0.22613495  0.20420298  0.65511921  1
  Al  Al7  1  0.78685109  0.08596936  0.32975091  1
  Al  Al8  1  0.87628105  0.20337091  0.06798469  1
  Al  Al9  1  0.45126156  0.09039314  0.89730230  1
  Al  Al10  1  0.55066207  0.21003103  0.64942623  1
  Al  Al11  1  0.12565669  0.42785403  0.41731773  1
  Al  Al12  1  0.21691805  0.54412661  0.15007142  1
  Al  Al13  1  0.77308779  0.43043347  0.85414436  1
  Al  Al14  1  0.88837286  0.54694667  0.59039331  1
  Al  Al15  1  0.44009671  0.42925112  0.39797142  1
  Al  Al16  1  0.54007318  0.54576435  0.14215731  1
  Al  Al17  1  0.11471962  0.43093016  0.89140206  1
  Al  Al18  1  0.22476351  0.54244585  0.65200768  1
  Al  Al19  1  0.87675462  0.55168998  0.06913631  1
  Al  Al20  1  0.44236358  0.42719872  0.89875293  1
  Al  Al21  1  0.55354921  0.54052454  0.64815979  1
  Al  Al22  1  0.11782991  0.75814420  0.39770980  1
  Al  Al23  1  0.21673875  0.87019412  0.14953411  1
  Al  Al24  1  0.78097478  0.76310034  0.82762512  1
  Al  Al25  1  0.88395099  0.87621669  0.57711991  1
  Al  Al26  1  0.43959279  0.76466517  0.39797220  1
  Al  Al27  1  0.55419612  0.87070408  0.14926721  1
  Al  Al28  1  0.11729391  0.75754746  0.90215132  1
  Al  Al29  1  0.22478118  0.86679934  0.65181986  1
  Al  Al30  1  0.78687047  0.76246832  0.33117367  1
  Al  Al31  1  0.88174607  0.87469412  0.08064007  1
  Al  Al32  1  0.44245736  0.76301266  0.89872801  1
  Al  Al33  1  0.55064726  0.87367687  0.64919964  1
  Gd  Gd34  1  0.21643847  0.20606011  0.15076577  1
  Gd  Gd35  1  0.78769180  0.42434766  0.34666806  1
  N  N36  1  0.22140478  0.20630740  0.37062855  1
  N  N37  1  0.10065257  0.07522173  0.07525866  1
  N  N38  1  0.88108324  0.20652503  0.87940229  1
  N  N39  1  0.78226655  0.08875101  0.64334146  1
  N  N40  1  0.54989032  0.20859437  0.33925852  1
  N  N41  1  0.47364215  0.07878702  0.08003854  1
  N  N42  1  0.22377416  0.20445488  0.84563101  1
  N  N43  1  0.12072685  0.08823943  0.60549328  1
  N  N44  1  0.90237496  0.17198160  0.40472924  1
  N  N45  1  0.78202085  0.09134386  0.14163115  1
  N  N46  1  0.54813617  0.21073820  0.83735142  1
  N  N47  1  0.44951455  0.09261137  0.59362459  1
  N  N48  1  0.22226580  0.53742969  0.33808196  1
  N  N49  1  0.10156628  0.45384665  0.07707266  1
  N  N50  1  0.88118868  0.54570687  0.88128995  1
  N  N51  1  0.78032727  0.42819646  0.62101751  1
  N  N52  1  0.52080973  0.55662128  0.32834248  1
  N  N53  1  0.44043674  0.42601250  0.08582786  1
  N  N54  1  0.22360485  0.54225075  0.83699075  1
  N  N55  1  0.12111510  0.42546395  0.60529028  1
  N  N56  1  0.90343800  0.56086864  0.40550525  1
  N  N57  1  0.77268114  0.42925805  0.10961920  1
  N  N58  1  0.54666670  0.54314456  0.83840813  1
  N  N59  1  0.44644796  0.42824955  0.58660198  1
  N  N60  1  0.22177811  0.87513829  0.33774425  1
  N  N61  1  0.11485803  0.75815401  0.09120064  1
  N  N62  1  0.88318183  0.87452210  0.89345225  1
  N  N63  1  0.78232670  0.76454042  0.64298565  1
  N  N64  1  0.54997533  0.87536574  0.33999475  1
  N  N65  1  0.44067337  0.76557882  0.08589916  1
  N  N66  1  0.22385966  0.86647531  0.83657526  1
  N  N67  1  0.11800759  0.75829540  0.58665691  1
  N  N68  1  0.88525584  0.87514352  0.38981790  1
  N  N69  1  0.78292991  0.75730716  0.14338057  1
  N  N70  1  0.54843906  0.87360656  0.83702029  1
  N  N71  1  0.44616982  0.76009555  0.58645754  1
