# generated using pymatgen
data_GdAl17N18
_symmetry_space_group_name_H-M   'P 1'
_cell_length_a   9.48468564
_cell_length_b   9.52593381
_cell_length_c   10.47202573
_cell_angle_alpha   90.04679882
_cell_angle_beta   90.03231506
_cell_angle_gamma   59.83615442
_symmetry_Int_Tables_number   1
_chemical_formula_structural   GdAl17N18
_chemical_formula_sum   'Gd2 Al34 N36'
_cell_volume   818.03575046
_cell_formula_units_Z   2
loop_
 _symmetry_equiv_pos_site_id
 _symmetry_equiv_pos_as_xyz
  1  'x, y, z'
loop_
 _atom_site_type_symbol
 _atom_site_label
 _atom_site_symmetry_multiplicity
 _atom_site_fract_x
 _atom_site_fract_y
 _atom_site_fract_z
 _atom_site_occupancy
  Al  Al0  1  0.12069324  0.08294733  0.40659683  1
  Al  Al1  1  0.77980496  0.08978562  0.81609421  1
  Al  Al2  1  0.88534801  0.20302161  0.57846197  1
  Al  Al3  1  0.44032578  0.09623297  0.40323543  1
  Al  Al4  1  0.56293453  0.21147508  0.06508414  1
  Al  Al5  1  0.11557601  0.08629475  0.88129033  1
  Al  Al6  1  0.22647718  0.20295104  0.64649455  1
  Al  Al7  1  0.77840540  0.09028015  0.32032065  1
  Al  Al8  1  0.87867890  0.20521302  0.05223840  1
  Al  Al9  1  0.44758764  0.09187310  0.88669640  1
  Al  Al10  1  0.56061063  0.20710527  0.57821064  1
  Al  Al11  1  0.11977095  0.42922290  0.40681037  1
  Al  Al12  1  0.21812220  0.54568032  0.13922383  1
  Al  Al13  1  0.77739334  0.42822714  0.81526023  1
  Al  Al14  1  0.88544242  0.54435789  0.57859378  1
  Al  Al15  1  0.44040813  0.42888840  0.33992494  1
  Al  Al16  1  0.55128572  0.54157924  0.05899059  1
  Al  Al17  1  0.11636339  0.43090055  0.88195081  1
  Al  Al18  1  0.21587554  0.54530985  0.64302719  1
  Al  Al19  1  0.87985099  0.54974200  0.05270614  1
  Al  Al20  1  0.44985651  0.42614047  0.81940134  1
  Al  Al21  1  0.54873193  0.54417319  0.57481843  1
  Al  Al22  1  0.11583560  0.75965030  0.38843675  1
  Al  Al23  1  0.21239990  0.87288990  0.13902144  1
  Al  Al24  1  0.77869914  0.76323325  0.81633199  1
  Al  Al25  1  0.88229749  0.87485140  0.56581743  1
  Al  Al26  1  0.44325427  0.76433419  0.32032306  1
  Al  Al27  1  0.56367631  0.85958203  0.06708366  1
  Al  Al28  1  0.11667478  0.75795009  0.89441462  1
  Al  Al29  1  0.21560013  0.87187659  0.64338382  1
  Al  Al30  1  0.77900427  0.76415861  0.32027435  1
  Al  Al31  1  0.88052730  0.87633782  0.07126039  1
  Al  Al32  1  0.45043579  0.75780441  0.81707764  1
  Al  Al33  1  0.55971213  0.86313712  0.57375296  1
  Gd  Gd34  1  0.21835881  0.20789153  0.14271192  1
  Gd  Gd35  1  0.77794979  0.42691175  0.31644318  1
  N  N36  1  0.21833913  0.20736294  0.35882146  1
  N  N37  1  0.10482765  0.07510200  0.06241887  1
  N  N38  1  0.88251493  0.20723365  0.86691149  1
  N  N39  1  0.78065741  0.08838826  0.63439757  1
  N  N40  1  0.55794353  0.20888597  0.38797603  1
  N  N41  1  0.46821796  0.08290334  0.07292402  1
  N  N42  1  0.22424244  0.20417400  0.83230387  1
  N  N43  1  0.11901917  0.08929740  0.59099014  1
  N  N44  1  0.89413488  0.18105621  0.39588546  1
  N  N45  1  0.77872114  0.09697990  0.13333021  1
  N  N46  1  0.56037064  0.20937289  0.87539717  1
  N  N47  1  0.44613069  0.09230190  0.59040394  1
  N  N48  1  0.21331883  0.54112822  0.32737491  1
  N  N49  1  0.10571985  0.45414636  0.06333554  1
  N  N50  1  0.88356497  0.54299405  0.86713052  1
  N  N51  1  0.77673393  0.42826308  0.62769858  1
  N  N52  1  0.52313355  0.55861174  0.39502623  1
  N  N53  1  0.44946108  0.42786541  0.12355583  1
  N  N54  1  0.21717637  0.54632561  0.82543296  1
  N  N55  1  0.11902918  0.42430535  0.59104842  1
  N  N56  1  0.89375385  0.55749572  0.39564290  1
  N  N57  1  0.78152177  0.42661991  0.09932514  1
  N  N58  1  0.55333508  0.54103227  0.87510010  1
  N  N59  1  0.44910043  0.42552200  0.63080017  1
  N  N60  1  0.21256944  0.87950218  0.32497960  1
  N  N61  1  0.11499129  0.75872785  0.07948322  1
  N  N62  1  0.88130428  0.87546938  0.88471084  1
  N  N63  1  0.77884225  0.76415569  0.63394564  1
  N  N64  1  0.55698152  0.86647820  0.38427450  1
  N  N65  1  0.45100272  0.75661477  0.13232401  1
  N  N66  1  0.21703084  0.86941651  0.82606772  1
  N  N67  1  0.11711353  0.75801189  0.57366456  1
  N  N68  1  0.88125125  0.87596683  0.37967441  1
  N  N69  1  0.77935034  0.75778372  0.13376321  1
  N  N70  1  0.56047935  0.86112300  0.87919124  1
  N  N71  1  0.44936603  0.75968335  0.63411560  1
