# generated using pymatgen
data_GdAl17N18
_symmetry_space_group_name_H-M   'P 1'
_cell_length_a   9.50897633
_cell_length_b   9.51311794
_cell_length_c   10.12980585
_cell_angle_alpha   89.99995227
_cell_angle_beta   89.92909822
_cell_angle_gamma   59.98566331
_symmetry_Int_Tables_number   1
_chemical_formula_structural   GdAl17N18
_chemical_formula_sum   'Gd2 Al34 N36'
_cell_volume   793.46029421
_cell_formula_units_Z   2
loop_
 _symmetry_equiv_pos_site_id
 _symmetry_equiv_pos_as_xyz
  1  'x, y, z'
loop_
 _atom_site_type_symbol
 _atom_site_label
 _atom_site_symmetry_multiplicity
 _atom_site_fract_x
 _atom_site_fract_y
 _atom_site_fract_z
 _atom_site_occupancy
  Al  Al0  1  0.11072890  0.08425859  0.31615489  1
  Al  Al1  1  0.77683674  0.09219655  0.81027201  1
  Al  Al2  1  0.89018274  0.19886205  0.56619845  1
  Al  Al3  1  0.45241251  0.09044151  0.31644749  1
  Al  Al4  1  0.56164940  0.20337303  0.06165614  1
  Al  Al5  1  0.11251011  0.09144114  0.80219124  1
  Al  Al6  1  0.22228080  0.20550727  0.55947893  1
  Al  Al7  1  0.77951479  0.08892412  0.31061566  1
  Al  Al8  1  0.88666094  0.20014899  0.05145911  1
  Al  Al9  1  0.44692322  0.09318595  0.80236566  1
  Al  Al10  1  0.55675226  0.20648050  0.56032888  1
  Al  Al11  1  0.11072852  0.43830843  0.31615514  1
  Al  Al12  1  0.21951049  0.54537892  0.06130054  1
  Al  Al13  1  0.77778517  0.42775494  0.81054555  1
  Al  Al14  1  0.89018249  0.54425055  0.56619854  1
  Al  Al15  1  0.43912306  0.43009348  0.31142428  1
  Al  Al16  1  0.55267189  0.54031172  0.05170618  1
  Al  Al17  1  0.11250998  0.42934398  0.80219115  1
  Al  Al18  1  0.22325604  0.54018659  0.55999134  1
  Al  Al19  1  0.88666057  0.54648594  0.05145915  1
  Al  Al20  1  0.44273679  0.42688541  0.81054757  1
  Al  Al21  1  0.54880184  0.54224666  0.56594151  1
  Al  Al22  1  0.11103080  0.76113242  0.31130551  1
  Al  Al23  1  0.21951079  0.86840632  0.06130035  1
  Al  Al24  1  0.77683667  0.76426194  0.81027200  1
  Al  Al25  1  0.88832856  0.87248333  0.55998471  1
  Al  Al26  1  0.43912313  0.76407884  0.31142422  1
  Al  Al27  1  0.56164917  0.86827319  0.06165606  1
  Al  Al28  1  0.11037067  0.76146223  0.81089272  1
  Al  Al29  1  0.22325609  0.86985264  0.55999130  1
  Al  Al30  1  0.77951457  0.76485670  0.31061566  1
  Al  Al31  1  0.88923148  0.87203206  0.06212021  1
  Al  Al32  1  0.44273685  0.76367283  0.81054747  1
  Al  Al33  1  0.55675218  0.87006253  0.56032886  1
  Gd  Gd34  1  0.22306496  0.20511594  0.06603915  1
  Gd  Gd35  1  0.77954137  0.42687697  0.31184258  1
  N  N36  1  0.22083764  0.20622913  0.36230831  1
  N  N37  1  0.09362189  0.07968784  0.12908759  1
  N  N38  1  0.89118556  0.20170235  0.86190342  1
  N  N39  1  0.77581504  0.09223263  0.62265465  1
  N  N40  1  0.55738522  0.20808196  0.37116466  1
  N  N41  1  0.47731939  0.07798795  0.13113161  1
  N  N42  1  0.22268132  0.20530701  0.84462534  1
  N  N43  1  0.11342689  0.09124422  0.61528470  1
  N  N44  1  0.90052969  0.17582678  0.38240156  1
  N  N45  1  0.77855696  0.09482554  0.11933962  1
  N  N46  1  0.55451126  0.20494805  0.87028143  1
  N  N47  1  0.44692282  0.09318612  0.61276783  1
  N  N48  1  0.22359038  0.54129972  0.37186867  1
  N  N49  1  0.09362115  0.45998667  0.12908800  1
  N  N50  1  0.89118547  0.54040743  0.86190342  1
  N  N51  1  0.77754459  0.42787513  0.61512224  1
  N  N52  1  0.52642949  0.55343300  0.37956807  1
  N  N53  1  0.44436296  0.42791856  0.11871330  1
  N  N54  1  0.22132281  0.53898528  0.87032180  1
  N  N55  1  0.11342673  0.42862401  0.61528466  1
  N  N56  1  0.90052930  0.55693927  0.38240171  1
  N  N57  1  0.77904398  0.42712563  0.08906495  1
  N  N58  1  0.55203232  0.54063142  0.86331390  1
  N  N59  1  0.44304108  0.42632299  0.62233587  1
  N  N60  1  0.22359044  0.86840557  0.37186859  1
  N  N61  1  0.11052968  0.76138305  0.12083746  1
  N  N62  1  0.88913318  0.87208105  0.87175229  1
  N  N63  1  0.77581495  0.76524740  0.62265467  1
  N  N64  1  0.55738506  0.86782853  0.37116468  1
  N  N65  1  0.44436315  0.76101351  0.11871326  1
  N  N66  1  0.22132290  0.87298705  0.87032165  1
  N  N67  1  0.11036774  0.76146364  0.62058255  1
  N  N68  1  0.88889783  0.87219884  0.36942860  1
  N  N69  1  0.77855670  0.75991309  0.11933962  1
  N  N70  1  0.55451122  0.87383596  0.87028135  1
  N  N71  1  0.44304114  0.76393081  0.62233581  1
