# generated using pymatgen
data_GdAl17N18
_symmetry_space_group_name_H-M   'P 1'
_cell_length_a   9.55303947
_cell_length_b   9.54135520
_cell_length_c   10.27143742
_cell_angle_alpha   89.74121696
_cell_angle_beta   89.26079186
_cell_angle_gamma   59.98321773
_symmetry_Int_Tables_number   1
_chemical_formula_structural   GdAl17N18
_chemical_formula_sum   'Gd2 Al34 N36'
_cell_volume   810.59289140
_cell_formula_units_Z   2
loop_
 _symmetry_equiv_pos_site_id
 _symmetry_equiv_pos_as_xyz
  1  'x, y, z'
loop_
 _atom_site_type_symbol
 _atom_site_label
 _atom_site_symmetry_multiplicity
 _atom_site_fract_x
 _atom_site_fract_y
 _atom_site_fract_z
 _atom_site_occupancy
  Al  Al0  1  0.12188510  0.08276827  0.41670062  1
  Al  Al1  1  0.77925716  0.08787023  0.82963787  1
  Al  Al2  1  0.89073733  0.20480711  0.61445972  1
  Al  Al3  1  0.45042371  0.09179800  0.40776436  1
  Al  Al4  1  0.55153508  0.20715696  0.14759246  1
  Al  Al5  1  0.11541926  0.08622359  0.88917399  1
  Al  Al6  1  0.22735877  0.20416961  0.65405499  1
  Al  Al7  1  0.78720492  0.08564110  0.32676848  1
  Al  Al8  1  0.87832740  0.20016979  0.07203970  1
  Al  Al9  1  0.45044619  0.09033051  0.89730910  1
  Al  Al10  1  0.55112389  0.21028618  0.64894320  1
  Al  Al11  1  0.12634048  0.42742578  0.41694642  1
  Al  Al12  1  0.21711286  0.54381152  0.15013614  1
  Al  Al13  1  0.76857703  0.43311367  0.87859312  1
  Al  Al14  1  0.88940987  0.54800244  0.59058280  1
  Al  Al15  1  0.43970576  0.42918475  0.39724815  1
  Al  Al16  1  0.53937562  0.54568671  0.14222037  1
  Al  Al17  1  0.11479135  0.43047141  0.89086198  1
  Al  Al18  1  0.22507174  0.54255188  0.65161477  1
  Al  Al19  1  0.87848037  0.55247550  0.07035214  1
  Al  Al20  1  0.44170844  0.42718063  0.89857293  1
  Al  Al21  1  0.55528762  0.53997730  0.64927588  1
  Al  Al22  1  0.11765433  0.75860746  0.39708261  1
  Al  Al23  1  0.21678941  0.86961232  0.14980243  1
  Al  Al24  1  0.78106219  0.76245893  0.82736814  1
  Al  Al25  1  0.88404959  0.87734658  0.57649241  1
  Al  Al26  1  0.43925851  0.76472915  0.39739786  1
  Al  Al27  1  0.55367105  0.87067756  0.14935703  1
  Al  Al28  1  0.11765779  0.75727033  0.90166261  1
  Al  Al29  1  0.22542045  0.86597310  0.65100208  1
  Al  Al30  1  0.78721820  0.76231327  0.33136364  1
  Al  Al31  1  0.88183943  0.87335810  0.07972604  1
  Al  Al32  1  0.44205567  0.76336293  0.89852540  1
  Al  Al33  1  0.55108067  0.87347084  0.64891119  1
  Gd  Gd34  1  0.21451359  0.20554465  0.15234976  1
  Gd  Gd35  1  0.78284456  0.42662222  0.36036644  1
  N  N36  1  0.22332343  0.20540819  0.37232088  1
  N  N37  1  0.10065546  0.07404551  0.07345155  1
  N  N38  1  0.88328844  0.20614551  0.87145076  1
  N  N39  1  0.78254653  0.08953930  0.64312155  1
  N  N40  1  0.55035702  0.20838741  0.33861768  1
  N  N41  1  0.47096986  0.07930640  0.08057298  1
  N  N42  1  0.22417936  0.20413515  0.84492679  1
  N  N43  1  0.11996843  0.08880384  0.60568466  1
  N  N44  1  0.90726780  0.17097655  0.38693626  1
  N  N45  1  0.77915272  0.09019551  0.13720791  1
  N  N46  1  0.54797871  0.21045509  0.83771944  1
  N  N47  1  0.45049059  0.09238892  0.59387016  1
  N  N48  1  0.22241959  0.53748490  0.33815527  1
  N  N49  1  0.10226039  0.45289228  0.07754970  1
  N  N50  1  0.88182140  0.54581678  0.88127511  1
  N  N51  1  0.77864579  0.43067588  0.61031666  1
  N  N52  1  0.51869658  0.55730029  0.32662427  1
  N  N53  1  0.43976976  0.42618124  0.08554777  1
  N  N54  1  0.22376089  0.54202382  0.83699587  1
  N  N55  1  0.12137351  0.42562404  0.60570886  1
  N  N56  1  0.90584268  0.56096233  0.40430716  1
  N  N57  1  0.76983357  0.42994152  0.09792467  1
  N  N58  1  0.54756727  0.54251641  0.83909825  1
  N  N59  1  0.44676546  0.42862291  0.58680113  1
  N  N60  1  0.22276421  0.87486013  0.33816509  1
  N  N61  1  0.11453726  0.75805536  0.09123325  1
  N  N62  1  0.88401624  0.87305295  0.89255333  1
  N  N63  1  0.78233208  0.76542685  0.64244305  1
  N  N64  1  0.55068432  0.87466730  0.34032157  1
  N  N65  1  0.44030728  0.76566517  0.08581430  1
  N  N66  1  0.22434058  0.86599048  0.83598577  1
  N  N67  1  0.11780409  0.75859987  0.58657277  1
  N  N68  1  0.88506641  0.87561068  0.38915613  1
  N  N69  1  0.78224900  0.75750189  0.14315696  1
  N  N70  1  0.54872640  0.87334106  0.83719978  1
  N  N71  1  0.44646475  0.75999543  0.58663353  1
