# generated using pymatgen
data_GdAl17N18
_symmetry_space_group_name_H-M   'P 1'
_cell_length_a   9.54526733
_cell_length_b   9.54139730
_cell_length_c   10.26915682
_cell_angle_alpha   90.29930938
_cell_angle_beta   89.53105522
_cell_angle_gamma   60.08993555
_symmetry_Int_Tables_number   1
_chemical_formula_structural   GdAl17N18
_chemical_formula_sum   'Gd2 Al34 N36'
_cell_volume   810.62274936
_cell_formula_units_Z   2
loop_
 _symmetry_equiv_pos_site_id
 _symmetry_equiv_pos_as_xyz
  1  'x, y, z'
loop_
 _atom_site_type_symbol
 _atom_site_label
 _atom_site_symmetry_multiplicity
 _atom_site_fract_x
 _atom_site_fract_y
 _atom_site_fract_z
 _atom_site_occupancy
  Al  Al0  1  0.12006705  0.07967703  0.37633336  1
  Al  Al1  1  0.77450188  0.09136829  0.80823630  1
  Al  Al2  1  0.88407592  0.20186254  0.56963694  1
  Al  Al3  1  0.46051177  0.08492185  0.31635245  1
  Al  Al4  1  0.56063085  0.20403840  0.06157263  1
  Al  Al5  1  0.10758076  0.09972869  0.81957848  1
  Al  Al6  1  0.23190345  0.20143141  0.57556124  1
  Al  Al7  1  0.78320934  0.08613451  0.30863555  1
  Al  Al8  1  0.88071493  0.20357285  0.04263647  1
  Al  Al9  1  0.44458421  0.09535411  0.80894855  1
  Al  Al10  1  0.55781679  0.20541891  0.56025044  1
  Al  Al11  1  0.12099423  0.43135973  0.38815055  1
  Al  Al12  1  0.21253519  0.54950327  0.12724125  1
  Al  Al13  1  0.77218201  0.43175140  0.80544343  1
  Al  Al14  1  0.88498463  0.54516553  0.56796769  1
  Al  Al15  1  0.44640551  0.42420802  0.30925136  1
  Al  Al16  1  0.54930214  0.54230052  0.05095942  1
  Al  Al17  1  0.10995869  0.43827098  0.86796482  1
  Al  Al18  1  0.21872199  0.54323926  0.63148687  1
  Al  Al19  1  0.87341158  0.55373552  0.04193599  1
  Al  Al20  1  0.44862196  0.42471628  0.80983646  1
  Al  Al21  1  0.54989421  0.54035940  0.56135312  1
  Al  Al22  1  0.11803220  0.75451491  0.37953902  1
  Al  Al23  1  0.21276193  0.87234520  0.13371631  1
  Al  Al24  1  0.77472069  0.76775526  0.80719209  1
  Al  Al25  1  0.88194599  0.87509527  0.55724075  1
  Al  Al26  1  0.44940080  0.75782674  0.31158015  1
  Al  Al27  1  0.56035201  0.86878059  0.06182499  1
  Al  Al28  1  0.11586206  0.76210901  0.88229585  1
  Al  Al29  1  0.22168434  0.86496655  0.62800423  1
  Al  Al30  1  0.78273947  0.76087846  0.30855075  1
  Al  Al31  1  0.88214366  0.87647447  0.06175739  1
  Al  Al32  1  0.44828902  0.76182277  0.81007613  1
  Al  Al33  1  0.55830983  0.86884069  0.56009017  1
  Gd  Gd34  1  0.21906154  0.20740120  0.09119808  1
  Gd  Gd35  1  0.78649757  0.41879358  0.30532573  1
  N  N36  1  0.23077576  0.19890511  0.36467127  1
  N  N37  1  0.08815803  0.08264919  0.09291743  1
  N  N38  1  0.88183502  0.20776600  0.85379426  1
  N  N39  1  0.77534497  0.09046345  0.62315478  1
  N  N40  1  0.55971938  0.20588989  0.37296431  1
  N  N41  1  0.48161982  0.07569276  0.13281421  1
  N  N42  1  0.22092716  0.20929446  0.84932230  1
  N  N43  1  0.11440790  0.09201847  0.59823365  1
  N  N44  1  0.89957791  0.17401126  0.38702109  1
  N  N45  1  0.77655144  0.09795151  0.12016201  1
  N  N46  1  0.55321424  0.20663014  0.87209324  1
  N  N47  1  0.45190569  0.09016958  0.61946749  1
  N  N48  1  0.21776449  0.53945061  0.31559432  1
  N  N49  1  0.09355009  0.46711618  0.05468629  1
  N  N50  1  0.87842543  0.54718212  0.85293831  1
  N  N51  1  0.77561312  0.42826002  0.61433801  1
  N  N52  1  0.53027677  0.54922903  0.37798429  1
  N  N53  1  0.44893613  0.42551678  0.11834629  1
  N  N54  1  0.21748188  0.54806639  0.81638228  1
  N  N55  1  0.11782825  0.42775291  0.57742312  1
  N  N56  1  0.89733570  0.55497705  0.38105268  1
  N  N57  1  0.77575934  0.42926761  0.08560256  1
  N  N58  1  0.54903958  0.54314416  0.86475718  1
  N  N59  1  0.45102272  0.42214586  0.62147975  1
  N  N60  1  0.22279326  0.86643950  0.32432545  1
  N  N61  1  0.11488586  0.76097910  0.06950052  1
  N  N62  1  0.88209062  0.87641694  0.87217984  1
  N  N63  1  0.77600207  0.76580211  0.62174719  1
  N  N64  1  0.56038673  0.86585178  0.37327315  1
  N  N65  1  0.44928588  0.75893679  0.12037581  1
  N  N66  1  0.21712350  0.87289023  0.81601227  1
  N  N67  1  0.11540473  0.75673969  0.56648032  1
  N  N68  1  0.88548564  0.87249576  0.36756971  1
  N  N69  1  0.77747747  0.75995221  0.12060295  1
  N  N70  1  0.55297918  0.87565403  0.87198375  1
  N  N71  1  0.45201231  0.75829584  0.62084107  1
