# generated using pymatgen
data_GdAl17N18
_symmetry_space_group_name_H-M   'P 1'
_cell_length_a   9.54192319
_cell_length_b   9.52689504
_cell_length_c   10.20582776
_cell_angle_alpha   89.90154210
_cell_angle_beta   89.81480075
_cell_angle_gamma   59.98458340
_symmetry_Int_Tables_number   1
_chemical_formula_structural   GdAl17N18
_chemical_formula_sum   'Gd2 Al34 N36'
_cell_volume   803.33447174
_cell_formula_units_Z   2
loop_
 _symmetry_equiv_pos_site_id
 _symmetry_equiv_pos_as_xyz
  1  'x, y, z'
loop_
 _atom_site_type_symbol
 _atom_site_label
 _atom_site_symmetry_multiplicity
 _atom_site_fract_x
 _atom_site_fract_y
 _atom_site_fract_z
 _atom_site_occupancy
  Al  Al0  1  0.11139668  0.08484844  0.31571497  1
  Al  Al1  1  0.77666069  0.09209949  0.81093149  1
  Al  Al2  1  0.89067280  0.19852269  0.56671433  1
  Al  Al3  1  0.45264101  0.09012867  0.31658597  1
  Al  Al4  1  0.56087702  0.20488300  0.06234438  1
  Al  Al5  1  0.11228992  0.09051321  0.80290053  1
  Al  Al6  1  0.22327447  0.20356126  0.55980045  1
  Al  Al7  1  0.78049738  0.08884679  0.31077622  1
  Al  Al8  1  0.88678518  0.20050681  0.05183502  1
  Al  Al9  1  0.44656026  0.09326397  0.80327432  1
  Al  Al10  1  0.55816297  0.20455493  0.56050753  1
  Al  Al11  1  0.10802366  0.43410598  0.32249097  1
  Al  Al12  1  0.21730651  0.55130902  0.13391024  1
  Al  Al13  1  0.77735282  0.42716620  0.81194486  1
  Al  Al14  1  0.88840833  0.54396309  0.56669253  1
  Al  Al15  1  0.44837868  0.42538680  0.31704407  1
  Al  Al16  1  0.55213134  0.54001168  0.05192181  1
  Al  Al17  1  0.10870063  0.42703963  0.80012221  1
  Al  Al18  1  0.22268520  0.54148232  0.61115257  1
  Al  Al19  1  0.88531209  0.54696071  0.05137658  1
  Al  Al20  1  0.44615556  0.42500326  0.81005261  1
  Al  Al21  1  0.55157184  0.54148148  0.56630525  1
  Al  Al22  1  0.11224337  0.75964748  0.38044347  1
  Al  Al23  1  0.22323329  0.87250827  0.06386185  1
  Al  Al24  1  0.77576845  0.76434226  0.81093758  1
  Al  Al25  1  0.88068584  0.87584412  0.56232171  1
  Al  Al26  1  0.44110462  0.76378235  0.31181116  1
  Al  Al27  1  0.56051296  0.86921356  0.06202934  1
  Al  Al28  1  0.11314229  0.75419542  0.87922549  1
  Al  Al29  1  0.22782841  0.87334199  0.56192496  1
  Al  Al30  1  0.77884979  0.76494778  0.31089181  1
  Al  Al31  1  0.88064223  0.87630652  0.06373382  1
  Al  Al32  1  0.44268823  0.76361976  0.81130212  1
  Al  Al33  1  0.55696155  0.86990244  0.56077953  1
  Gd  Gd34  1  0.22279580  0.20867765  0.06410019  1
  Gd  Gd35  1  0.78115912  0.42644479  0.31019821  1
  N  N36  1  0.22227544  0.20456254  0.36514138  1
  N  N37  1  0.09389952  0.08234287  0.13015432  1
  N  N38  1  0.89120897  0.20094808  0.86330951  1
  N  N39  1  0.77566223  0.09284748  0.62445624  1
  N  N40  1  0.55937163  0.20531668  0.37308607  1
  N  N41  1  0.47614315  0.07927180  0.13185926  1
  N  N42  1  0.22202070  0.20509474  0.84427207  1
  N  N43  1  0.11295630  0.09177039  0.61725345  1
  N  N44  1  0.90143605  0.17563007  0.38337324  1
  N  N45  1  0.77757028  0.09670363  0.12097110  1
  N  N46  1  0.55410058  0.20513497  0.87175711  1
  N  N47  1  0.44737638  0.09265679  0.61433533  1
  N  N48  1  0.22510764  0.54147520  0.33567421  1
  N  N49  1  0.08672322  0.45804774  0.13407880  1
  N  N50  1  0.89018822  0.54028967  0.86291344  1
  N  N51  1  0.77819896  0.42695194  0.61750093  1
  N  N52  1  0.52980611  0.55338159  0.38167682  1
  N  N53  1  0.44951730  0.42596915  0.12263152  1
  N  N54  1  0.22017264  0.53981435  0.82570064  1
  N  N55  1  0.11059545  0.42505064  0.61192528  1
  N  N56  1  0.89839233  0.55803792  0.38490108  1
  N  N57  1  0.77793733  0.42753539  0.08885509  1
  N  N58  1  0.55168547  0.54055183  0.86464160  1
  N  N59  1  0.45095995  0.42212432  0.62019525  1
  N  N60  1  0.22868744  0.87219916  0.37229248  1
  N  N61  1  0.10991753  0.76037360  0.07455555  1
  N  N62  1  0.88170107  0.87518703  0.87258827  1
  N  N63  1  0.77469740  0.76439937  0.62458557  1
  N  N64  1  0.55780007  0.86803397  0.37241143  1
  N  N65  1  0.44550059  0.76037696  0.12062593  1
  N  N66  1  0.22451089  0.87575140  0.87149427  1
  N  N67  1  0.11016391  0.76160830  0.57387569  1
  N  N68  1  0.88236449  0.87525712  0.36980191  1
  N  N69  1  0.77643562  0.75995780  0.12088564  1
  N  N70  1  0.55397567  0.87381080  0.87163478  1
  N  N71  1  0.44489175  0.76284915  0.62411690  1
