# generated using pymatgen
data_GdAl17N18
_symmetry_space_group_name_H-M   'P 1'
_cell_length_a   9.54273374
_cell_length_b   9.53660711
_cell_length_c   10.28701596
_cell_angle_alpha   89.80148455
_cell_angle_beta   89.31146492
_cell_angle_gamma   59.99169073
_symmetry_Int_Tables_number   1
_chemical_formula_structural   GdAl17N18
_chemical_formula_sum   'Gd2 Al34 N36'
_cell_volume   810.61966954
_cell_formula_units_Z   2
loop_
 _symmetry_equiv_pos_site_id
 _symmetry_equiv_pos_as_xyz
  1  'x, y, z'
loop_
 _atom_site_type_symbol
 _atom_site_label
 _atom_site_symmetry_multiplicity
 _atom_site_fract_x
 _atom_site_fract_y
 _atom_site_fract_z
 _atom_site_occupancy
  Al  Al0  1  0.12421369  0.08139540  0.41736635  1
  Al  Al1  1  0.78030576  0.08880715  0.82831160  1
  Al  Al2  1  0.88862332  0.20220113  0.59511313  1
  Al  Al3  1  0.44996211  0.09205949  0.40793572  1
  Al  Al4  1  0.55279888  0.20702870  0.14824971  1
  Al  Al5  1  0.11468889  0.08659152  0.88966026  1
  Al  Al6  1  0.22647662  0.20420763  0.65478824  1
  Al  Al7  1  0.78702087  0.08595350  0.32905198  1
  Al  Al8  1  0.87709302  0.20171753  0.06849585  1
  Al  Al9  1  0.45103568  0.09035582  0.89726338  1
  Al  Al10  1  0.55085083  0.21014259  0.64926778  1
  Al  Al11  1  0.12595314  0.42772671  0.41720724  1
  Al  Al12  1  0.21701313  0.54400162  0.15010863  1
  Al  Al13  1  0.77081616  0.43163805  0.86638750  1
  Al  Al14  1  0.88856511  0.54716871  0.59038669  1
  Al  Al15  1  0.43998701  0.42924842  0.39782701  1
  Al  Al16  1  0.53963295  0.54582844  0.14211650  1
  Al  Al17  1  0.11475561  0.43075202  0.89114107  1
  Al  Al18  1  0.22492073  0.54248513  0.65181504  1
  Al  Al19  1  0.87758107  0.55220162  0.06973586  1
  Al  Al20  1  0.44203169  0.42714225  0.89862722  1
  Al  Al21  1  0.55490785  0.53995875  0.64844948  1
  Al  Al22  1  0.11776038  0.75826493  0.39750250  1
  Al  Al23  1  0.21681531  0.86992286  0.14955958  1
  Al  Al24  1  0.78097893  0.76294995  0.82747869  1
  Al  Al25  1  0.88398461  0.87659377  0.57694793  1
  Al  Al26  1  0.43945239  0.76468387  0.39787621  1
  Al  Al27  1  0.55398883  0.87068818  0.14928548  1
  Al  Al28  1  0.11736912  0.75746419  0.90194509  1
  Al  Al29  1  0.22502705  0.86654786  0.65153616  1
  Al  Al30  1  0.78699564  0.76252971  0.33122844  1
  Al  Al31  1  0.88179926  0.87428553  0.08035532  1
  Al  Al32  1  0.44219078  0.76327648  0.89861097  1
  Al  Al33  1  0.55079657  0.87357344  0.64904055  1
  Gd  Gd34  1  0.21594200  0.20583380  0.15115125  1
  Gd  Gd35  1  0.78611284  0.42533551  0.35107878  1
  N  N36  1  0.22204323  0.20599750  0.37110501  1
  N  N37  1  0.10074877  0.07476404  0.07490779  1
  N  N38  1  0.88159849  0.20617570  0.87813855  1
  N  N39  1  0.78235410  0.08902347  0.64325270  1
  N  N40  1  0.55008819  0.20855203  0.33907892  1
  N  N41  1  0.47282361  0.07893030  0.08025523  1
  N  N42  1  0.22392883  0.20434752  0.84550371  1
  N  N43  1  0.12072222  0.08833747  0.60567400  1
  N  N44  1  0.90347248  0.17151029  0.40220027  1
  N  N45  1  0.78124185  0.09100152  0.14054110  1
  N  N46  1  0.54812333  0.21062002  0.83752262  1
  N  N47  1  0.44985110  0.09256076  0.59372306  1
  N  N48  1  0.22240680  0.53743015  0.33812413  1
  N  N49  1  0.10185230  0.45352076  0.07728090  1
  N  N50  1  0.88144730  0.54586936  0.88135483  1
  N  N51  1  0.77938013  0.42924424  0.61471674  1
  N  N52  1  0.52009530  0.55689854  0.32768872  1
  N  N53  1  0.44018614  0.42603680  0.08573099  1
  N  N54  1  0.22362516  0.54218748  0.83700533  1
  N  N55  1  0.12118672  0.42555560  0.60543811  1
  N  N56  1  0.90444023  0.56097108  0.40476777  1
  N  N57  1  0.77145424  0.42964923  0.10478161  1
  N  N58  1  0.54699224  0.54293267  0.83877313  1
  N  N59  1  0.44654734  0.42841849  0.58675586  1
  N  N60  1  0.22201722  0.87509941  0.33781419  1
  N  N61  1  0.11474179  0.75808727  0.09124145  1
  N  N62  1  0.88342934  0.87411713  0.89312651  1
  N  N63  1  0.78233587  0.76482233  0.64271875  1
  N  N64  1  0.55023023  0.87508557  0.34013324  1
  N  N65  1  0.44052431  0.76562356  0.08586582  1
  N  N66  1  0.22399370  0.86630123  0.83644300  1
  N  N67  1  0.11792361  0.75842584  0.58662214  1
  N  N68  1  0.88526094  0.87531743  0.38949362  1
  N  N69  1  0.78261577  0.75753259  0.14329007  1
  N  N70  1  0.54855204  0.87349720  0.83710797  1
  N  N71  1  0.44624057  0.76004047  0.58659672  1
