# generated using pymatgen
data_GdAl17N18
_symmetry_space_group_name_H-M   'P 1'
_cell_length_a   9.53284503
_cell_length_b   9.52715163
_cell_length_c   10.20538037
_cell_angle_alpha   90.10042209
_cell_angle_beta   89.91429638
_cell_angle_gamma   60.06996845
_symmetry_Int_Tables_number   1
_chemical_formula_structural   GdAl17N18
_chemical_formula_sum   'Gd2 Al34 N36'
_cell_volume   803.24663272
_cell_formula_units_Z   2
loop_
 _symmetry_equiv_pos_site_id
 _symmetry_equiv_pos_as_xyz
  1  'x, y, z'
loop_
 _atom_site_type_symbol
 _atom_site_label
 _atom_site_symmetry_multiplicity
 _atom_site_fract_x
 _atom_site_fract_y
 _atom_site_fract_z
 _atom_site_occupancy
  Al  Al0  1  0.11307763  0.08742401  0.40688861  1
  Al  Al1  1  0.77204026  0.10127122  0.89679456  1
  Al  Al2  1  0.88756958  0.20290085  0.65580873  1
  Al  Al3  1  0.44774860  0.09225200  0.40680519  1
  Al  Al4  1  0.55874609  0.20500313  0.14690721  1
  Al  Al5  1  0.10918836  0.08930611  0.89200086  1
  Al  Al6  1  0.22250476  0.20462433  0.64675346  1
  Al  Al7  1  0.77663169  0.09589293  0.39483382  1
  Al  Al8  1  0.88845395  0.19638806  0.14301294  1
  Al  Al9  1  0.44828227  0.09317959  0.89239880  1
  Al  Al10  1  0.55718088  0.20639549  0.64740577  1
  Al  Al11  1  0.11455702  0.43240860  0.40734522  1
  Al  Al12  1  0.22103016  0.54388861  0.14782272  1
  Al  Al13  1  0.77658292  0.42691919  0.89889753  1
  Al  Al14  1  0.89109119  0.53596813  0.65862672  1
  Al  Al15  1  0.43937018  0.42983363  0.39669034  1
  Al  Al16  1  0.54723552  0.54286597  0.14212979  1
  Al  Al17  1  0.11148231  0.43246535  0.89200679  1
  Al  Al18  1  0.22407736  0.54022344  0.64776423  1
  Al  Al19  1  0.89185398  0.54221456  0.13618975  1
  Al  Al20  1  0.44290240  0.42697346  0.89793021  1
  Al  Al21  1  0.55329735  0.53992879  0.65543958  1
  Al  Al22  1  0.11924364  0.75707423  0.39495393  1
  Al  Al23  1  0.21937823  0.86945452  0.14793998  1
  Al  Al24  1  0.77710674  0.76421922  0.84829546  1
  Al  Al25  1  0.88670199  0.86742691  0.57946375  1
  Al  Al26  1  0.43900028  0.76587407  0.39637843  1
  Al  Al27  1  0.55147820  0.87386760  0.14164973  1
  Al  Al28  1  0.11917290  0.75664268  0.89638924  1
  Al  Al29  1  0.22319978  0.86886390  0.64776712  1
  Al  Al30  1  0.78254686  0.76871725  0.32495966  1
  Al  Al31  1  0.88766922  0.87203546  0.07836179  1
  Al  Al32  1  0.44167748  0.76282183  0.89820104  1
  Al  Al33  1  0.55381667  0.87120061  0.64868143  1
  Gd  Gd34  1  0.21870022  0.20770204  0.14852899  1
  Gd  Gd35  1  0.77709285  0.43165932  0.39466337  1
  N  N36  1  0.22192593  0.20558243  0.36987762  1
  N  N37  1  0.09842443  0.07719024  0.07534614  1
  N  N38  1  0.88690161  0.20480474  0.84146136  1
  N  N39  1  0.77536441  0.10036485  0.58719985  1
  N  N40  1  0.55435218  0.20597701  0.33808906  1
  N  N41  1  0.47005835  0.08331712  0.07703202  1
  N  N42  1  0.22165697  0.20524151  0.84120471  1
  N  N43  1  0.10865535  0.09227443  0.59540457  1
  N  N44  1  0.90593886  0.17641716  0.32858051  1
  N  N45  1  0.77117987  0.10102681  0.08644680  1
  N  N46  1  0.55497132  0.20783339  0.83459667  1
  N  N47  1  0.44819211  0.09233128  0.59408793  1
  N  N48  1  0.22343918  0.53649449  0.33782775  1
  N  N49  1  0.10151006  0.45652906  0.07379888  1
  N  N50  1  0.88924810  0.53575480  0.84682750  1
  N  N51  1  0.77785567  0.42722899  0.61449197  1
  N  N52  1  0.52374450  0.55550012  0.32686546  1
  N  N53  1  0.44207930  0.42595385  0.08630095  1
  N  N54  1  0.22515876  0.53919839  0.83412116  1
  N  N55  1  0.10965314  0.43060834  0.59581397  1
  N  N56  1  0.91316316  0.54489677  0.32455288  1
  N  N57  1  0.77759592  0.42695227  0.09355679  1
  N  N58  1  0.55247160  0.54012982  0.84438144  1
  N  N59  1  0.44589120  0.42789803  0.58708231  1
  N  N60  1  0.22230586  0.87439318  0.33774166  1
  N  N61  1  0.11753242  0.75773092  0.08892670  1
  N  N62  1  0.88970513  0.87187493  0.88485654  1
  N  N63  1  0.77965486  0.76004592  0.63261272  1
  N  N64  1  0.55036548  0.87557801  0.33602641  1
  N  N65  1  0.44049242  0.76480307  0.08562528  1
  N  N66  1  0.22418613  0.86860735  0.83425130  1
  N  N67  1  0.11815314  0.75701551  0.58609924  1
  N  N68  1  0.88997886  0.87043956  0.38401353  1
  N  N69  1  0.77472879  0.76665424  0.12269763  1
  N  N70  1  0.54892521  0.87315376  0.83854929  1
  N  N71  1  0.44576834  0.75935760  0.58696531  1
