# generated using pymatgen
data_GdAl17N18
_symmetry_space_group_name_H-M   'P 1'
_cell_length_a   9.48999510
_cell_length_b   9.50965979
_cell_length_c   10.39706224
_cell_angle_alpha   90.02286497
_cell_angle_beta   89.52068468
_cell_angle_gamma   59.94794932
_symmetry_Int_Tables_number   1
_chemical_formula_structural   GdAl17N18
_chemical_formula_sum   'Gd2 Al34 N36'
_cell_volume   812.12507379
_cell_formula_units_Z   2
loop_
 _symmetry_equiv_pos_site_id
 _symmetry_equiv_pos_as_xyz
  1  'x, y, z'
loop_
 _atom_site_type_symbol
 _atom_site_label
 _atom_site_symmetry_multiplicity
 _atom_site_fract_x
 _atom_site_fract_y
 _atom_site_fract_z
 _atom_site_occupancy
  Al  Al0  1  0.12544049  0.08252252  0.39281131  1
  Al  Al1  1  0.77561272  0.09132912  0.80584329  1
  Al  Al2  1  0.88513981  0.20186714  0.56676376  1
  Al  Al3  1  0.45827024  0.08740856  0.31550576  1
  Al  Al4  1  0.55986974  0.20455815  0.06097440  1
  Al  Al5  1  0.11191242  0.08669635  0.86766084  1
  Al  Al6  1  0.21984837  0.20674172  0.63270616  1
  Al  Al7  1  0.78327961  0.08819554  0.30921023  1
  Al  Al8  1  0.87600702  0.20472597  0.04045584  1
  Al  Al9  1  0.45107195  0.09116955  0.81116666  1
  Al  Al10  1  0.55553716  0.20547607  0.55995776  1
  Al  Al11  1  0.12535251  0.42515698  0.39275231  1
  Al  Al12  1  0.21391644  0.54790310  0.12774389  1
  Al  Al13  1  0.77427799  0.42954592  0.80259290  1
  Al  Al14  1  0.88505504  0.54618034  0.56667816  1
  Al  Al15  1  0.44502199  0.42589523  0.30972336  1
  Al  Al16  1  0.55224842  0.54057619  0.05056435  1
  Al  Al17  1  0.11181948  0.43496424  0.86766295  1
  Al  Al18  1  0.21865867  0.54418368  0.63050631  1
  Al  Al19  1  0.87592008  0.55274823  0.04047049  1
  Al  Al20  1  0.44980068  0.42407949  0.80840650  1
  Al  Al21  1  0.54833451  0.54240962  0.56118804  1
  Al  Al22  1  0.11842344  0.75733317  0.37736670  1
  Al  Al23  1  0.21394168  0.87169656  0.12781097  1
  Al  Al24  1  0.77559166  0.76645297  0.80582572  1
  Al  Al25  1  0.88259636  0.87528548  0.55558588  1
  Al  Al26  1  0.44509562  0.76211794  0.30973764  1
  Al  Al27  1  0.55981017  0.86900094  0.06095426  1
  Al  Al28  1  0.11637411  0.75857589  0.88131853  1
  Al  Al29  1  0.21869737  0.87039916  0.63051647  1
  Al  Al30  1  0.78324027  0.76156073  0.30914466  1
  Al  Al31  1  0.88235471  0.87553814  0.06030388  1
  Al  Al32  1  0.44982969  0.75947630  0.80839999  1
  Al  Al33  1  0.55552387  0.87218871  0.55994898  1
  Gd  Gd34  1  0.20729613  0.21320597  0.11941655  1
  Gd  Gd35  1  0.78201649  0.42535203  0.30745171  1
  N  N36  1  0.22385316  0.20461424  0.34017035  1
  N  N37  1  0.10088129  0.07181343  0.04915544  1
  N  N38  1  0.87862601  0.20870125  0.85417890  1
  N  N39  1  0.77624801  0.09058511  0.62224505  1
  N  N40  1  0.55801439  0.20692285  0.37338300  1
  N  N41  1  0.47669499  0.07835227  0.12920375  1
  N  N42  1  0.21626176  0.20865049  0.82355180  1
  N  N43  1  0.11967531  0.08876723  0.57842610  1
  N  N44  1  0.89862715  0.17851579  0.38353940  1
  N  N45  1  0.77918817  0.09596092  0.12171749  1
  N  N46  1  0.55356300  0.20647555  0.87365668  1
  N  N47  1  0.45237653  0.09042153  0.62335237  1
  N  N48  1  0.21517805  0.54053104  0.31434877  1
  N  N49  1  0.10075978  0.46090512  0.04909603  1
  N  N50  1  0.87853824  0.54617656  0.85417198  1
  N  N51  1  0.77647607  0.42833401  0.61402900  1
  N  N52  1  0.52391119  0.55460554  0.38015471  1
  N  N53  1  0.45178752  0.42492912  0.12041075  1
  N  N54  1  0.21720468  0.54647427  0.81360014  1
  N  N55  1  0.11959585  0.42480159  0.57834269  1
  N  N56  1  0.89849441  0.55588519  0.38339170  1
  N  N57  1  0.78204940  0.42567931  0.08899536  1
  N  N58  1  0.55097524  0.54122962  0.86616174  1
  N  N59  1  0.45224217  0.42191696  0.62234596  1
  N  N60  1  0.21525930  0.87731457  0.31442247  1
  N  N61  1  0.11606874  0.75871223  0.06711926  1
  N  N62  1  0.88122733  0.87612474  0.87263940  1
  N  N63  1  0.77624670  0.76633910  0.62220820  1
  N  N64  1  0.55800789  0.86823634  0.37337764  1
  N  N65  1  0.45179618  0.75665297  0.12042057  1
  N  N66  1  0.21723815  0.86979675  0.81361515  1
  N  N67  1  0.11796019  0.75760760  0.56311818  1
  N  N68  1  0.88424262  0.87440344  0.36822842  1
  N  N69  1  0.77911915  0.75834339  0.12166614  1
  N  N70  1  0.55352994  0.87344980  0.87363594  1
  N  N71  1  0.45227649  0.75900229  0.62234026  1
