# generated using pymatgen
data_GdAl17N18
_symmetry_space_group_name_H-M   'P 1'
_cell_length_a   9.53780768
_cell_length_b   9.51774752
_cell_length_c   10.32226667
_cell_angle_alpha   89.60437576
_cell_angle_beta   89.35943782
_cell_angle_gamma   59.99016211
_symmetry_Int_Tables_number   1
_chemical_formula_structural   GdAl17N18
_chemical_formula_sum   'Gd2 Al34 N36'
_cell_volume   811.36775572
_cell_formula_units_Z   2
loop_
 _symmetry_equiv_pos_site_id
 _symmetry_equiv_pos_as_xyz
  1  'x, y, z'
loop_
 _atom_site_type_symbol
 _atom_site_label
 _atom_site_symmetry_multiplicity
 _atom_site_fract_x
 _atom_site_fract_y
 _atom_site_fract_z
 _atom_site_occupancy
  Al  Al0  1  0.11586846  0.08721461  0.40946222  1
  Al  Al1  1  0.77899995  0.08758546  0.83113840  1
  Al  Al2  1  0.89339794  0.20990257  0.65571597  1
  Al  Al3  1  0.44967807  0.09247706  0.40806927  1
  Al  Al4  1  0.55116110  0.20718180  0.14489923  1
  Al  Al5  1  0.11042165  0.08871573  0.89239789  1
  Al  Al6  1  0.22572315  0.20386398  0.65180850  1
  Al  Al7  1  0.78379239  0.08292733  0.32330012  1
  Al  Al8  1  0.89150455  0.19596911  0.13644828  1
  Al  Al9  1  0.44962286  0.09010565  0.89584556  1
  Al  Al10  1  0.55164790  0.21027828  0.64841904  1
  Al  Al11  1  0.12489781  0.42779718  0.41532258  1
  Al  Al12  1  0.21744213  0.54423591  0.14952183  1
  Al  Al13  1  0.77055728  0.42553859  0.89517349  1
  Al  Al14  1  0.89020709  0.54879221  0.59123152  1
  Al  Al15  1  0.43771924  0.43087887  0.39693338  1
  Al  Al16  1  0.54233756  0.54368701  0.14260536  1
  Al  Al17  1  0.11387654  0.42989161  0.89126094  1
  Al  Al18  1  0.22525592  0.54233673  0.65163576  1
  Al  Al19  1  0.87979991  0.55103178  0.07252095  1
  Al  Al20  1  0.44152933  0.42701877  0.89886611  1
  Al  Al21  1  0.55558440  0.54006381  0.65280743  1
  Al  Al22  1  0.11800711  0.75837770  0.39793880  1
  Al  Al23  1  0.21829845  0.86820756  0.14875436  1
  Al  Al24  1  0.78126874  0.76012302  0.82763826  1
  Al  Al25  1  0.88371301  0.87890117  0.57784862  1
  Al  Al26  1  0.43813766  0.76655461  0.39735657  1
  Al  Al27  1  0.55458290  0.87004864  0.14862827  1
  Al  Al28  1  0.11791811  0.75747548  0.90039451  1
  Al  Al29  1  0.22342902  0.86853479  0.64922876  1
  Al  Al30  1  0.78714699  0.76278240  0.33064262  1
  Al  Al31  1  0.88163546  0.87324561  0.07695781  1
  Al  Al32  1  0.44224640  0.76294306  0.89805289  1
  Al  Al33  1  0.55099695  0.87368279  0.64937793  1
  Gd  Gd34  1  0.21734115  0.20437761  0.15223322  1
  Gd  Gd35  1  0.77457566  0.42697770  0.38225261  1
  N  N36  1  0.22381418  0.20616700  0.37097536  1
  N  N37  1  0.09992518  0.07473554  0.07223859  1
  N  N38  1  0.88952419  0.20698864  0.84283024  1
  N  N39  1  0.78198512  0.09201620  0.63973976  1
  N  N40  1  0.54992001  0.20987785  0.33823028  1
  N  N41  1  0.47116407  0.07853788  0.07841549  1
  N  N42  1  0.22309767  0.20351727  0.84275771  1
  N  N43  1  0.11259589  0.09240635  0.59631654  1
  N  N44  1  0.91741502  0.17385155  0.32450888  1
  N  N45  1  0.77557060  0.08703914  0.13397074  1
  N  N46  1  0.54816115  0.21037674  0.83695276  1
  N  N47  1  0.44962073  0.09272403  0.59334289  1
  N  N48  1  0.22099971  0.53870028  0.33736064  1
  N  N49  1  0.10391676  0.45175973  0.07740491  1
  N  N50  1  0.88087193  0.54420922  0.88377981  1
  N  N51  1  0.77869008  0.42970773  0.60697918  1
  N  N52  1  0.51802308  0.55884633  0.32505715  1
  N  N53  1  0.43942050  0.42668844  0.08524995  1
  N  N54  1  0.22341174  0.54157572  0.83627245  1
  N  N55  1  0.12124927  0.42595154  0.60359801  1
  N  N56  1  0.90325056  0.56057601  0.40309440  1
  N  N57  1  0.77175815  0.42519185  0.09428321  1
  N  N58  1  0.55040732  0.54012322  0.84089641  1
  N  N59  1  0.44683188  0.42955390  0.58625463  1
  N  N60  1  0.22212388  0.87483407  0.33787721  1
  N  N61  1  0.11485819  0.75820304  0.08935408  1
  N  N62  1  0.88430035  0.87191949  0.89112581  1
  N  N63  1  0.78265031  0.76522013  0.64305464  1
  N  N64  1  0.55032859  0.87590394  0.33934597  1
  N  N65  1  0.44156393  0.76460806  0.08502914  1
  N  N66  1  0.22346955  0.86803791  0.83430239  1
  N  N67  1  0.11789204  0.75843392  0.58630579  1
  N  N68  1  0.88515742  0.87702871  0.39143022  1
  N  N69  1  0.78350165  0.75673992  0.14378767  1
  N  N70  1  0.54884942  0.87295784  0.83636360  1
  N  N71  1  0.44628032  0.76031194  0.58650157  1
