# generated using pymatgen
data_GdAl17N18
_symmetry_space_group_name_H-M   'P 1'
_cell_length_a   9.48869802
_cell_length_b   9.52209933
_cell_length_c   10.42076523
_cell_angle_alpha   90.00009926
_cell_angle_beta   89.71517436
_cell_angle_gamma   59.88049657
_symmetry_Int_Tables_number   1
_chemical_formula_structural   GdAl17N18
_chemical_formula_sum   'Gd2 Al34 N36'
_cell_volume   814.40075088
_cell_formula_units_Z   2
loop_
 _symmetry_equiv_pos_site_id
 _symmetry_equiv_pos_as_xyz
  1  'x, y, z'
loop_
 _atom_site_type_symbol
 _atom_site_label
 _atom_site_symmetry_multiplicity
 _atom_site_fract_x
 _atom_site_fract_y
 _atom_site_fract_z
 _atom_site_occupancy
  Al  Al0  1  0.12175270  0.08268922  0.40572421  1
  Al  Al1  1  0.78245268  0.08821158  0.81531242  1
  Al  Al2  1  0.88566387  0.20071532  0.57795092  1
  Al  Al3  1  0.44732035  0.09300740  0.39620578  1
  Al  Al4  1  0.55553956  0.20680542  0.13802872  1
  Al  Al5  1  0.11484700  0.08777502  0.87927342  1
  Al  Al6  1  0.22445385  0.20443951  0.64339691  1
  Al  Al7  1  0.78627442  0.08577345  0.31975207  1
  Al  Al8  1  0.87733899  0.20424172  0.05146559  1
  Al  Al9  1  0.45221592  0.09055990  0.88648852  1
  Al  Al10  1  0.54964304  0.20770557  0.63944851  1
  Al  Al11  1  0.12175444  0.42889418  0.40572413  1
  Al  Al12  1  0.21839527  0.54444986  0.13822430  1
  Al  Al13  1  0.77737515  0.42798022  0.81507336  1
  Al  Al14  1  0.88566471  0.54695231  0.57795073  1
  Al  Al15  1  0.43975572  0.42664075  0.38872042  1
  Al  Al16  1  0.55176518  0.54078239  0.08583716  1
  Al  Al17  1  0.11484822  0.43071378  0.87927308  1
  Al  Al18  1  0.22192817  0.54236857  0.64137412  1
  Al  Al19  1  0.87734018  0.55175019  0.05146526  1
  Al  Al20  1  0.44163669  0.42504369  0.88391429  1
  Al  Al21  1  0.55054140  0.54139392  0.61451404  1
  Al  Al22  1  0.11943718  0.75694969  0.38667243  1
  Al  Al23  1  0.21839406  0.87048755  0.13822424  1
  Al  Al24  1  0.78245298  0.76267119  0.81531269  1
  Al  Al25  1  0.88368538  0.87482363  0.56472285  1
  Al  Al26  1  0.43975611  0.76693513  0.38871979  1
  Al  Al27  1  0.55554025  0.87098679  0.13802818  1
  Al  Al28  1  0.11753527  0.75790041  0.89170489  1
  Al  Al29  1  0.22192786  0.86903611  0.64137410  1
  Al  Al30  1  0.78627641  0.76128773  0.31975215  1
  Al  Al31  1  0.88217569  0.87557829  0.06992135  1
  Al  Al32  1  0.44163623  0.76665504  0.88391392  1
  Al  Al33  1  0.54964324  0.87598242  0.63944866  1
  Gd  Gd34  1  0.21861291  0.20735844  0.13963691  1
  Gd  Gd35  1  0.78811370  0.42261187  0.31789091  1
  N  N36  1  0.21753148  0.20789926  0.35747920  1
  N  N37  1  0.10344847  0.07601104  0.06251439  1
  N  N38  1  0.88103848  0.20752851  0.86701750  1
  N  N39  1  0.78247305  0.08686270  0.63248787  1
  N  N40  1  0.54819405  0.20768371  0.32641584  1
  N  N41  1  0.47671293  0.07831167  0.06713932  1
  N  N42  1  0.22398074  0.20467455  0.83204182  1
  N  N43  1  0.11906582  0.08897849  0.59194637  1
  N  N44  1  0.89628108  0.17670975  0.39706823  1
  N  N45  1  0.78577807  0.09265544  0.13289599  1
  N  N46  1  0.54873403  0.20915849  0.82428184  1
  N  N47  1  0.44777542  0.09277990  0.58024180  1
  N  N48  1  0.22065721  0.53670126  0.32499346  1
  N  N49  1  0.10344958  0.45387717  0.06251417  1
  N  N50  1  0.88103909  0.54476253  0.86701812  1
  N  N51  1  0.78091544  0.42621148  0.62656164  1
  N  N52  1  0.52907425  0.55212833  0.34760979  1
  N  N53  1  0.44161586  0.42373555  0.07188117  1
  N  N54  1  0.22170425  0.54333840  0.82407946  1
  N  N55  1  0.11906658  0.42529371  0.59194704  1
  N  N56  1  0.89628073  0.56034087  0.39706823  1
  N  N57  1  0.77919170  0.42707323  0.09771022  1
  N  N58  1  0.54921716  0.54205634  0.84325332  1
  N  N59  1  0.44298134  0.42447312  0.57719631  1
  N  N60  1  0.22065753  0.87597315  0.32499305  1
  N  N61  1  0.11713679  0.75810093  0.07855118  1
  N  N62  1  0.88222586  0.87555203  0.88419930  1
  N  N63  1  0.78247267  0.76400252  0.63248812  1
  N  N64  1  0.54819449  0.87744947  0.32641546  1
  N  N65  1  0.44161465  0.76798778  0.07188192  1
  N  N66  1  0.22170456  0.86828817  0.82407933  1
  N  N67  1  0.11900390  0.75716744  0.57401280  1
  N  N68  1  0.88482034  0.87425463  0.37948087  1
  N  N69  1  0.78577819  0.75490369  0.13289653  1
  N  N70  1  0.54873421  0.87543585  0.82428198  1
  N  N71  1  0.44298099  0.76588259  0.57719598  1
