# generated using pymatgen
data_GdAl17N18
_symmetry_space_group_name_H-M   'P 1'
_cell_length_a   9.48775540
_cell_length_b   9.51681684
_cell_length_c   10.41203239
_cell_angle_alpha   90.00039939
_cell_angle_beta   89.68534086
_cell_angle_gamma   59.88490909
_symmetry_Int_Tables_number   1
_chemical_formula_structural   GdAl17N18
_chemical_formula_sum   'Gd2 Al34 N36'
_cell_volume   813.21940723
_cell_formula_units_Z   2
loop_
 _symmetry_equiv_pos_site_id
 _symmetry_equiv_pos_as_xyz
  1  'x, y, z'
loop_
 _atom_site_type_symbol
 _atom_site_label
 _atom_site_symmetry_multiplicity
 _atom_site_fract_x
 _atom_site_fract_y
 _atom_site_fract_z
 _atom_site_occupancy
  Al  Al0  1  0.12221305  0.08214877  0.40589600  1
  Al  Al1  1  0.78218226  0.08832239  0.81527483  1
  Al  Al2  1  0.88579562  0.20072197  0.57816979  1
  Al  Al3  1  0.44720927  0.09306198  0.39610591  1
  Al  Al4  1  0.55548981  0.20685988  0.13758464  1
  Al  Al5  1  0.11509813  0.08745664  0.87926605  1
  Al  Al6  1  0.22451026  0.20440824  0.64344471  1
  Al  Al7  1  0.78605867  0.08575137  0.31957001  1
  Al  Al8  1  0.87658689  0.20511638  0.05166038  1
  Al  Al9  1  0.45213341  0.09060327  0.88610072  1
  Al  Al10  1  0.54962437  0.20835474  0.63885286  1
  Al  Al11  1  0.12221742  0.42898451  0.40589521  1
  Al  Al12  1  0.21797941  0.54449371  0.13800284  1
  Al  Al13  1  0.77893092  0.42720625  0.81499492  1
  Al  Al14  1  0.88579880  0.54680602  0.57816848  1
  Al  Al15  1  0.44054992  0.42779304  0.38763756  1
  Al  Al16  1  0.54689895  0.54321145  0.11174516  1
  Al  Al17  1  0.11510370  0.43078924  0.87926397  1
  Al  Al18  1  0.22242952  0.54233256  0.64096447  1
  Al  Al19  1  0.87659194  0.55161747  0.05165969  1
  Al  Al20  1  0.44298479  0.42634739  0.88446650  1
  Al  Al21  1  0.54866843  0.54232540  0.63093685  1
  Al  Al22  1  0.11888143  0.75723570  0.38650504  1
  Al  Al23  1  0.21797430  0.87085689  0.13800416  1
  Al  Al24  1  0.78218261  0.76283723  0.81527621  1
  Al  Al25  1  0.88361442  0.87485606  0.56477145  1
  Al  Al26  1  0.44054710  0.76499203  0.38763616  1
  Al  Al27  1  0.55549381  0.87097208  0.13758390  1
  Al  Al28  1  0.11754448  0.75790171  0.89147918  1
  Al  Al29  1  0.22242911  0.86856832  0.64096374  1
  Al  Al30  1  0.78606389  0.76153488  0.31956877  1
  Al  Al31  1  0.88213666  0.87559327  0.06984942  1
  Al  Al32  1  0.44298292  0.76400867  0.88446634  1
  Al  Al33  1  0.54962538  0.87533964  0.63885329  1
  Gd  Gd34  1  0.21861187  0.20734876  0.13948447  1
  Gd  Gd35  1  0.79140282  0.42097609  0.31965293  1
  N  N36  1  0.21721607  0.20805230  0.35745949  1
  N  N37  1  0.10307683  0.07630370  0.06256881  1
  N  N38  1  0.88102569  0.20748801  0.86714700  1
  N  N39  1  0.78244234  0.08691850  0.63243081  1
  N  N40  1  0.54802591  0.20799741  0.32630025  1
  N  N41  1  0.47665730  0.07834655  0.06689742  1
  N  N42  1  0.22388453  0.20471621  0.83206723  1
  N  N43  1  0.11946241  0.08862988  0.59199341  1
  N  N44  1  0.89675330  0.17574490  0.39716763  1
  N  N45  1  0.78564842  0.09265872  0.13278016  1
  N  N46  1  0.54843457  0.20984358  0.82415624  1
  N  N47  1  0.44783907  0.09275283  0.58020368  1
  N  N48  1  0.22072670  0.53681231  0.32508499  1
  N  N49  1  0.10308524  0.45396779  0.06256810  1
  N  N50  1  0.88103076  0.54479791  0.86715015  1
  N  N51  1  0.78195762  0.42569929  0.62547041  1
  N  N52  1  0.52665303  0.55332427  0.32789937  1
  N  N53  1  0.44208130  0.42466714  0.07148867  1
  N  N54  1  0.22225542  0.54316127  0.82402242  1
  N  N55  1  0.11946744  0.42526298  0.59199623  1
  N  N56  1  0.89675721  0.56082118  0.39716932  1
  N  N57  1  0.77789477  0.42772944  0.09873636  1
  N  N58  1  0.54739268  0.54295990  0.82879282  1
  N  N59  1  0.44440182  0.42599032  0.57538470  1
  N  N60  1  0.22072595  0.87578558  0.32508337  1
  N  N61  1  0.11693481  0.75820945  0.07853696  1
  N  N62  1  0.88217313  0.87557098  0.88409477  1
  N  N63  1  0.78244236  0.76399377  0.63243210  1
  N  N64  1  0.54802829  0.87727969  0.32629854  1
  N  N65  1  0.44207595  0.76660829  0.07149123  1
  N  N66  1  0.22225566  0.86790366  0.82402229  1
  N  N67  1  0.11879397  0.75728123  0.57390969  1
  N  N68  1  0.88458968  0.87436347  0.37939723  1
  N  N69  1  0.78565235  0.75504086  0.13278134  1
  N  N70  1  0.54843596  0.87503009  0.82415732  1
  N  N71  1  0.44440089  0.76295450  0.57538351  1
