# generated using pymatgen
data_GdAl17N18
_symmetry_space_group_name_H-M   'P 1'
_cell_length_a   9.54995477
_cell_length_b   9.53210407
_cell_length_c   10.28500839
_cell_angle_alpha   89.65730836
_cell_angle_beta   89.28480671
_cell_angle_gamma   59.96852831
_symmetry_Int_Tables_number   1
_chemical_formula_structural   GdAl17N18
_chemical_formula_sum   'Gd2 Al34 N36'
_cell_volume   810.50127234
_cell_formula_units_Z   2
loop_
 _symmetry_equiv_pos_site_id
 _symmetry_equiv_pos_as_xyz
  1  'x, y, z'
loop_
 _atom_site_type_symbol
 _atom_site_label
 _atom_site_symmetry_multiplicity
 _atom_site_fract_x
 _atom_site_fract_y
 _atom_site_fract_z
 _atom_site_occupancy
  Al  Al0  1  0.11619477  0.08660619  0.41151708  1
  Al  Al1  1  0.77882130  0.08746518  0.83167688  1
  Al  Al2  1  0.89314189  0.20932182  0.65434524  1
  Al  Al3  1  0.45009137  0.09189398  0.40810523  1
  Al  Al4  1  0.55014832  0.20741098  0.14576512  1
  Al  Al5  1  0.11143392  0.08823316  0.89096230  1
  Al  Al6  1  0.22661741  0.20367469  0.65231503  1
  Al  Al7  1  0.78464258  0.08361719  0.32369219  1
  Al  Al8  1  0.88832950  0.19735097  0.12752906  1
  Al  Al9  1  0.44957190  0.09030444  0.89669139  1
  Al  Al10  1  0.55199426  0.20990154  0.64851959  1
  Al  Al11  1  0.12607963  0.42736264  0.41618391  1
  Al  Al12  1  0.21713488  0.54398752  0.14978609  1
  Al  Al13  1  0.76997865  0.42792299  0.89107265  1
  Al  Al14  1  0.89027024  0.54839448  0.59134848  1
  Al  Al15  1  0.43876135  0.42996854  0.39700642  1
  Al  Al16  1  0.54073024  0.54465296  0.14226860  1
  Al  Al17  1  0.11440802  0.43002703  0.89074144  1
  Al  Al18  1  0.22534287  0.54238208  0.65169652  1
  Al  Al19  1  0.87920117  0.55192309  0.07132492  1
  Al  Al20  1  0.44177257  0.42710471  0.89868691  1
  Al  Al21  1  0.55568360  0.53975081  0.65124139  1
  Al  Al22  1  0.11824279  0.75810077  0.39746568  1
  Al  Al23  1  0.21729483  0.86889976  0.14936600  1
  Al  Al24  1  0.78122760  0.76110830  0.82741715  1
  Al  Al25  1  0.88389478  0.87849715  0.57744553  1
  Al  Al26  1  0.43857135  0.76576808  0.39741146  1
  Al  Al27  1  0.55373296  0.87048618  0.14910590  1
  Al  Al28  1  0.11801185  0.75741359  0.90092067  1
  Al  Al29  1  0.22417513  0.86734759  0.64963556  1
  Al  Al30  1  0.78740657  0.76268427  0.33097565  1
  Al  Al31  1  0.88153283  0.87295247  0.07775024  1
  Al  Al32  1  0.44213877  0.76319480  0.89809777  1
  Al  Al33  1  0.55115523  0.87347805  0.64918612  1
  Gd  Gd34  1  0.21473783  0.20518899  0.15280844  1
  Gd  Gd35  1  0.77684250  0.42794512  0.37731237  1
  N  N36  1  0.22409318  0.20556265  0.37230830  1
  N  N37  1  0.09957166  0.07428946  0.07148469  1
  N  N38  1  0.88875707  0.20722097  0.84469077  1
  N  N39  1  0.78231242  0.09129067  0.64020145  1
  N  N40  1  0.55035890  0.20902929  0.33864658  1
  N  N41  1  0.46940435  0.07936179  0.07999790  1
  N  N42  1  0.22364997  0.20354714  0.84353046  1
  N  N43  1  0.11401444  0.09140277  0.59907807  1
  N  N44  1  0.91695499  0.17328390  0.32886467  1
  N  N45  1  0.77468628  0.08767844  0.13318641  1
  N  N46  1  0.54820114  0.21021799  0.83765204  1
  N  N47  1  0.45022028  0.09236993  0.59385727  1
  N  N48  1  0.22207523  0.53786279  0.33785784  1
  N  N49  1  0.10298869  0.45228264  0.07755403  1
  N  N50  1  0.88146915  0.54478832  0.88208040  1
  N  N51  1  0.77904687  0.42923554  0.60622802  1
  N  N52  1  0.51835373  0.55812490  0.32543164  1
  N  N53  1  0.43913701  0.42669111  0.08548027  1
  N  N54  1  0.22384085  0.54171611  0.83678429  1
  N  N55  1  0.12133308  0.42579199  0.60495199  1
  N  N56  1  0.90524959  0.56081969  0.40319528  1
  N  N57  1  0.77034968  0.42723885  0.09333989  1
  N  N58  1  0.54974598  0.54087309  0.84004833  1
  N  N59  1  0.44691159  0.42900245  0.58657528  1
  N  N60  1  0.22264769  0.87466098  0.33860832  1
  N  N61  1  0.11434697  0.75825897  0.09056788  1
  N  N62  1  0.88466952  0.87188277  0.89133267  1
  N  N63  1  0.78242768  0.76535602  0.64242337  1
  N  N64  1  0.55089450  0.87495541  0.34014650  1
  N  N65  1  0.44058415  0.76527546  0.08550833  1
  N  N66  1  0.22394680  0.86721013  0.83486013  1
  N  N67  1  0.11785520  0.75829125  0.58647423  1
  N  N68  1  0.88551156  0.87684311  0.39037485  1
  N  N69  1  0.78247424  0.75719486  0.14327397  1
  N  N70  1  0.54898083  0.87312811  0.83701688  1
  N  N71  1  0.44654251  0.75998565  0.58668974  1
