# generated using pymatgen
data_GdAl17N18
_symmetry_space_group_name_H-M   'P 1'
_cell_length_a   9.53591250
_cell_length_b   9.51150288
_cell_length_c   10.26117182
_cell_angle_alpha   90.05657258
_cell_angle_beta   89.83146458
_cell_angle_gamma   59.95742077
_symmetry_Int_Tables_number   1
_chemical_formula_structural   GdAl17N18
_chemical_formula_sum   'Gd2 Al34 N36'
_cell_volume   805.65454778
_cell_formula_units_Z   2
loop_
 _symmetry_equiv_pos_site_id
 _symmetry_equiv_pos_as_xyz
  1  'x, y, z'
loop_
 _atom_site_type_symbol
 _atom_site_label
 _atom_site_symmetry_multiplicity
 _atom_site_fract_x
 _atom_site_fract_y
 _atom_site_fract_z
 _atom_site_occupancy
  Al  Al0  1  0.11065494  0.08554137  0.31792224  1
  Al  Al1  1  0.77680376  0.09199365  0.81009786  1
  Al  Al2  1  0.88971979  0.20013023  0.56638553  1
  Al  Al3  1  0.45287892  0.09013564  0.31625713  1
  Al  Al4  1  0.56104651  0.20382803  0.06205737  1
  Al  Al5  1  0.11178241  0.09074100  0.80141305  1
  Al  Al6  1  0.22323966  0.20588089  0.55971151  1
  Al  Al7  1  0.78095877  0.08848349  0.31054711  1
  Al  Al8  1  0.88602662  0.19988530  0.05141023  1
  Al  Al9  1  0.44638253  0.09353465  0.80265706  1
  Al  Al10  1  0.55728687  0.20625863  0.56019030  1
  Al  Al11  1  0.10882544  0.43324886  0.31990417  1
  Al  Al12  1  0.21685940  0.55014686  0.13527058  1
  Al  Al13  1  0.77671756  0.42794245  0.81133312  1
  Al  Al14  1  0.88953147  0.54406785  0.56577821  1
  Al  Al15  1  0.44855233  0.42537903  0.31489755  1
  Al  Al16  1  0.55181765  0.53984650  0.05147130  1
  Al  Al17  1  0.10642463  0.42646965  0.80093491  1
  Al  Al18  1  0.22084903  0.54593144  0.62766720  1
  Al  Al19  1  0.88528452  0.54553827  0.05051523  1
  Al  Al20  1  0.44888111  0.42397679  0.81094968  1
  Al  Al21  1  0.55178089  0.54115957  0.56593748  1
  Al  Al22  1  0.11426636  0.75637366  0.38248251  1
  Al  Al23  1  0.22217615  0.87091397  0.06951459  1
  Al  Al24  1  0.77545834  0.76489540  0.81021485  1
  Al  Al25  1  0.88082264  0.87641604  0.56148521  1
  Al  Al26  1  0.44208086  0.76329287  0.31335658  1
  Al  Al27  1  0.56088320  0.86818513  0.06214149  1
  Al  Al28  1  0.11339719  0.75604274  0.88028999  1
  Al  Al29  1  0.22805745  0.87375052  0.56182141  1
  Al  Al30  1  0.78008120  0.76462969  0.31063894  1
  Al  Al31  1  0.88040587  0.87522960  0.06252634  1
  Al  Al32  1  0.44195155  0.76465840  0.81065218  1
  Al  Al33  1  0.55756560  0.87048779  0.56049110  1
  Gd  Gd34  1  0.22340032  0.20367774  0.06287425  1
  Gd  Gd35  1  0.78137646  0.42677597  0.30828147  1
  N  N36  1  0.22275447  0.20497567  0.36594008  1
  N  N37  1  0.09142224  0.08201878  0.13330175  1
  N  N38  1  0.89093018  0.20132566  0.86322131  1
  N  N39  1  0.77544735  0.09361643  0.62436923  1
  N  N40  1  0.55903845  0.20586799  0.37308838  1
  N  N41  1  0.47620947  0.07864072  0.13235010  1
  N  N42  1  0.22174890  0.20524598  0.84414140  1
  N  N43  1  0.11261630  0.09320222  0.61630972  1
  N  N44  1  0.89988230  0.17737463  0.38408499  1
  N  N45  1  0.77769443  0.09539906  0.12106725  1
  N  N46  1  0.55419833  0.20472874  0.87215111  1
  N  N47  1  0.44737553  0.09350980  0.61458652  1
  N  N48  1  0.22419633  0.54342110  0.32525793  1
  N  N49  1  0.08764757  0.45382549  0.13111324  1
  N  N50  1  0.88886187  0.54127112  0.86326889  1
  N  N51  1  0.77814952  0.42815401  0.61799826  1
  N  N52  1  0.53048381  0.55221557  0.38203582  1
  N  N53  1  0.45032543  0.42500406  0.12061037  1
  N  N54  1  0.21899771  0.54270122  0.82012382  1
  N  N55  1  0.11025749  0.42672449  0.61385122  1
  N  N56  1  0.89993560  0.55721656  0.38443107  1
  N  N57  1  0.77728441  0.42710453  0.08805729  1
  N  N58  1  0.55134525  0.54182747  0.86514614  1
  N  N59  1  0.45118694  0.42304664  0.62216123  1
  N  N60  1  0.22867666  0.87163248  0.37220606  1
  N  N61  1  0.11029182  0.75741086  0.07139474  1
  N  N62  1  0.88155218  0.87546110  0.87233915  1
  N  N63  1  0.77518342  0.76489926  0.62449082  1
  N  N64  1  0.55892673  0.86790722  0.37286028  1
  N  N65  1  0.44565077  0.75984274  0.12254278  1
  N  N66  1  0.22404216  0.87691477  0.87130300  1
  N  N67  1  0.11120117  0.76062721  0.57300080  1
  N  N68  1  0.88360457  0.87488456  0.37016441  1
  N  N69  1  0.77702425  0.75873318  0.12110056  1
  N  N70  1  0.55370308  0.87421783  0.87197706  1
  N  N71  1  0.44534632  0.76332549  0.62373230  1
