# generated using pymatgen
data_GdAl17N18
_symmetry_space_group_name_H-M   'P 1'
_cell_length_a   9.53280152
_cell_length_b   9.51547816
_cell_length_c   10.30306026
_cell_angle_alpha   89.83880042
_cell_angle_beta   89.43570551
_cell_angle_gamma   60.07448788
_symmetry_Int_Tables_number   1
_chemical_formula_structural   GdAl17N18
_chemical_formula_sum   'Gd2 Al34 N36'
_cell_volume   809.93690612
_cell_formula_units_Z   2
loop_
 _symmetry_equiv_pos_site_id
 _symmetry_equiv_pos_as_xyz
  1  'x, y, z'
loop_
 _atom_site_type_symbol
 _atom_site_label
 _atom_site_symmetry_multiplicity
 _atom_site_fract_x
 _atom_site_fract_y
 _atom_site_fract_z
 _atom_site_occupancy
  Al  Al0  1  0.11568859  0.08730005  0.40854274  1
  Al  Al1  1  0.77871094  0.08761725  0.83186230  1
  Al  Al2  1  0.89582269  0.20416783  0.65807441  1
  Al  Al3  1  0.45040774  0.09191084  0.40744190  1
  Al  Al4  1  0.55085753  0.20847166  0.14500940  1
  Al  Al5  1  0.11161110  0.08877435  0.89362162  1
  Al  Al6  1  0.22735066  0.20161466  0.64930026  1
  Al  Al7  1  0.78411877  0.08298185  0.32324374  1
  Al  Al8  1  0.89123406  0.19931558  0.13772457  1
  Al  Al9  1  0.44761227  0.09217878  0.89576300  1
  Al  Al10  1  0.55249987  0.20927465  0.64800473  1
  Al  Al11  1  0.11747533  0.43067026  0.41552529  1
  Al  Al12  1  0.21666735  0.54635144  0.14928696  1
  Al  Al13  1  0.77133518  0.42395696  0.89295925  1
  Al  Al14  1  0.89377982  0.53821069  0.63516028  1
  Al  Al15  1  0.43791529  0.43067102  0.39540784  1
  Al  Al16  1  0.54465620  0.54393841  0.14243557  1
  Al  Al17  1  0.11640642  0.42938798  0.88914913  1
  Al  Al18  1  0.22626772  0.54218067  0.65024703  1
  Al  Al19  1  0.87988527  0.55108276  0.07642663  1
  Al  Al20  1  0.44157118  0.42744546  0.89963484  1
  Al  Al21  1  0.55326858  0.54030980  0.65582843  1
  Al  Al22  1  0.11782561  0.75754171  0.39679040  1
  Al  Al23  1  0.21850723  0.86990952  0.14893775  1
  Al  Al24  1  0.77831156  0.76608419  0.83077003  1
  Al  Al25  1  0.88363363  0.87580415  0.57647824  1
  Al  Al26  1  0.43893343  0.76612011  0.39573503  1
  Al  Al27  1  0.55153515  0.87359316  0.14665168  1
  Al  Al28  1  0.11886663  0.75760568  0.89983916  1
  Al  Al29  1  0.22379341  0.86776427  0.64850522  1
  Al  Al30  1  0.78703487  0.76043631  0.32551056  1
  Al  Al31  1  0.88185114  0.87599074  0.07602214  1
  Al  Al32  1  0.44170297  0.76350610  0.89883352  1
  Al  Al33  1  0.55197004  0.87227983  0.64898077  1
  Gd  Gd34  1  0.21389662  0.21139739  0.15502968  1
  Gd  Gd35  1  0.77294221  0.42695197  0.39583412  1
  N  N36  1  0.22471289  0.20571311  0.37398598  1
  N  N37  1  0.10118729  0.07723957  0.07407540  1
  N  N38  1  0.89127425  0.20396841  0.84417139  1
  N  N39  1  0.78244237  0.08947417  0.63941257  1
  N  N40  1  0.55042295  0.20936845  0.33813488  1
  N  N41  1  0.46675408  0.08288626  0.07858999  1
  N  N42  1  0.22323548  0.20357390  0.84067150  1
  N  N43  1  0.11280504  0.09100090  0.59572967  1
  N  N44  1  0.91602385  0.17660559  0.32501874  1
  N  N45  1  0.77538365  0.08960343  0.13317733  1
  N  N46  1  0.54822433  0.21076852  0.83694716  1
  N  N47  1  0.45126995  0.09091469  0.59317584  1
  N  N48  1  0.22103413  0.53734292  0.33776255  1
  N  N49  1  0.10214434  0.45595274  0.07250691  1
  N  N50  1  0.88467666  0.54101897  0.86701354  1
  N  N51  1  0.77956193  0.42676873  0.61839210  1
  N  N52  1  0.52035764  0.55773317  0.32443124  1
  N  N53  1  0.43910850  0.42784149  0.08581040  1
  N  N54  1  0.22486229  0.54191035  0.83486449  1
  N  N55  1  0.11927021  0.42634840  0.60435740  1
  N  N56  1  0.90469550  0.55175057  0.37683588  1
  N  N57  1  0.77242877  0.42657986  0.08765674  1
  N  N58  1  0.54954412  0.54093580  0.84241151  1
  N  N59  1  0.44785045  0.42844883  0.58562943  1
  N  N60  1  0.22199509  0.87435416  0.33793045  1
  N  N61  1  0.11466131  0.76000237  0.08912478  1
  N  N62  1  0.88579144  0.87292721  0.89053747  1
  N  N63  1  0.78300724  0.76346089  0.64384491  1
  N  N64  1  0.55023529  0.87616918  0.33740527  1
  N  N65  1  0.44094923  0.76526151  0.08511093  1
  N  N66  1  0.22394002  0.86847369  0.83411225  1
  N  N67  1  0.11787314  0.75762993  0.58556004  1
  N  N68  1  0.88473516  0.87535999  0.38963649  1
  N  N69  1  0.77921374  0.76218702  0.13574508  1
  N  N70  1  0.54796346  0.87410480  0.83717392  1
  N  N71  1  0.44734045  0.75856963  0.58616779  1
