# generated using pymatgen
data_GdAl17N18
_symmetry_space_group_name_H-M   'P 1'
_cell_length_a   9.48622455
_cell_length_b   9.52431918
_cell_length_c   10.43782025
_cell_angle_alpha   90.00024579
_cell_angle_beta   89.74406056
_cell_angle_gamma   59.87620393
_symmetry_Int_Tables_number   1
_chemical_formula_structural   GdAl17N18
_chemical_formula_sum   'Gd2 Al34 N36'
_cell_volume   815.67823830
_cell_formula_units_Z   2
loop_
 _symmetry_equiv_pos_site_id
 _symmetry_equiv_pos_as_xyz
  1  'x, y, z'
loop_
 _atom_site_type_symbol
 _atom_site_label
 _atom_site_symmetry_multiplicity
 _atom_site_fract_x
 _atom_site_fract_y
 _atom_site_fract_z
 _atom_site_occupancy
  Al  Al0  1  0.12233708  0.08181271  0.40719543  1
  Al  Al1  1  0.77773532  0.09121466  0.81683293  1
  Al  Al2  1  0.88543615  0.20270069  0.57928223  1
  Al  Al3  1  0.44393181  0.09469503  0.39621277  1
  Al  Al4  1  0.56187396  0.20904499  0.06899837  1
  Al  Al5  1  0.11444867  0.08648821  0.88044800  1
  Al  Al6  1  0.22573348  0.20380133  0.64450845  1
  Al  Al7  1  0.78074693  0.08921174  0.32071647  1
  Al  Al8  1  0.87829461  0.20463657  0.05270918  1
  Al  Al9  1  0.44648747  0.09341464  0.87745730  1
  Al  Al10  1  0.55941812  0.20951673  0.57437513  1
  Al  Al11  1  0.12233408  0.42917329  0.40719637  1
  Al  Al12  1  0.21321449  0.54780067  0.13902506  1
  Al  Al13  1  0.77538816  0.42896871  0.81514053  1
  Al  Al14  1  0.88543174  0.54520399  0.57928331  1
  Al  Al15  1  0.44437909  0.42636425  0.32059628  1
  Al  Al16  1  0.55233842  0.54049596  0.06205668  1
  Al  Al17  1  0.11444666  0.43238775  0.88044898  1
  Al  Al18  1  0.21714099  0.54522573  0.64328325  1
  Al  Al19  1  0.87829060  0.55041105  0.05270933  1
  Al  Al20  1  0.45032673  0.42589288  0.81850713  1
  Al  Al21  1  0.54752877  0.54290269  0.57174534  1
  Al  Al22  1  0.11766471  0.75782875  0.38872540  1
  Al  Al23  1  0.21321862  0.87232120  0.13902472  1
  Al  Al24  1  0.77773577  0.76437654  0.81683271  1
  Al  Al25  1  0.88230713  0.87551577  0.56662257  1
  Al  Al26  1  0.44438214  0.76257845  0.32059540  1
  Al  Al27  1  0.56187294  0.86241030  0.06899611  1
  Al  Al28  1  0.11613629  0.75859442  0.89373712  1
  Al  Al29  1  0.21714174  0.87096824  0.64328404  1
  Al  Al30  1  0.78074480  0.76336651  0.32071652  1
  Al  Al31  1  0.88033723  0.87650233  0.07152820  1
  Al  Al32  1  0.45032768  0.75709991  0.81850737  1
  Al  Al33  1  0.55941551  0.86440242  0.57437355  1
  Gd  Gd34  1  0.21338254  0.20998224  0.14234294  1
  Gd  Gd35  1  0.78117174  0.42607021  0.31906694  1
  N  N36  1  0.21995749  0.20669176  0.35983503  1
  N  N37  1  0.10396875  0.07377995  0.06174325  1
  N  N38  1  0.88127013  0.20800690  0.86673200  1
  N  N39  1  0.77843701  0.08995592  0.63445525  1
  N  N40  1  0.55837396  0.21017318  0.38503980  1
  N  N41  1  0.46701722  0.08314779  0.08491613  1
  N  N42  1  0.22184738  0.20574781  0.83161187  1
  N  N43  1  0.11920368  0.08881644  0.59177123  1
  N  N44  1  0.89629850  0.17955871  0.39623788  1
  N  N45  1  0.77901358  0.09647494  0.13377599  1
  N  N46  1  0.55841905  0.21085585  0.88012364  1
  N  N47  1  0.44789354  0.09271157  0.59436141  1
  N  N48  1  0.21387119  0.54085294  0.32552830  1
  N  N49  1  0.10396752  0.45557238  0.06174230  1
  N  N50  1  0.88126624  0.54407100  0.86672985  1
  N  N51  1  0.77578868  0.42876471  0.62664433  1
  N  N52  1  0.52301782  0.55516172  0.39134446  1
  N  N53  1  0.45129907  0.42607106  0.13227122  1
  N  N54  1  0.21729861  0.54660369  0.82606535  1
  N  N55  1  0.11920044  0.42529711  0.59176889  1
  N  N56  1  0.89629320  0.55748677  0.39623799  1
  N  N57  1  0.78210699  0.42560671  0.10120243  1
  N  N58  1  0.55203628  0.54065039  0.87831918  1
  N  N59  1  0.45085622  0.42466907  0.63413245  1
  N  N60  1  0.21387353  0.87861368  0.32552962  1
  N  N61  1  0.11491303  0.75920256  0.07892184  1
  N  N62  1  0.88062825  0.87635931  0.88457980  1
  N  N63  1  0.77843777  0.76492831  0.63445474  1
  N  N64  1  0.55837098  0.86479998  0.38504198  1
  N  N65  1  0.45130031  0.75593965  0.13227006  1
  N  N66  1  0.21729843  0.86944077  0.82606630  1
  N  N67  1  0.11762285  0.75784681  0.57432854  1
  N  N68  1  0.88267853  0.87533286  0.38006989  1
  N  N69  1  0.77901400  0.75783584  0.13377416  1
  N  N70  1  0.55841823  0.86406564  0.88012300  1
  N  N71  1  0.45085712  0.75778797  0.63413300  1
