# generated using pymatgen
data_GdAl17N18
_symmetry_space_group_name_H-M   'P 1'
_cell_length_a   9.52926676
_cell_length_b   9.53002451
_cell_length_c   10.17676552
_cell_angle_alpha   89.94169226
_cell_angle_beta   89.85418162
_cell_angle_gamma   60.01773348
_symmetry_Int_Tables_number   1
_chemical_formula_structural   GdAl17N18
_chemical_formula_sum   'Gd2 Al34 N36'
_cell_volume   800.51607106
_cell_formula_units_Z   2
loop_
 _symmetry_equiv_pos_site_id
 _symmetry_equiv_pos_as_xyz
  1  'x, y, z'
loop_
 _atom_site_type_symbol
 _atom_site_label
 _atom_site_symmetry_multiplicity
 _atom_site_fract_x
 _atom_site_fract_y
 _atom_site_fract_z
 _atom_site_occupancy
  Al  Al0  1  0.11129625  0.08533261  0.31668988  1
  Al  Al1  1  0.77577329  0.09316614  0.81103617  1
  Al  Al2  1  0.89054079  0.19853114  0.56707502  1
  Al  Al3  1  0.45239638  0.09049326  0.31734299  1
  Al  Al4  1  0.56118545  0.20405950  0.06262464  1
  Al  Al5  1  0.11234799  0.09173052  0.80294482  1
  Al  Al6  1  0.22267554  0.20486556  0.56074829  1
  Al  Al7  1  0.77945265  0.08960839  0.31146347  1
  Al  Al8  1  0.88671870  0.20049672  0.05242876  1
  Al  Al9  1  0.44674197  0.09310462  0.80362937  1
  Al  Al10  1  0.55712866  0.20585347  0.56121139  1
  Al  Al11  1  0.11047817  0.43693471  0.31865874  1
  Al  Al12  1  0.22198445  0.54052440  0.06980489  1
  Al  Al13  1  0.77772079  0.42740060  0.81207098  1
  Al  Al14  1  0.88983821  0.54401243  0.56753384  1
  Al  Al15  1  0.44178243  0.42848737  0.31355708  1
  Al  Al16  1  0.55273071  0.54034677  0.05272103  1
  Al  Al17  1  0.11226838  0.42875388  0.80256520  1
  Al  Al18  1  0.22656459  0.53396878  0.56360046  1
  Al  Al19  1  0.88606284  0.54703758  0.05261531  1
  Al  Al20  1  0.44290296  0.42622226  0.81146142  1
  Al  Al21  1  0.54975241  0.54176231  0.56721756  1
  Al  Al22  1  0.11097690  0.76135935  0.37435085  1
  Al  Al23  1  0.22278380  0.87210108  0.06536483  1
  Al  Al24  1  0.77559419  0.76405377  0.81106650  1
  Al  Al25  1  0.88210120  0.87534005  0.56369621  1
  Al  Al26  1  0.44111074  0.76343102  0.31227913  1
  Al  Al27  1  0.56083218  0.86892894  0.06239055  1
  Al  Al28  1  0.11014978  0.76068863  0.87367522  1
  Al  Al29  1  0.22668704  0.87268385  0.56325586  1
  Al  Al30  1  0.77901567  0.76447007  0.31146512  1
  Al  Al31  1  0.88164338  0.87612928  0.06515826  1
  Al  Al32  1  0.44332052  0.76346643  0.81135697  1
  Al  Al33  1  0.55683112  0.86999090  0.56097897  1
  Gd  Gd34  1  0.22264240  0.20715611  0.06539411  1
  Gd  Gd35  1  0.78054317  0.42637745  0.31236916  1
  N  N36  1  0.22136295  0.20585793  0.36469557  1
  N  N37  1  0.09357385  0.08226009  0.13082586  1
  N  N38  1  0.89121716  0.20126088  0.86354674  1
  N  N39  1  0.77488070  0.09363345  0.62444760  1
  N  N40  1  0.55824767  0.20716434  0.37280762  1
  N  N41  1  0.47629553  0.07879045  0.13203615  1
  N  N42  1  0.22244058  0.20516220  0.84505282  1
  N  N43  1  0.11291561  0.09235585  0.61713370  1
  N  N44  1  0.90136453  0.17531524  0.38369075  1
  N  N45  1  0.77722800  0.09707112  0.12130707  1
  N  N46  1  0.55423318  0.20508695  0.87191752  1
  N  N47  1  0.44724781  0.09277430  0.61428595  1
  N  N48  1  0.22813957  0.53352272  0.37241188  1
  N  N49  1  0.09152221  0.46000370  0.13316471  1
  N  N50  1  0.89116989  0.54031136  0.86351306  1
  N  N51  1  0.77788254  0.42725678  0.61708345  1
  N  N52  1  0.52782578  0.55304746  0.38134276  1
  N  N53  1  0.44604230  0.42731391  0.12204149  1
  N  N54  1  0.22460681  0.53105719  0.87195534  1
  N  N55  1  0.11276663  0.42740739  0.61660923  1
  N  N56  1  0.90021444  0.55713156  0.38447787  1
  N  N57  1  0.77870877  0.42738399  0.09012592  1
  N  N58  1  0.55161332  0.54051808  0.86489488  1
  N  N59  1  0.44495207  0.42494226  0.62393182  1
  N  N60  1  0.22820420  0.87199358  0.37258983  1
  N  N61  1  0.10851708  0.76330308  0.07971544  1
  N  N62  1  0.88090958  0.87591929  0.87238123  1
  N  N63  1  0.77452469  0.76448509  0.62455423  1
  N  N64  1  0.55770003  0.86799321  0.37246458  1
  N  N65  1  0.44577537  0.76039483  0.12078161  1
  N  N66  1  0.22479304  0.87649966  0.87127470  1
  N  N67  1  0.11000855  0.76155688  0.58128638  1
  N  N68  1  0.88223390  0.87543770  0.37017820  1
  N  N69  1  0.77673517  0.75985134  0.12124974  1
  N  N70  1  0.55414016  0.87376010  0.87180165  1
  N  N71  1  0.44484386  0.76303440  0.62411192  1
