# generated using pymatgen
data_GdAl17N18
_symmetry_space_group_name_H-M   'P 1'
_cell_length_a   9.50897641
_cell_length_b   9.51311904
_cell_length_c   10.12980477
_cell_angle_alpha   89.99999791
_cell_angle_beta   89.92923864
_cell_angle_gamma   59.98558738
_symmetry_Int_Tables_number   1
_chemical_formula_structural   GdAl17N18
_chemical_formula_sum   'Gd2 Al34 N36'
_cell_volume   793.45970280
_cell_formula_units_Z   2
loop_
 _symmetry_equiv_pos_site_id
 _symmetry_equiv_pos_as_xyz
  1  'x, y, z'
loop_
 _atom_site_type_symbol
 _atom_site_label
 _atom_site_symmetry_multiplicity
 _atom_site_fract_x
 _atom_site_fract_y
 _atom_site_fract_z
 _atom_site_occupancy
  Al  Al0  1  0.11318533  0.08691268  0.41643883  1
  Al  Al1  1  0.77659003  0.09321190  0.90790635  1
  Al  Al2  1  0.88733520  0.20405472  0.66570563  1
  Al  Al3  1  0.44717338  0.09308700  0.41619110  1
  Al  Al4  1  0.56072335  0.20330485  0.15647234  1
  Al  Al5  1  0.10966321  0.08914772  0.90169918  1
  Al  Al6  1  0.22206035  0.20564352  0.65735273  1
  Al  Al7  1  0.78033476  0.08801976  0.40659674  1
  Al  Al8  1  0.88911803  0.19508954  0.15174367  1
  Al  Al9  1  0.45104457  0.09115141  0.90195595  1
  Al  Al10  1  0.55710865  0.20651312  0.65734906  1
  Al  Al11  1  0.11318533  0.43324936  0.41643883  1
  Al  Al12  1  0.22033191  0.54447394  0.15728156  1
  Al  Al13  1  0.77756548  0.42789095  0.90841916  1
  Al  Al14  1  0.88733522  0.54195747  0.66570564  1
  Al  Al15  1  0.43819649  0.43002544  0.40623995  1
  Al  Al16  1  0.54743393  0.54295673  0.15144948  1
  Al  Al17  1  0.10966321  0.43453645  0.90169919  1
  Al  Al18  1  0.22300860  0.54120239  0.65762467  1
  Al  Al19  1  0.88911805  0.54913981  0.15174366  1
  Al  Al20  1  0.44309384  0.42691788  0.90756740  1
  Al  Al21  1  0.55292248  0.54021245  0.66553052  1
  Al  Al22  1  0.11061387  0.76136674  0.40577591  1
  Al  Al23  1  0.22033190  0.86854152  0.15728156  1
  Al  Al24  1  0.77659003  0.76354546  0.90790635  1
  Al  Al25  1  0.88947477  0.87193631  0.65700517  1
  Al  Al26  1  0.43819647  0.76512545  0.40623995  1
  Al  Al27  1  0.56072337  0.86931919  0.15647234  1
  Al  Al28  1  0.11151736  0.76091500  0.90791351  1
  Al  Al29  1  0.22300859  0.86913639  0.65762467  1
  Al  Al30  1  0.78033476  0.76499286  0.40659675  1
  Al  Al31  1  0.88881525  0.87226607  0.15659201  1
  Al  Al32  1  0.44309384  0.76333566  0.90756740  1
  Al  Al33  1  0.55710865  0.86972561  0.65734906  1
  Gd  Gd34  1  0.22030558  0.20652088  0.15605418  1
  Gd  Gd35  1  0.77678116  0.42828311  0.40185713  1
  N  N36  1  0.22080126  0.20627306  0.37883167  1
  N  N37  1  0.09931673  0.07645911  0.08549582  1
  N  N38  1  0.88641893  0.20477449  0.85261233  1
  N  N39  1  0.77852257  0.09441299  0.59757544  1
  N  N40  1  0.55548236  0.20547988  0.34918346  1
  N  N41  1  0.47341751  0.07996494  0.08832879  1
  N  N42  1  0.22230129  0.20552305  0.85277556  1
  N  N43  1  0.10866010  0.09299129  0.60599415  1
  N  N44  1  0.90622440  0.17341167  0.33881035  1
  N  N45  1  0.77625619  0.09209869  0.09602904  1
  N  N46  1  0.55680484  0.20707517  0.84556096  1
  N  N47  1  0.44781284  0.09276727  0.60458322  1
  N  N48  1  0.22128875  0.53857293  0.34855739  1
  N  N49  1  0.09931675  0.45757152  0.08549583  1
  N  N50  1  0.88641893  0.54215397  0.85261234  1
  N  N51  1  0.77716425  0.42809158  0.62327057  1
  N  N52  1  0.52252625  0.55541057  0.33676487  1
  N  N53  1  0.44246128  0.42531636  0.09673179  1
  N  N54  1  0.22403051  0.54116600  0.84524233  1
  N  N55  1  0.10866011  0.43169599  0.60599415  1
  N  N56  1  0.90622440  0.55371131  0.33881034  1
  N  N57  1  0.77900927  0.42716906  0.10558967  1
  N  N58  1  0.55292347  0.54021196  0.85512852  1
  N  N59  1  0.44533408  0.42845055  0.59761487  1
  N  N60  1  0.22128874  0.87348569  0.34855738  1
  N  N61  1  0.11094833  0.76119952  0.09846941  1
  N  N62  1  0.88947806  0.87193467  0.84731538  1
  N  N63  1  0.77852257  0.76041183  0.59757544  1
  N  N64  1  0.55548235  0.87238515  0.34918346  1
  N  N65  1  0.44246127  0.76556975  0.09673179  1
  N  N66  1  0.22403052  0.86815085  0.84524233  1
  N  N67  1  0.11071166  0.76131786  0.59614421  1
  N  N68  1  0.88931552  0.87201593  0.34705959  1
  N  N69  1  0.77625620  0.76499251  0.09602904  1
  N  N70  1  0.55680484  0.86946737  0.84556096  1
  N  N71  1  0.44533407  0.75956274  0.59761487  1
