# generated using pymatgen
data_GdAl17N18
_symmetry_space_group_name_H-M   'P 1'
_cell_length_a   9.51712248
_cell_length_b   9.58966919
_cell_length_c   10.41937232
_cell_angle_alpha   89.98732102
_cell_angle_beta   90.16555448
_cell_angle_gamma   59.74996626
_symmetry_Int_Tables_number   1
_chemical_formula_structural   GdAl17N18
_chemical_formula_sum   'Gd2 Al34 N36'
_cell_volume   821.44617457
_cell_formula_units_Z   2
loop_
 _symmetry_equiv_pos_site_id
 _symmetry_equiv_pos_as_xyz
  1  'x, y, z'
loop_
 _atom_site_type_symbol
 _atom_site_label
 _atom_site_symmetry_multiplicity
 _atom_site_fract_x
 _atom_site_fract_y
 _atom_site_fract_z
 _atom_site_occupancy
  Al  Al0  1  0.12062134  0.08349775  0.40513759  1
  Al  Al1  1  0.78320287  0.08836960  0.81591261  1
  Al  Al2  1  0.88578946  0.20141474  0.57616301  1
  Al  Al3  1  0.44320957  0.09793400  0.40552454  1
  Al  Al4  1  0.56672994  0.20406374  0.06488501  1
  Al  Al5  1  0.11378410  0.08810708  0.88172419  1
  Al  Al6  1  0.22115935  0.20563577  0.64569858  1
  Al  Al7  1  0.77642369  0.09073219  0.32034144  1
  Al  Al8  1  0.88072993  0.20388715  0.05376857  1
  Al  Al9  1  0.44634113  0.09332195  0.87724204  1
  Al  Al10  1  0.55842920  0.20435108  0.60125528  1
  Al  Al11  1  0.12023523  0.42980639  0.40509759  1
  Al  Al12  1  0.22306344  0.54254532  0.13853754  1
  Al  Al13  1  0.77678012  0.42816602  0.81236574  1
  Al  Al14  1  0.88604632  0.54559341  0.57676771  1
  Al  Al15  1  0.43502552  0.42655430  0.39761123  1
  Al  Al16  1  0.55885428  0.53730172  0.05424227  1
  Al  Al17  1  0.11318824  0.43162478  0.88157139  1
  Al  Al18  1  0.21796426  0.54460759  0.64345503  1
  Al  Al19  1  0.87981413  0.54964159  0.05373849  1
  Al  Al20  1  0.43730529  0.43106330  0.87532882  1
  Al  Al21  1  0.55276518  0.54037828  0.57904401  1
  Al  Al22  1  0.11751365  0.75784581  0.38542558  1
  Al  Al23  1  0.22315286  0.86751199  0.13831294  1
  Al  Al24  1  0.78044691  0.76264849  0.81482175  1
  Al  Al25  1  0.88482817  0.87446845  0.56325969  1
  Al  Al26  1  0.43349301  0.77074018  0.39652961  1
  Al  Al27  1  0.56699562  0.86281332  0.06050257  1
  Al  Al28  1  0.11463744  0.75912617  0.89451881  1
  Al  Al29  1  0.21904750  0.87055943  0.64335232  1
  Al  Al30  1  0.77665436  0.76636199  0.32043991  1
  Al  Al31  1  0.88357443  0.87450603  0.07308571  1
  Al  Al32  1  0.43769779  0.76446976  0.87538652  1
  Al  Al33  1  0.56188155  0.86861305  0.58242406  1
  Gd  Gd34  1  0.22190422  0.20599401  0.14229301  1
  Gd  Gd35  1  0.77975355  0.42662785  0.31763290  1
  N  N36  1  0.21921848  0.20729855  0.36024808  1
  N  N37  1  0.10577743  0.07445938  0.06497145  1
  N  N38  1  0.88187662  0.20803218  0.86776012  1
  N  N39  1  0.78385328  0.08642398  0.63389275  1
  N  N40  1  0.55920443  0.20363656  0.37969776  1
  N  N41  1  0.46852423  0.08325803  0.06534498  1
  N  N42  1  0.21993495  0.20654715  0.83233813  1
  N  N43  1  0.11751563  0.08956657  0.59145600  1
  N  N44  1  0.89567961  0.17846655  0.39339488  1
  N  N45  1  0.77959221  0.09625798  0.13107002  1
  N  N46  1  0.55928693  0.20629999  0.85736485  1
  N  N47  1  0.44316552  0.09475942  0.59624732  1
  N  N48  1  0.22246894  0.53613290  0.32644149  1
  N  N49  1  0.10493421  0.45379793  0.06496479  1
  N  N50  1  0.88142325  0.54370695  0.86728410  1
  N  N51  1  0.77885459  0.42695512  0.62551734  1
  N  N52  1  0.53164697  0.55052852  0.39009092  1
  N  N53  1  0.43995857  0.42959673  0.07045632  1
  N  N54  1  0.21654348  0.54640948  0.82535170  1
  N  N55  1  0.11764622  0.42593303  0.59159758  1
  N  N56  1  0.89508865  0.55948067  0.39377138  1
  N  N57  1  0.78135600  0.42596045  0.09978762  1
  N  N58  1  0.55581957  0.53859161  0.86365629  1
  N  N59  1  0.43754852  0.42858142  0.59162938  1
  N  N60  1  0.22197043  0.87520754  0.32608996  1
  N  N61  1  0.11665393  0.75821088  0.08193282  1
  N  N62  1  0.88199232  0.87505399  0.88520916  1
  N  N63  1  0.78247824  0.76368492  0.63298583  1
  N  N64  1  0.55991490  0.87117139  0.38681306  1
  N  N65  1  0.44002306  0.76318443  0.07233129  1
  N  N66  1  0.21691125  0.87002306  0.82539347  1
  N  N67  1  0.11755560  0.75806514  0.57356007  1
  N  N68  1  0.88435451  0.87459126  0.37601597  1
  N  N69  1  0.77799776  0.75839197  0.13222095  1
  N  N70  1  0.56127964  0.86612690  0.86671568  1
  N  N71  1  0.43812916  0.76707589  0.59108078  1
