# generated using pymatgen
data_GdAl17N18
_symmetry_space_group_name_H-M   'P 1'
_cell_length_a   9.48766693
_cell_length_b   9.52454726
_cell_length_c   10.43072613
_cell_angle_alpha   90.00017290
_cell_angle_beta   89.73457551
_cell_angle_gamma   59.87762459
_symmetry_Int_Tables_number   1
_chemical_formula_structural   GdAl17N18
_chemical_formula_sum   'Gd2 Al34 N36'
_cell_volume   815.27823238
_cell_formula_units_Z   2
loop_
 _symmetry_equiv_pos_site_id
 _symmetry_equiv_pos_as_xyz
  1  'x, y, z'
loop_
 _atom_site_type_symbol
 _atom_site_label
 _atom_site_symmetry_multiplicity
 _atom_site_fract_x
 _atom_site_fract_y
 _atom_site_fract_z
 _atom_site_occupancy
  Al  Al0  1  0.12235952  0.08175734  0.40714513  1
  Al  Al1  1  0.77791351  0.09110514  0.81691481  1
  Al  Al2  1  0.88529987  0.20269310  0.57928217  1
  Al  Al3  1  0.44496990  0.09417732  0.39146038  1
  Al  Al4  1  0.56130672  0.20829232  0.06932492  1
  Al  Al5  1  0.11429632  0.08641608  0.88052988  1
  Al  Al6  1  0.22473167  0.20430131  0.64399206  1
  Al  Al7  1  0.78095077  0.08914055  0.32057900  1
  Al  Al8  1  0.87825921  0.20459155  0.05281204  1
  Al  Al9  1  0.44711500  0.09310335  0.86819747  1
  Al  Al10  1  0.55914636  0.20925164  0.57449200  1
  Al  Al11  1  0.12235791  0.42920806  0.40714567  1
  Al  Al12  1  0.21335991  0.54772672  0.13894349  1
  Al  Al13  1  0.77539238  0.42896701  0.81516025  1
  Al  Al14  1  0.88529723  0.54534425  0.57928298  1
  Al  Al15  1  0.44439087  0.42640499  0.32055413  1
  Al  Al16  1  0.55241665  0.54045683  0.06219924  1
  Al  Al17  1  0.11429508  0.43261357  0.88053057  1
  Al  Al18  1  0.21723096  0.54521580  0.64325351  1
  Al  Al19  1  0.87825704  0.55048709  0.05281219  1
  Al  Al20  1  0.45027307  0.42592458  0.81868439  1
  Al  Al21  1  0.54757027  0.54288129  0.57184242  1
  Al  Al22  1  0.11767580  0.75782425  0.38868578  1
  Al  Al23  1  0.21336225  0.87224786  0.13894313  1
  Al  Al24  1  0.77791381  0.76430842  0.81691466  1
  Al  Al25  1  0.88231623  0.87550988  0.56669249  1
  Al  Al26  1  0.44439275  0.76252873  0.32055371  1
  Al  Al27  1  0.56130582  0.86373127  0.06932365  1
  Al  Al28  1  0.11615181  0.75858716  0.89380997  1
  Al  Al29  1  0.21723126  0.87088693  0.64325398  1
  Al  Al30  1  0.78094948  0.76323503  0.32057920  1
  Al  Al31  1  0.88032311  0.87650745  0.07169301  1
  Al  Al32  1  0.45027366  0.75712555  0.81868454  1
  Al  Al33  1  0.55914480  0.86493671  0.57449108  1
  Gd  Gd34  1  0.21303132  0.21015488  0.14189022  1
  Gd  Gd35  1  0.78120099  0.42605847  0.31904322  1
  N  N36  1  0.22013471  0.20660107  0.36020316  1
  N  N37  1  0.10384818  0.07352976  0.06164660  1
  N  N38  1  0.88110950  0.20805259  0.86669721  1
  N  N39  1  0.77837807  0.08997419  0.63447719  1
  N  N40  1  0.55843967  0.21009193  0.38550868  1
  N  N41  1  0.46818101  0.08256826  0.09235128  1
  N  N42  1  0.22083157  0.20625329  0.83152181  1
  N  N43  1  0.11903856  0.08874862  0.59172929  1
  N  N44  1  0.89633856  0.17953896  0.39616834  1
  N  N45  1  0.77910466  0.09656547  0.13369777  1
  N  N46  1  0.55804561  0.21032034  0.88034411  1
  N  N47  1  0.44856668  0.09237716  0.59909548  1
  N  N48  1  0.21396301  0.54080959  0.32558851  1
  N  N49  1  0.10384730  0.45594593  0.06164595  1
  N  N50  1  0.88110699  0.54417939  0.86669579  1
  N  N51  1  0.77581722  0.42875258  0.62660726  1
  N  N52  1  0.52305654  0.55514060  0.39135742  1
  N  N53  1  0.45142822  0.42596404  0.13218176  1
  N  N54  1  0.21734586  0.54658083  0.82608786  1
  N  N55  1  0.11903659  0.42553438  0.59172776  1
  N  N56  1  0.89633521  0.55746161  0.39616846  1
  N  N57  1  0.78218087  0.42557154  0.10116088  1
  N  N58  1  0.55207377  0.54063068  0.87833285  1
  N  N59  1  0.45093794  0.42457021  0.63420460  1
  N  N60  1  0.21396451  0.87856242  0.32558930  1
  N  N61  1  0.11494299  0.75918965  0.07900131  1
  N  N62  1  0.88070067  0.87631989  0.88456745  1
  N  N63  1  0.77837853  0.76497191  0.63447693  1
  N  N64  1  0.55843768  0.86480943  0.38551011  1
  N  N65  1  0.45142886  0.75592496  0.13218106  1
  N  N66  1  0.21734575  0.86941172  0.82608846  1
  N  N67  1  0.11762303  0.75784910  0.57436542  1
  N  N68  1  0.88269801  0.87532048  0.38004233  1
  N  N69  1  0.77910474  0.75765612  0.13369664  1
  N  N70  1  0.55804495  0.86497110  0.88034388  1
  N  N71  1  0.45093844  0.75781109  0.63420500  1
