# generated using pymatgen
data_GdAl17N18
_symmetry_space_group_name_H-M   'P 1'
_cell_length_a   9.50897566
_cell_length_b   9.51311909
_cell_length_c   10.12980659
_cell_angle_alpha   90.00000063
_cell_angle_beta   89.92923695
_cell_angle_gamma   59.98558769
_symmetry_Int_Tables_number   1
_chemical_formula_structural   GdAl17N18
_chemical_formula_sum   'Gd2 Al34 N36'
_cell_volume   793.45978849
_cell_formula_units_Z   2
loop_
 _symmetry_equiv_pos_site_id
 _symmetry_equiv_pos_as_xyz
  1  'x, y, z'
loop_
 _atom_site_type_symbol
 _atom_site_label
 _atom_site_symmetry_multiplicity
 _atom_site_fract_x
 _atom_site_fract_y
 _atom_site_fract_z
 _atom_site_occupancy
  Al  Al0  1  0.11074337  0.08426058  0.30861312  1
  Al  Al1  1  0.77685285  0.09219803  0.80273073  1
  Al  Al2  1  0.89019812  0.19886401  0.55865714  1
  Al  Al3  1  0.45242730  0.09044371  0.30890654  1
  Al  Al4  1  0.56166468  0.20337490  0.05411515  1
  Al  Al5  1  0.11252611  0.09144287  0.79465001  1
  Al  Al6  1  0.22229603  0.20550935  0.55193746  1
  Al  Al7  1  0.77952946  0.08892634  0.30307411  1
  Al  Al8  1  0.88667613  0.20015079  0.04391769  1
  Al  Al9  1  0.44693891  0.09318790  0.79482508  1
  Al  Al10  1  0.55676764  0.20648245  0.55278805  1
  Al  Al11  1  0.11074338  0.43831076  0.30861311  1
  Al  Al12  1  0.21952647  0.54538054  0.05375841  1
  Al  Al13  1  0.77780119  0.42775676  0.80300406  1
  Al  Al14  1  0.89019811  0.54425260  0.55865715  1
  Al  Al15  1  0.43913804  0.43009557  0.30388300  1
  Al  Al16  1  0.55268781  0.54031345  0.04416481  1
  Al  Al17  1  0.11252612  0.42934572  0.79465001  1
  Al  Al18  1  0.22327151  0.54018851  0.55244915  1
  Al  Al19  1  0.88667613  0.54648781  0.04391769  1
  Al  Al20  1  0.44275282  0.42688720  0.80300623  1
  Al  Al21  1  0.54881709  0.54224881  0.55840032  1
  Al  Al22  1  0.11104606  0.76113432  0.30376286  1
  Al  Al23  1  0.21952648  0.86840770  0.05375841  1
  Al  Al24  1  0.77685285  0.76426385  0.80273073  1
  Al  Al25  1  0.88834418  0.87248528  0.55244218  1
  Al  Al26  1  0.43913803  0.76408109  0.30388299  1
  Al  Al27  1  0.56166470  0.86827514  0.05411515  1
  Al  Al28  1  0.11038672  0.76146399  0.80334994  1
  Al  Al29  1  0.22327151  0.86985469  0.55244915  1
  Al  Al30  1  0.77952947  0.76485892  0.30307411  1
  Al  Al31  1  0.88924740  0.87203368  0.05457875  1
  Al  Al32  1  0.44275282  0.76367470  0.80300622  1
  Al  Al33  1  0.55676764  0.87006463  0.55278804  1
  Gd  Gd34  1  0.22307975  0.20511749  0.05849879  1
  Gd  Gd35  1  0.77955591  0.42687941  0.30430188  1
  N  N36  1  0.22085214  0.20623129  0.35476682  1
  N  N37  1  0.09363705  0.07968890  0.12154612  1
  N  N38  1  0.89120143  0.20170415  0.85436213  1
  N  N39  1  0.77583090  0.09223431  0.61511334  1
  N  N40  1  0.55740006  0.20808403  0.36362382  1
  N  N41  1  0.47733470  0.07799000  0.12359078  1
  N  N42  1  0.22269709  0.20530881  0.83708507  1
  N  N43  1  0.11344255  0.09124619  0.60774348  1
  N  N44  1  0.90054440  0.17582892  0.37486036  1
  N  N45  1  0.77857243  0.09482730  0.11179821  1
  N  N46  1  0.55452734  0.20494978  0.86274041  1
  N  N47  1  0.44693814  0.09318828  0.60522721  1
  N  N48  1  0.22360527  0.54130185  0.36432665  1
  N  N49  1  0.09363704  0.45998877  0.12154612  1
  N  N50  1  0.89120143  0.54040915  0.85436213  1
  N  N51  1  0.77756023  0.42787724  0.60758101  1
  N  N52  1  0.52644400  0.55343536  0.37202716  1
  N  N53  1  0.44437888  0.42792049  0.11117198  1
  N  N54  1  0.22133885  0.53898733  0.86277986  1
  N  N55  1  0.11344254  0.42862597  0.60774349  1
  N  N56  1  0.90054441  0.55694141  0.37486037  1
  N  N57  1  0.77906005  0.42712734  0.08152422  1
  N  N58  1  0.55204844  0.54063315  0.85577266  1
  N  N59  1  0.44305663  0.42632511  0.61479461  1
  N  N60  1  0.22360526  0.86840759  0.36432665  1
  N  N61  1  0.11054574  0.76138449  0.11329535  1
  N  N62  1  0.88914974  0.87208250  0.86421081  1
  N  N63  1  0.77583090  0.76524952  0.61511335  1
  N  N64  1  0.55740006  0.86783063  0.36362382  1
  N  N65  1  0.44437889  0.76101533  0.11117198  1
  N  N66  1  0.22133885  0.87298854  0.86277985  1
  N  N67  1  0.11038346  0.76146562  0.61304008  1
  N  N68  1  0.88891316  0.87220079  0.36188627  1
  N  N69  1  0.77857244  0.75991500  0.11179821  1
  N  N70  1  0.55452734  0.87383762  0.86274041  1
  N  N71  1  0.44305662  0.76393298  0.61479461  1
