# generated using pymatgen
data_GdAl17N18
_symmetry_space_group_name_H-M   'P 1'
_cell_length_a   9.51535988
_cell_length_b   9.58382470
_cell_length_c   10.42169469
_cell_angle_alpha   90.01536087
_cell_angle_beta   90.18447739
_cell_angle_gamma   59.75957928
_symmetry_Int_Tables_number   1
_chemical_formula_structural   GdAl17N18
_chemical_formula_sum   'Gd2 Al34 N36'
_cell_volume   821.05647135
_cell_formula_units_Z   2
loop_
 _symmetry_equiv_pos_site_id
 _symmetry_equiv_pos_as_xyz
  1  'x, y, z'
loop_
 _atom_site_type_symbol
 _atom_site_label
 _atom_site_symmetry_multiplicity
 _atom_site_fract_x
 _atom_site_fract_y
 _atom_site_fract_z
 _atom_site_occupancy
  Al  Al0  1  0.11867017  0.08527422  0.40497740  1
  Al  Al1  1  0.78091106  0.08961163  0.81534271  1
  Al  Al2  1  0.88580427  0.20227080  0.57690912  1
  Al  Al3  1  0.44064646  0.09669351  0.40472191  1
  Al  Al4  1  0.56635457  0.20440261  0.06207895  1
  Al  Al5  1  0.11460210  0.08666505  0.88283920  1
  Al  Al6  1  0.22315117  0.20502991  0.64645045  1
  Al  Al7  1  0.77667523  0.09081414  0.32012593  1
  Al  Al8  1  0.87910390  0.20444388  0.05338272  1
  Al  Al9  1  0.44726541  0.09280154  0.88005842  1
  Al  Al10  1  0.56220084  0.20217168  0.58359579  1
  Al  Al11  1  0.11999655  0.42948775  0.40479077  1
  Al  Al12  1  0.22346736  0.54304723  0.13798889  1
  Al  Al13  1  0.77903924  0.42649653  0.81337739  1
  Al  Al14  1  0.88666628  0.54472655  0.57716119  1
  Al  Al15  1  0.43253586  0.43016243  0.39869838  1
  Al  Al16  1  0.55511324  0.54443241  0.05266250  1
  Al  Al17  1  0.11395810  0.43164440  0.88197495  1
  Al  Al18  1  0.21947847  0.54298265  0.64399595  1
  Al  Al19  1  0.87957632  0.55015302  0.05355820  1
  Al  Al20  1  0.43805547  0.43075530  0.87676320  1
  Al  Al21  1  0.55339478  0.54030220  0.58161345  1
  Al  Al22  1  0.11583107  0.75812391  0.38569627  1
  Al  Al23  1  0.22321572  0.86733300  0.13813780  1
  Al  Al24  1  0.78198161  0.76270523  0.81545112  1
  Al  Al25  1  0.88494027  0.87385047  0.56419157  1
  Al  Al26  1  0.43460736  0.77029566  0.38019662  1
  Al  Al27  1  0.56348511  0.86053157  0.06082784  1
  Al  Al28  1  0.11549082  0.75940618  0.89565032  1
  Al  Al29  1  0.21437595  0.87261592  0.64241570  1
  Al  Al30  1  0.77716682  0.76533304  0.31963280  1
  Al  Al31  1  0.88214039  0.87542362  0.07308817  1
  Al  Al32  1  0.44515042  0.76099145  0.83433775  1
  Al  Al33  1  0.56240342  0.86778049  0.58283825  1
  Gd  Gd34  1  0.22045106  0.20617983  0.14081341  1
  Gd  Gd35  1  0.77720879  0.42833935  0.31570359  1
  N  N36  1  0.21860210  0.20728404  0.35874576  1
  N  N37  1  0.10407300  0.07430718  0.06533723  1
  N  N38  1  0.88262295  0.20688678  0.86711969  1
  N  N39  1  0.78305126  0.08695125  0.63322169  1
  N  N40  1  0.55980614  0.20344654  0.38632044  1
  N  N41  1  0.46853384  0.08189439  0.06844762  1
  N  N42  1  0.22118781  0.20568735  0.83305397  1
  N  N43  1  0.11798061  0.09011229  0.59054175  1
  N  N44  1  0.89361222  0.18095623  0.39362680  1
  N  N45  1  0.77789919  0.09730250  0.13258936  1
  N  N46  1  0.56173985  0.20525295  0.86733866  1
  N  N47  1  0.44408675  0.09415746  0.59479368  1
  N  N48  1  0.22193828  0.53655696  0.32644910  1
  N  N49  1  0.10485865  0.45457743  0.06486601  1
  N  N50  1  0.88245925  0.54357384  0.86693444  1
  N  N51  1  0.77991622  0.42647493  0.62650013  1
  N  N52  1  0.53056970  0.55344876  0.39555693  1
  N  N53  1  0.44012317  0.43141195  0.07165625  1
  N  N54  1  0.21753899  0.54619614  0.82563216  1
  N  N55  1  0.11845831  0.42514209  0.59117026  1
  N  N56  1  0.89476101  0.55853147  0.39355493  1
  N  N57  1  0.78055579  0.42663520  0.09802713  1
  N  N58  1  0.55660351  0.53873250  0.86310467  1
  N  N59  1  0.43859903  0.42748958  0.59190495  1
  N  N60  1  0.21797724  0.87708397  0.32831959  1
  N  N61  1  0.11533854  0.75907545  0.08270174  1
  N  N62  1  0.88242232  0.87564026  0.88504844  1
  N  N63  1  0.78313659  0.76305408  0.63329491  1
  N  N64  1  0.55950930  0.86915849  0.38949822  1
  N  N65  1  0.44330821  0.76158588  0.09290392  1
  N  N66  1  0.21543943  0.87052464  0.82483680  1
  N  N67  1  0.11775854  0.75688965  0.57321519  1
  N  N68  1  0.88277633  0.87504325  0.37686831  1
  N  N69  1  0.77729539  0.75888135  0.13215227  1
  N  N70  1  0.56208791  0.86528864  0.86802740  1
  N  N71  1  0.44347735  0.76379779  0.61578140  1
