# generated using pymatgen
data_GdAl17N18
_symmetry_space_group_name_H-M   'P 1'
_cell_length_a   9.52749261
_cell_length_b   9.52993721
_cell_length_c   10.14706978
_cell_angle_alpha   89.98761581
_cell_angle_beta   89.89632850
_cell_angle_gamma   59.99974643
_symmetry_Int_Tables_number   1
_chemical_formula_structural   GdAl17N18
_chemical_formula_sum   'Gd2 Al34 N36'
_cell_volume   797.88073811
_cell_formula_units_Z   2
loop_
 _symmetry_equiv_pos_site_id
 _symmetry_equiv_pos_as_xyz
  1  'x, y, z'
loop_
 _atom_site_type_symbol
 _atom_site_label
 _atom_site_symmetry_multiplicity
 _atom_site_fract_x
 _atom_site_fract_y
 _atom_site_fract_z
 _atom_site_occupancy
  Al  Al0  1  0.11084432  0.08522745  0.31734020  1
  Al  Al1  1  0.77558266  0.09359886  0.81133768  1
  Al  Al2  1  0.89029992  0.19873135  0.56756895  1
  Al  Al3  1  0.45256283  0.09038431  0.31772369  1
  Al  Al4  1  0.56152688  0.20348863  0.06301938  1
  Al  Al5  1  0.11222806  0.09248694  0.80330033  1
  Al  Al6  1  0.22241732  0.20540851  0.56074383  1
  Al  Al7  1  0.77914821  0.08970088  0.31178549  1
  Al  Al8  1  0.88673407  0.20019510  0.05319203  1
  Al  Al9  1  0.44678665  0.09320943  0.80388444  1
  Al  Al10  1  0.55671371  0.20640318  0.56147175  1
  Al  Al11  1  0.11073489  0.43734786  0.31749129  1
  Al  Al12  1  0.22130215  0.54188494  0.06499904  1
  Al  Al13  1  0.77772468  0.42772808  0.81208767  1
  Al  Al14  1  0.89022728  0.54421669  0.56762936  1
  Al  Al15  1  0.44057520  0.42911170  0.31268857  1
  Al  Al16  1  0.55281617  0.54024896  0.05338093  1
  Al  Al17  1  0.11220108  0.42852246  0.80329269  1
  Al  Al18  1  0.22503487  0.53660276  0.56421002  1
  Al  Al19  1  0.88663095  0.54652701  0.05322155  1
  Al  Al20  1  0.44359905  0.42603730  0.81176349  1
  Al  Al21  1  0.54894510  0.54213385  0.56739011  1
  Al  Al22  1  0.11094886  0.76119252  0.35274426  1
  Al  Al23  1  0.22138405  0.87024507  0.06480309  1
  Al  Al24  1  0.77556302  0.76405345  0.81134213  1
  Al  Al25  1  0.88468545  0.87426210  0.56444998  1
  Al  Al26  1  0.44056150  0.76361650  0.31262261  1
  Al  Al27  1  0.56145369  0.86839595  0.06298848  1
  Al  Al28  1  0.11001259  0.76158337  0.84947299  1
  Al  Al29  1  0.22504386  0.87160829  0.56419238  1
  Al  Al30  1  0.77909038  0.76449163  0.31178629  1
  Al  Al31  1  0.88520588  0.87408424  0.06478070  1
  Al  Al32  1  0.44364019  0.76353509  0.81170651  1
  Al  Al33  1  0.55669387  0.87012197  0.56144329  1
  Gd  Gd34  1  0.22325428  0.20526498  0.06688223  1
  Gd  Gd35  1  0.77999441  0.42665081  0.31360267  1
  N  N36  1  0.22118746  0.20609036  0.36409885  1
  N  N37  1  0.09347862  0.08103329  0.13122477  1
  N  N38  1  0.89111973  0.20165293  0.86368451  1
  N  N39  1  0.77469095  0.09377615  0.62444826  1
  N  N40  1  0.55766880  0.20779490  0.37263489  1
  N  N41  1  0.47718437  0.07808151  0.13241209  1
  N  N42  1  0.22271587  0.20525560  0.84599572  1
  N  N43  1  0.11294851  0.09262853  0.61710498  1
  N  N44  1  0.90099804  0.17535161  0.38388916  1
  N  N45  1  0.77767472  0.09611183  0.12130500  1
  N  N46  1  0.55425177  0.20504996  0.87198601  1
  N  N47  1  0.44697346  0.09311134  0.61424128  1
  N  N48  1  0.22682111  0.53539164  0.37419017  1
  N  N49  1  0.09323686  0.45915726  0.13143205  1
  N  N50  1  0.89110341  0.54046008  0.86369290  1
  N  N51  1  0.77759724  0.42777282  0.61661062  1
  N  N52  1  0.52665723  0.55332715  0.38105734  1
  N  N53  1  0.44540268  0.42723039  0.12086484  1
  N  N54  1  0.22402214  0.53299010  0.87178431  1
  N  N55  1  0.11291989  0.42764086  0.61710286  1
  N  N56  1  0.90087179  0.55702058  0.38397576  1
  N  N57  1  0.77896822  0.42717272  0.09098518  1
  N  N58  1  0.55184863  0.54067369  0.86508582  1
  N  N59  1  0.44442477  0.42534339  0.62419869  1
  N  N60  1  0.22682424  0.87113011  0.37414894  1
  N  N61  1  0.10932024  0.76208858  0.09520239  1
  N  N62  1  0.88247165  0.87537423  0.87270606  1
  N  N63  1  0.77465439  0.76474758  0.62446446  1
  N  N64  1  0.55761264  0.86787701  0.37261123  1
  N  N65  1  0.44542292  0.76065725  0.12079689  1
  N  N66  1  0.22405780  0.87615049  0.87163980  1
  N  N67  1  0.11007879  0.76156487  0.60043178  1
  N  N68  1  0.88376643  0.87476050  0.37172328  1
  N  N69  1  0.77758493  0.75963267  0.12130208  1
  N  N70  1  0.55423823  0.87392439  0.87195944  1
  N  N71  1  0.44444663  0.76339967  0.62415984  1
