# generated using pymatgen
data_GdAl17N18
_symmetry_space_group_name_H-M   'P 1'
_cell_length_a   9.48561861
_cell_length_b   9.50871124
_cell_length_c   10.40761327
_cell_angle_alpha   90.00000034
_cell_angle_beta   89.52603528
_cell_angle_gamma   59.91943537
_symmetry_Int_Tables_number   1
_chemical_formula_structural   GdAl17N18
_chemical_formula_sum   'Gd2 Al34 N36'
_cell_volume   812.26194604
_cell_formula_units_Z   2
loop_
 _symmetry_equiv_pos_site_id
 _symmetry_equiv_pos_as_xyz
  1  'x, y, z'
loop_
 _atom_site_type_symbol
 _atom_site_label
 _atom_site_symmetry_multiplicity
 _atom_site_fract_x
 _atom_site_fract_y
 _atom_site_fract_z
 _atom_site_occupancy
  Al  Al0  1  0.12527536  0.08270937  0.40244435  1
  Al  Al1  1  0.77556680  0.09128046  0.81540646  1
  Al  Al2  1  0.88498139  0.20204030  0.57627232  1
  Al  Al3  1  0.45806426  0.08760029  0.32508421  1
  Al  Al4  1  0.55978892  0.20450963  0.07062023  1
  Al  Al5  1  0.11193599  0.08652678  0.87720416  1
  Al  Al6  1  0.21968266  0.20679112  0.64248509  1
  Al  Al7  1  0.78314241  0.08838399  0.31880450  1
  Al  Al8  1  0.87612155  0.20445536  0.04994848  1
  Al  Al9  1  0.45101881  0.09112304  0.82082085  1
  Al  Al10  1  0.55545166  0.20549134  0.56959101  1
  Al  Al11  1  0.12527537  0.42528018  0.40244436  1
  Al  Al12  1  0.21411666  0.54770577  0.13730779  1
  Al  Al13  1  0.77432246  0.42947120  0.81222327  1
  Al  Al14  1  0.88498138  0.54624319  0.57627231  1
  Al  Al15  1  0.44497070  0.42600463  0.31940233  1
  Al  Al16  1  0.55250655  0.54037916  0.06014880  1
  Al  Al17  1  0.11193595  0.43480216  0.87720415  1
  Al  Al18  1  0.21865616  0.54419075  0.64005885  1
  Al  Al19  1  0.87612156  0.55268798  0.04994849  1
  Al  Al20  1  0.44983290  0.42402587  0.81794208  1
  Al  Al21  1  0.54836407  0.54245039  0.57082893  1
  Al  Al22  1  0.11840199  0.75743145  0.38688464  1
  Al  Al23  1  0.21411666  0.87144249  0.13730780  1
  Al  Al24  1  0.77556679  0.76641766  0.81540647  1
  Al  Al25  1  0.88260742  0.87532873  0.56512113  1
  Al  Al26  1  0.44497071  0.76228952  0.31940233  1
  Al  Al27  1  0.55978892  0.86896632  0.07062023  1
  Al  Al28  1  0.11640789  0.75842852  0.89085302  1
  Al  Al29  1  0.21865620  0.87041797  0.64005883  1
  Al  Al30  1  0.78314241  0.76173846  0.31880450  1
  Al  Al31  1  0.88246248  0.87540120  0.06985399  1
  Al  Al32  1  0.44983292  0.75940609  0.81794208  1
  Al  Al33  1  0.55545168  0.87232187  0.56959102  1
  Gd  Gd34  1  0.20677996  0.21324248  0.12932667  1
  Gd  Gd35  1  0.78180443  0.42573020  0.31681228  1
  N  N36  1  0.22354269  0.20486110  0.34971238  1
  N  N37  1  0.10119721  0.07140854  0.05839684  1
  N  N38  1  0.87849905  0.20862204  0.86386780  1
  N  N39  1  0.77631703  0.09057242  0.63191988  1
  N  N40  1  0.55779346  0.20702344  0.38311508  1
  N  N41  1  0.47642896  0.07841795  0.13889317  1
  N  N42  1  0.21605287  0.20860603  0.83288665  1
  N  N43  1  0.11967795  0.08879432  0.58782488  1
  N  N44  1  0.89823062  0.17896345  0.39319570  1
  N  N45  1  0.77929741  0.09578072  0.13140927  1
  N  N46  1  0.55343174  0.20645403  0.88340775  1
  N  N47  1  0.45238087  0.09044200  0.63315583  1
  N  N48  1  0.21495846  0.54066748  0.32375198  1
  N  N49  1  0.10119720  0.46065917  0.05839684  1
  N  N50  1  0.87849903  0.54614381  0.86386780  1
  N  N51  1  0.77654028  0.42836229  0.62386362  1
  N  N52  1  0.52370366  0.55478060  0.38997807  1
  N  N53  1  0.45212601  0.42479863  0.13025707  1
  N  N54  1  0.21709097  0.54645508  0.82294374  1
  N  N55  1  0.11967794  0.42479264  0.58782488  1
  N  N56  1  0.89823062  0.55607077  0.39319569  1
  N  N57  1  0.78256688  0.42534900  0.09854626  1
  N  N58  1  0.55093337  0.54116575  0.87591198  1
  N  N59  1  0.45238639  0.42188097  0.63205639  1
  N  N60  1  0.21495846  0.87763895  0.32375199  1
  N  N61  1  0.11635630  0.75845431  0.07646944  1
  N  N62  1  0.88110873  0.87607809  0.88235395  1
  N  N63  1  0.77631704  0.76637543  0.63191988  1
  N  N64  1  0.55779346  0.86844795  0.38311509  1
  N  N65  1  0.45212601  0.75634021  0.13025706  1
  N  N66  1  0.21709100  0.86971885  0.82294373  1
  N  N67  1  0.11814070  0.75756210  0.57244508  1
  N  N68  1  0.88406993  0.87459746  0.37794469  1
  N  N69  1  0.77929741  0.75818676  0.13140927  1
  N  N70  1  0.55343173  0.87337912  0.88340775  1
  N  N71  1  0.45238643  0.75899748  0.63205639  1
