# generated using pymatgen
data_GdAl17N18
_symmetry_space_group_name_H-M   'P 1'
_cell_length_a   9.49377518
_cell_length_b   9.55184703
_cell_length_c   10.47351303
_cell_angle_alpha   89.96056975
_cell_angle_beta   90.05012599
_cell_angle_gamma   59.75898372
_symmetry_Int_Tables_number   1
_chemical_formula_structural   GdAl17N18
_chemical_formula_sum   'Gd2 Al34 N36'
_cell_volume   820.51948299
_cell_formula_units_Z   2
loop_
 _symmetry_equiv_pos_site_id
 _symmetry_equiv_pos_as_xyz
  1  'x, y, z'
loop_
 _atom_site_type_symbol
 _atom_site_label
 _atom_site_symmetry_multiplicity
 _atom_site_fract_x
 _atom_site_fract_y
 _atom_site_fract_z
 _atom_site_occupancy
  Al  Al0  1  0.12136016  0.08396015  0.40618928  1
  Al  Al1  1  0.78528724  0.08672414  0.81598861  1
  Al  Al2  1  0.88505135  0.20131278  0.57708845  1
  Al  Al3  1  0.44468629  0.10182496  0.40095159  1
  Al  Al4  1  0.55556132  0.20926663  0.13734805  1
  Al  Al5  1  0.11461976  0.08802392  0.88109020  1
  Al  Al6  1  0.22336024  0.20475176  0.64450308  1
  Al  Al7  1  0.78706354  0.08555823  0.31921934  1
  Al  Al8  1  0.87919548  0.20351590  0.05229641  1
  Al  Al9  1  0.44883933  0.09765007  0.88377257  1
  Al  Al10  1  0.55010312  0.20806455  0.64301855  1
  Al  Al11  1  0.11967571  0.43035818  0.40543250  1
  Al  Al12  1  0.22114879  0.54346144  0.13828516  1
  Al  Al13  1  0.77501505  0.42870864  0.81233351  1
  Al  Al14  1  0.88531467  0.54569287  0.57717282  1
  Al  Al15  1  0.43635914  0.42353096  0.39352601  1
  Al  Al16  1  0.55898453  0.53670188  0.05520674  1
  Al  Al17  1  0.11333804  0.43120940  0.88054315  1
  Al  Al18  1  0.22099826  0.54222023  0.64259564  1
  Al  Al19  1  0.87897894  0.55023616  0.05256950  1
  Al  Al20  1  0.44009598  0.42326911  0.88398522  1
  Al  Al21  1  0.55306582  0.53822774  0.57535855  1
  Al  Al22  1  0.11840943  0.75703872  0.38683188  1
  Al  Al23  1  0.22251681  0.86764805  0.13795279  1
  Al  Al24  1  0.77848274  0.76354853  0.81438806  1
  Al  Al25  1  0.88466324  0.87481238  0.56452662  1
  Al  Al26  1  0.43355452  0.77083059  0.39497484  1
  Al  Al27  1  0.56667017  0.86540340  0.06094803  1
  Al  Al28  1  0.11606960  0.75760944  0.89362865  1
  Al  Al29  1  0.22044528  0.86988307  0.64332287  1
  Al  Al30  1  0.77713671  0.76615299  0.31987232  1
  Al  Al31  1  0.88283087  0.87567931  0.07127955  1
  Al  Al32  1  0.43785036  0.76434746  0.87712339  1
  Al  Al33  1  0.56211051  0.87038856  0.57714580  1
  Gd  Gd34  1  0.22012367  0.20578115  0.14156091  1
  Gd  Gd35  1  0.78137119  0.42638024  0.31608760  1
  N  N36  1  0.21816959  0.20840730  0.35855392  1
  N  N37  1  0.10572219  0.07437339  0.06312719  1
  N  N38  1  0.88129688  0.20796998  0.86783689  1
  N  N39  1  0.78370130  0.08623641  0.63290326  1
  N  N40  1  0.54892577  0.20895680  0.32670710  1
  N  N41  1  0.47176252  0.08879969  0.06611348  1
  N  N42  1  0.22249255  0.20525597  0.83147161  1
  N  N43  1  0.11834441  0.08945287  0.59121246  1
  N  N44  1  0.89527466  0.17963497  0.39565772  1
  N  N45  1  0.78632653  0.09283270  0.13326886  1
  N  N46  1  0.55150904  0.20896926  0.82526159  1
  N  N47  1  0.44481866  0.09871086  0.58622209  1
  N  N48  1  0.22123539  0.53703515  0.32539223  1
  N  N49  1  0.10447951  0.45359778  0.06358148  1
  N  N50  1  0.88072285  0.54393067  0.86703331  1
  N  N51  1  0.77763783  0.42717831  0.62639065  1
  N  N52  1  0.53258115  0.54952165  0.38781269  1
  N  N53  1  0.44236246  0.42453922  0.07318152  1
  N  N54  1  0.22033746  0.54361027  0.82490793  1
  N  N55  1  0.11727563  0.42604561  0.59131815  1
  N  N56  1  0.89420881  0.56003833  0.39488480  1
  N  N57  1  0.78163165  0.42561544  0.09965915  1
  N  N58  1  0.55460272  0.53685527  0.86646515  1
  N  N59  1  0.43991360  0.42155430  0.58146347  1
  N  N60  1  0.22109841  0.87585465  0.32544920  1
  N  N61  1  0.11692769  0.75791298  0.08012932  1
  N  N62  1  0.88206281  0.87449373  0.88494910  1
  N  N63  1  0.78088503  0.76447420  0.63329137  1
  N  N64  1  0.55981220  0.87260660  0.38464721  1
  N  N65  1  0.44004004  0.76388268  0.07313647  1
  N  N66  1  0.21772341  0.86955269  0.82454626  1
  N  N67  1  0.11891139  0.75690539  0.57377215  1
  N  N68  1  0.88447044  0.87381228  0.37854802  1
  N  N69  1  0.77812359  0.75892884  0.13257676  1
  N  N70  1  0.56026748  0.86853692  0.86980498  1
  N  N71  1  0.43922918  0.76649607  0.58868706  1
