# generated using pymatgen
data_GdAl17N18
_symmetry_space_group_name_H-M   'P 1'
_cell_length_a   9.50897888
_cell_length_b   9.51311855
_cell_length_c   10.12980489
_cell_angle_alpha   90.00000946
_cell_angle_beta   89.92920800
_cell_angle_gamma   59.98561300
_symmetry_Int_Tables_number   1
_chemical_formula_structural   GdAl17N18
_chemical_formula_sum   'Gd2 Al34 N36'
_cell_volume   793.46008171
_cell_formula_units_Z   2
loop_
 _symmetry_equiv_pos_site_id
 _symmetry_equiv_pos_as_xyz
  1  'x, y, z'
loop_
 _atom_site_type_symbol
 _atom_site_label
 _atom_site_symmetry_multiplicity
 _atom_site_fract_x
 _atom_site_fract_y
 _atom_site_fract_z
 _atom_site_occupancy
  Al  Al0  1  0.11320472  0.08691408  0.40756999  1
  Al  Al1  1  0.77660945  0.09321343  0.89903521  1
  Al  Al2  1  0.88735460  0.20405598  0.65683516  1
  Al  Al3  1  0.44719270  0.09308827  0.40732095  1
  Al  Al4  1  0.56074261  0.20330635  0.14760125  1
  Al  Al5  1  0.10968219  0.08914918  0.89283004  1
  Al  Al6  1  0.22208003  0.20564459  0.64848395  1
  Al  Al7  1  0.78035387  0.08802091  0.39772544  1
  Al  Al8  1  0.88913714  0.19509093  0.14287567  1
  Al  Al9  1  0.45106390  0.09115264  0.89308700  1
  Al  Al10  1  0.55712808  0.20651425  0.64847795  1
  Al  Al11  1  0.11320475  0.43325043  0.40756999  1
  Al  Al12  1  0.22035104  0.54447523  0.14841078  1
  Al  Al13  1  0.77758488  0.42789216  0.89955084  1
  Al  Al14  1  0.88735461  0.54195865  0.65683517  1
  Al  Al15  1  0.43821542  0.43002670  0.39736866  1
  Al  Al16  1  0.54745279  0.54295824  0.14257990  1
  Al  Al17  1  0.10968220  0.43453783  0.89283002  1
  Al  Al18  1  0.22302806  0.54120365  0.64875364  1
  Al  Al19  1  0.88913716  0.54914123  0.14287564  1
  Al  Al20  1  0.44311308  0.42691918  0.89869644  1
  Al  Al21  1  0.55294188  0.54021365  0.65666016  1
  Al  Al22  1  0.11063303  0.76136809  0.39690409  1
  Al  Al23  1  0.22035103  0.86854301  0.14841078  1
  Al  Al24  1  0.77660943  0.76354634  0.89903521  1
  Al  Al25  1  0.88949422  0.87193750  0.64813349  1
  Al  Al26  1  0.43821538  0.76512714  0.39736866  1
  Al  Al27  1  0.56074261  0.86932031  0.14760125  1
  Al  Al28  1  0.11153678  0.76091620  0.89904243  1
  Al  Al29  1  0.22302805  0.86913749  0.64875364  1
  Al  Al30  1  0.78035387  0.76499451  0.39772542  1
  Al  Al31  1  0.88883438  0.87226747  0.14771985  1
  Al  Al32  1  0.44311307  0.76333693  0.89869645  1
  Al  Al33  1  0.55712807  0.86972686  0.64847794  1
  Gd  Gd34  1  0.22032471  0.20652232  0.14718540  1
  Gd  Gd35  1  0.77679925  0.42828505  0.39298803  1
  N  N36  1  0.22082060  0.20627433  0.36996268  1
  N  N37  1  0.09933544  0.07646098  0.07662681  1
  N  N38  1  0.88643830  0.20477606  0.84374215  1
  N  N39  1  0.77854195  0.09441421  0.58870452  1
  N  N40  1  0.55550160  0.20548119  0.34031275  1
  N  N41  1  0.47343654  0.07996634  0.07945949  1
  N  N42  1  0.22232071  0.20552426  0.84390672  1
  N  N43  1  0.10867970  0.09299256  0.59712489  1
  N  N44  1  0.90624375  0.17341344  0.32994196  1
  N  N45  1  0.77627553  0.09210045  0.08715856  1
  N  N46  1  0.55682411  0.20707631  0.83669044  1
  N  N47  1  0.44783214  0.09276850  0.59571315  1
  N  N48  1  0.22130771  0.53857400  0.33968685  1
  N  N49  1  0.09933543  0.45757284  0.07662678  1
  N  N50  1  0.88643829  0.54215488  0.84374215  1
  N  N51  1  0.77718361  0.42809278  0.61440090  1
  N  N52  1  0.52254482  0.55541223  0.32789481  1
  N  N53  1  0.44248037  0.42531778  0.08786138  1
  N  N54  1  0.22404974  0.54116709  0.83637177  1
  N  N55  1  0.10867970  0.43169691  0.59712489  1
  N  N56  1  0.90624379  0.55371213  0.32994192  1
  N  N57  1  0.77902834  0.42717045  0.09672125  1
  N  N58  1  0.55294306  0.54021308  0.84625852  1
  N  N59  1  0.44535355  0.42845174  0.58874405  1
  N  N60  1  0.22130768  0.87348757  0.33968686  1
  N  N61  1  0.11096773  0.76120075  0.08959860  1
  N  N62  1  0.88949746  0.87193589  0.83844444  1
  N  N63  1  0.77854196  0.76041298  0.58870450  1
  N  N64  1  0.55550159  0.87238650  0.34031276  1
  N  N65  1  0.44248037  0.76557106  0.08786138  1
  N  N66  1  0.22404973  0.86815239  0.83637178  1
  N  N67  1  0.11073112  0.76131901  0.58727286  1
  N  N68  1  0.88933479  0.87201727  0.33818798  1
  N  N69  1  0.77627553  0.76499328  0.08715856  1
  N  N70  1  0.55682411  0.86946879  0.83669043  1
  N  N71  1  0.44535355  0.75956384  0.58874405  1
