# generated using pymatgen
data_GdAl17N18
_symmetry_space_group_name_H-M   'P 1'
_cell_length_a   9.52991550
_cell_length_b   9.51314684
_cell_length_c   10.32152367
_cell_angle_alpha   90.26768628
_cell_angle_beta   89.67989291
_cell_angle_gamma   60.07255227
_symmetry_Int_Tables_number   1
_chemical_formula_structural   GdAl17N18
_chemical_formula_sum   'Gd2 Al34 N36'
_cell_volume   810.92720682
_cell_formula_units_Z   2
loop_
 _symmetry_equiv_pos_site_id
 _symmetry_equiv_pos_as_xyz
  1  'x, y, z'
loop_
 _atom_site_type_symbol
 _atom_site_label
 _atom_site_symmetry_multiplicity
 _atom_site_fract_x
 _atom_site_fract_y
 _atom_site_fract_z
 _atom_site_occupancy
  Al  Al0  1  0.10836353  0.08954705  0.32149932  1
  Al  Al1  1  0.77614557  0.09188001  0.80992000  1
  Al  Al2  1  0.88866847  0.19996802  0.56529061  1
  Al  Al3  1  0.45575613  0.08780686  0.31645964  1
  Al  Al4  1  0.56156161  0.20479240  0.06217040  1
  Al  Al5  1  0.10470952  0.10214875  0.80097371  1
  Al  Al6  1  0.22871934  0.19591939  0.56525220  1
  Al  Al7  1  0.78114566  0.08805288  0.30991265  1
  Al  Al8  1  0.88406695  0.20304032  0.04991443  1
  Al  Al9  1  0.44536661  0.09478663  0.80366401  1
  Al  Al10  1  0.55777356  0.20545407  0.56018368  1
  Al  Al11  1  0.12049165  0.43102601  0.38804958  1
  Al  Al12  1  0.21290689  0.54755812  0.12935342  1
  Al  Al13  1  0.77335172  0.42932409  0.80788200  1
  Al  Al14  1  0.88555092  0.54451143  0.56909172  1
  Al  Al15  1  0.44613111  0.42533228  0.31096105  1
  Al  Al16  1  0.54974832  0.54230175  0.05101629  1
  Al  Al17  1  0.10883686  0.43766780  0.86103907  1
  Al  Al18  1  0.21913992  0.54197169  0.63051025  1
  Al  Al19  1  0.87751713  0.55070390  0.04300470  1
  Al  Al20  1  0.44845778  0.42456384  0.80934715  1
  Al  Al21  1  0.55102897  0.53987110  0.56313668  1
  Al  Al22  1  0.11794582  0.75608472  0.38204483  1
  Al  Al23  1  0.21570794  0.86641376  0.13605061  1
  Al  Al24  1  0.77387684  0.76813733  0.80771378  1
  Al  Al25  1  0.88158889  0.87602303  0.55867921  1
  Al  Al26  1  0.44848366  0.75934350  0.31411864  1
  Al  Al27  1  0.56307865  0.86785055  0.06286737  1
  Al  Al28  1  0.11617895  0.76144572  0.88158402  1
  Al  Al29  1  0.22097554  0.86607532  0.62707627  1
  Al  Al30  1  0.78274631  0.76276614  0.30991176  1
  Al  Al31  1  0.88215292  0.87586861  0.06143895  1
  Al  Al32  1  0.44765098  0.76199850  0.81057182  1
  Al  Al33  1  0.55846705  0.86868292  0.55934700  1
  Gd  Gd34  1  0.22845965  0.19641873  0.06805246  1
  Gd  Gd35  1  0.78336576  0.42464296  0.30569466  1
  N  N36  1  0.22770560  0.19779475  0.36724556  1
  N  N37  1  0.08313131  0.09178045  0.13408396  1
  N  N38  1  0.88701825  0.20450534  0.86302048  1
  N  N39  1  0.77616127  0.09215254  0.62459662  1
  N  N40  1  0.55826187  0.20664292  0.37364995  1
  N  N41  1  0.48153081  0.07689215  0.13429743  1
  N  N42  1  0.22055504  0.20764824  0.84484648  1
  N  N43  1  0.10919815  0.09564181  0.61482568  1
  N  N44  1  0.89898214  0.17730100  0.38521798  1
  N  N45  1  0.77792844  0.09654773  0.12091064  1
  N  N46  1  0.55283802  0.20629630  0.87249588  1
  N  N47  1  0.45015889  0.09030320  0.61675331  1
  N  N48  1  0.21712123  0.54053473  0.31687545  1
  N  N49  1  0.09914950  0.45906860  0.05565245  1
  N  N50  1  0.87828472  0.54708187  0.85475439  1
  N  N51  1  0.77671599  0.42677720  0.61700329  1
  N  N52  1  0.52998817  0.55017488  0.38055011  1
  N  N53  1  0.44980252  0.42618262  0.12036650  1
  N  N54  1  0.21710866  0.54767882  0.81515515  1
  N  N55  1  0.11827523  0.42531276  0.57838392  1
  N  N56  1  0.89665532  0.55731231  0.38348386  1
  N  N57  1  0.77582808  0.43017659  0.08687497  1
  N  N58  1  0.54942950  0.54227649  0.86571796  1
  N  N59  1  0.45129265  0.42203548  0.62215784  1
  N  N60  1  0.22400476  0.86398364  0.32522139  1
  N  N61  1  0.11499144  0.76073270  0.06827468  1
  N  N62  1  0.88184728  0.87594014  0.87308068  1
  N  N63  1  0.77576270  0.76603223  0.62325048  1
  N  N64  1  0.56049599  0.86674994  0.37322596  1
  N  N65  1  0.44967026  0.76001252  0.12079320  1
  N  N66  1  0.21744214  0.87324775  0.81902111  1
  N  N67  1  0.11506281  0.75679368  0.56766660  1
  N  N68  1  0.88486283  0.87451199  0.36968469  1
  N  N69  1  0.78012557  0.75805601  0.12175847  1
  N  N70  1  0.55221267  0.87667336  0.87316960  1
  N  N71  1  0.45169128  0.75889479  0.62196578  1
