# generated using pymatgen
data_GdAl17N18
_symmetry_space_group_name_H-M   'P 1'
_cell_length_a   9.52926273
_cell_length_b   9.53092028
_cell_length_c   10.15196477
_cell_angle_alpha   90.01461687
_cell_angle_beta   89.90836593
_cell_angle_gamma   59.99527014
_symmetry_Int_Tables_number   1
_chemical_formula_structural   GdAl17N18
_chemical_formula_sum   'Gd2 Al34 N36'
_cell_volume   798.46023646
_cell_formula_units_Z   2
loop_
 _symmetry_equiv_pos_site_id
 _symmetry_equiv_pos_as_xyz
  1  'x, y, z'
loop_
 _atom_site_type_symbol
 _atom_site_label
 _atom_site_symmetry_multiplicity
 _atom_site_fract_x
 _atom_site_fract_y
 _atom_site_fract_z
 _atom_site_occupancy
  Al  Al0  1  0.11314917  0.08704575  0.40560000  1
  Al  Al1  1  0.77447741  0.09741559  0.89456460  1
  Al  Al2  1  0.88761913  0.20482036  0.65549007  1
  Al  Al3  1  0.44701420  0.09319841  0.40541135  1
  Al  Al4  1  0.55923016  0.20434012  0.14614994  1
  Al  Al5  1  0.10955786  0.08914853  0.89121016  1
  Al  Al6  1  0.22213590  0.20555361  0.64664508  1
  Al  Al7  1  0.77812962  0.09240788  0.39379472  1
  Al  Al8  1  0.88900708  0.19622547  0.14146395  1
  Al  Al9  1  0.45086855  0.09120504  0.89137170  1
  Al  Al10  1  0.55622769  0.20729119  0.64708892  1
  Al  Al11  1  0.11326342  0.43325656  0.40556378  1
  Al  Al12  1  0.22078456  0.54367593  0.14699064  1
  Al  Al13  1  0.77744305  0.42792461  0.89802076  1
  Al  Al14  1  0.88764376  0.54084499  0.65549807  1
  Al  Al15  1  0.43844874  0.42995176  0.39580478  1
  Al  Al16  1  0.54731628  0.54305567  0.14102513  1
  Al  Al17  1  0.10963971  0.43452574  0.89113161  1
  Al  Al18  1  0.22433572  0.53969744  0.64745506  1
  Al  Al19  1  0.88912670  0.54817009  0.14126455  1
  Al  Al20  1  0.44316438  0.42692155  0.89734493  1
  Al  Al21  1  0.55308953  0.54009371  0.65484027  1
  Al  Al22  1  0.11540211  0.75903588  0.39389179  1
  Al  Al23  1  0.22072392  0.86897842  0.14699286  1
  Al  Al24  1  0.77448690  0.76142626  0.89454331  1
  Al  Al25  1  0.88988956  0.87167387  0.60229440  1
  Al  Al26  1  0.43836778  0.76512642  0.39576821  1
  Al  Al27  1  0.55920047  0.86983265  0.14605808  1
  Al  Al28  1  0.11583309  0.75871878  0.89428098  1
  Al  Al29  1  0.22431333  0.86927533  0.64746293  1
  Al  Al30  1  0.77822261  0.76301163  0.39351894  1
  Al  Al31  1  0.88893771  0.87225021  0.09921194  1
  Al  Al32  1  0.44314221  0.76321722  0.89730699  1
  Al  Al33  1  0.55628317  0.86971581  0.64701982  1
  Gd  Gd34  1  0.21983500  0.20679145  0.14517778  1
  Gd  Gd35  1  0.77666195  0.42864439  0.39196191  1
  N  N36  1  0.22089516  0.20626817  0.36774952  1
  N  N37  1  0.09884630  0.07646723  0.07483859  1
  N  N38  1  0.88695761  0.20572618  0.84161081  1
  N  N39  1  0.77552526  0.10086830  0.58732960  1
  N  N40  1  0.55435738  0.20622675  0.33790806  1
  N  N41  1  0.47314540  0.08011980  0.07764656  1
  N  N42  1  0.22225188  0.20548189  0.84207685  1
  N  N43  1  0.10874091  0.09285267  0.59503673  1
  N  N44  1  0.90642997  0.17465943  0.32749334  1
  N  N45  1  0.77270590  0.09866145  0.08488512  1
  N  N46  1  0.55532217  0.20800113  0.83456621  1
  N  N47  1  0.44803155  0.09260471  0.59363621  1
  N  N48  1  0.22236186  0.53722568  0.33741116  1
  N  N49  1  0.09898436  0.45800076  0.07472322  1
  N  N50  1  0.88698137  0.54059361  0.84161338  1
  N  N51  1  0.77717119  0.42804935  0.61275844  1
  N  N52  1  0.52274747  0.55536673  0.32634137  1
  N  N53  1  0.44222921  0.42560683  0.08612066  1
  N  N54  1  0.22526238  0.53941614  0.83425808  1
  N  N55  1  0.10875405  0.43167055  0.59502587  1
  N  N56  1  0.90671078  0.55247316  0.32723015  1
  N  N57  1  0.77868844  0.42737356  0.09460013  1
  N  N58  1  0.55288065  0.54019798  0.84447139  1
  N  N59  1  0.44562771  0.42823834  0.58676424  1
  N  N60  1  0.22225969  0.87396050  0.33740829  1
  N  N61  1  0.11660527  0.75837556  0.08734155  1
  N  N62  1  0.88982550  0.87173991  0.86350720  1
  N  N63  1  0.77556647  0.75679889  0.58713743  1
  N  N64  1  0.55437017  0.87283473  0.33781254  1
  N  N65  1  0.44216537  0.76556917  0.08608426  1
  N  N66  1  0.22521809  0.86862398  0.83427973  1
  N  N67  1  0.11801345  0.75762573  0.58627775  1
  N  N68  1  0.89064658  0.87150323  0.36874379  1
  N  N69  1  0.77270443  0.76205641  0.08483752  1
  N  N70  1  0.55534890  0.86992609  0.83451968  1
  N  N71  1  0.44561287  0.75941409  0.58673525  1
