# generated using pymatgen
data_GdAl17N18
_symmetry_space_group_name_H-M   'P 1'
_cell_length_a   9.51387967
_cell_length_b   9.58025539
_cell_length_c   10.42525684
_cell_angle_alpha   90.01737348
_cell_angle_beta   90.18257304
_cell_angle_gamma   59.76209310
_symmetry_Int_Tables_number   1
_chemical_formula_structural   GdAl17N18
_chemical_formula_sum   'Gd2 Al34 N36'
_cell_volume   820.92465750
_cell_formula_units_Z   2
loop_
 _symmetry_equiv_pos_site_id
 _symmetry_equiv_pos_as_xyz
  1  'x, y, z'
loop_
 _atom_site_type_symbol
 _atom_site_label
 _atom_site_symmetry_multiplicity
 _atom_site_fract_x
 _atom_site_fract_y
 _atom_site_fract_z
 _atom_site_occupancy
  Al  Al0  1  0.11862546  0.08535247  0.40511897  1
  Al  Al1  1  0.78092070  0.08960282  0.81536747  1
  Al  Al2  1  0.88568896  0.20239648  0.57695588  1
  Al  Al3  1  0.44052072  0.09683133  0.40485962  1
  Al  Al4  1  0.56634056  0.20444571  0.06208820  1
  Al  Al5  1  0.11480098  0.08641507  0.88285876  1
  Al  Al6  1  0.22321771  0.20499410  0.64653711  1
  Al  Al7  1  0.77667083  0.09083036  0.32009749  1
  Al  Al8  1  0.87904664  0.20454778  0.05329562  1
  Al  Al9  1  0.44732463  0.09253427  0.88028644  1
  Al  Al10  1  0.56221257  0.20214883  0.58370209  1
  Al  Al11  1  0.12000190  0.42946768  0.40480963  1
  Al  Al12  1  0.22352651  0.54301721  0.13796673  1
  Al  Al13  1  0.77893215  0.42653850  0.81359036  1
  Al  Al14  1  0.88663136  0.54468412  0.57724303  1
  Al  Al15  1  0.43244056  0.43035256  0.39893224  1
  Al  Al16  1  0.55473995  0.54532957  0.05273689  1
  Al  Al17  1  0.11402298  0.43160943  0.88200241  1
  Al  Al18  1  0.21953742  0.54291609  0.64408190  1
  Al  Al19  1  0.87959320  0.55015445  0.05354255  1
  Al  Al20  1  0.43810464  0.43094422  0.87701523  1
  Al  Al21  1  0.55308186  0.54107898  0.58143054  1
  Al  Al22  1  0.11572672  0.75813607  0.38585931  1
  Al  Al23  1  0.22243642  0.86772037  0.13811685  1
  Al  Al24  1  0.78176648  0.76277349  0.81560110  1
  Al  Al25  1  0.88479311  0.87385496  0.56427233  1
  Al  Al26  1  0.43593407  0.76963584  0.37056580  1
  Al  Al27  1  0.56318807  0.86021370  0.06092989  1
  Al  Al28  1  0.11563352  0.75945176  0.89561659  1
  Al  Al29  1  0.21383706  0.87281496  0.64241228  1
  Al  Al30  1  0.77739355  0.76519027  0.31953576  1
  Al  Al31  1  0.88205284  0.87542264  0.07298721  1
  Al  Al32  1  0.44652845  0.76029688  0.82661824  1
  Al  Al33  1  0.56205315  0.86723578  0.58233384  1
  Gd  Gd34  1  0.22048582  0.20619058  0.14082740  1
  Gd  Gd35  1  0.77708065  0.42831450  0.31559023  1
  N  N36  1  0.21862979  0.20723613  0.35871674  1
  N  N37  1  0.10409022  0.07436758  0.06526823  1
  N  N38  1  0.88265955  0.20685487  0.86713507  1
  N  N39  1  0.78306570  0.08694993  0.63326521  1
  N  N40  1  0.55979088  0.20352988  0.38634711  1
  N  N41  1  0.46857160  0.08182089  0.06853224  1
  N  N42  1  0.22127287  0.20561465  0.83302504  1
  N  N43  1  0.11802324  0.09009964  0.59045770  1
  N  N44  1  0.89347961  0.18113704  0.39369914  1
  N  N45  1  0.77792684  0.09731913  0.13263055  1
  N  N46  1  0.56169666  0.20525734  0.86734830  1
  N  N47  1  0.44415336  0.09391707  0.59467582  1
  N  N48  1  0.22195896  0.53661099  0.32646120  1
  N  N49  1  0.10490167  0.45456673  0.06484984  1
  N  N50  1  0.88255808  0.54352816  0.86694079  1
  N  N51  1  0.77976024  0.42653795  0.62660397  1
  N  N52  1  0.53012872  0.55440477  0.39626005  1
  N  N53  1  0.44015425  0.43154614  0.07172602  1
  N  N54  1  0.21762223  0.54614181  0.82562059  1
  N  N55  1  0.11847878  0.42511829  0.59111330  1
  N  N56  1  0.89472153  0.55841079  0.39356783  1
  N  N57  1  0.78059467  0.42664726  0.09803470  1
  N  N58  1  0.55638989  0.53940347  0.86393619  1
  N  N59  1  0.43866000  0.42758794  0.59184773  1
  N  N60  1  0.21677154  0.87768537  0.32832595  1
  N  N61  1  0.11531214  0.75903839  0.08261078  1
  N  N62  1  0.88238905  0.87561885  0.88505660  1
  N  N63  1  0.78286473  0.76314125  0.63332433  1
  N  N64  1  0.55926085  0.86890438  0.38979462  1
  N  N65  1  0.44470709  0.76087686  0.09991981  1
  N  N66  1  0.21546141  0.87047239  0.82506467  1
  N  N67  1  0.11773633  0.75683381  0.57317461  1
  N  N68  1  0.88263698  0.87507614  0.37699500  1
  N  N69  1  0.77732723  0.75891728  0.13221626  1
  N  N70  1  0.56180700  0.86470146  0.86893923  1
  N  N71  1  0.44476452  0.76299396  0.62191925  1
