# generated using pymatgen
data_GdAl17N18
_symmetry_space_group_name_H-M   'P 1'
_cell_length_a   9.50804238
_cell_length_b   9.56778276
_cell_length_c   10.43767260
_cell_angle_alpha   89.97420827
_cell_angle_beta   90.13490577
_cell_angle_gamma   59.76296655
_symmetry_Int_Tables_number   1
_chemical_formula_structural   GdAl17N18
_chemical_formula_sum   'Gd2 Al34 N36'
_cell_volume   820.33729420
_cell_formula_units_Z   2
loop_
 _symmetry_equiv_pos_site_id
 _symmetry_equiv_pos_as_xyz
  1  'x, y, z'
loop_
 _atom_site_type_symbol
 _atom_site_label
 _atom_site_symmetry_multiplicity
 _atom_site_fract_x
 _atom_site_fract_y
 _atom_site_fract_z
 _atom_site_occupancy
  Al  Al0  1  0.12099143  0.08381806  0.40561630  1
  Al  Al1  1  0.78595937  0.08661290  0.81629738  1
  Al  Al2  1  0.88479373  0.20126298  0.57615662  1
  Al  Al3  1  0.44537227  0.10096626  0.40421750  1
  Al  Al4  1  0.55890715  0.20777858  0.11907846  1
  Al  Al5  1  0.11443548  0.08818762  0.88150155  1
  Al  Al6  1  0.22157966  0.20537350  0.64460652  1
  Al  Al7  1  0.78194657  0.08800531  0.31979252  1
  Al  Al8  1  0.88059731  0.20388433  0.05306658  1
  Al  Al9  1  0.44803649  0.09597357  0.87934294  1
  Al  Al10  1  0.55093797  0.20795232  0.64179065  1
  Al  Al11  1  0.12005112  0.43000452  0.40511642  1
  Al  Al12  1  0.22209905  0.54289084  0.13878593  1
  Al  Al13  1  0.77625027  0.42838546  0.81204983  1
  Al  Al14  1  0.88562463  0.54574111  0.57665196  1
  Al  Al15  1  0.43671239  0.42308499  0.39615030  1
  Al  Al16  1  0.55932524  0.53711280  0.05378997  1
  Al  Al17  1  0.11342219  0.43119051  0.88114145  1
  Al  Al18  1  0.21903627  0.54377919  0.64271963  1
  Al  Al19  1  0.87974729  0.54956372  0.05359402  1
  Al  Al20  1  0.43916332  0.42607806  0.87933983  1
  Al  Al21  1  0.55254723  0.53921331  0.57754844  1
  Al  Al22  1  0.11807920  0.75732643  0.38598538  1
  Al  Al23  1  0.22317955  0.86754503  0.13829185  1
  Al  Al24  1  0.77998916  0.76268978  0.81444089  1
  Al  Al25  1  0.88417280  0.87522416  0.56347919  1
  Al  Al26  1  0.43352969  0.77096938  0.39630209  1
  Al  Al27  1  0.56732116  0.86385256  0.05945727  1
  Al  Al28  1  0.11553583  0.75825357  0.89409853  1
  Al  Al29  1  0.21907870  0.87050589  0.64329216  1
  Al  Al30  1  0.77641267  0.76649106  0.32036845  1
  Al  Al31  1  0.88381096  0.87447780  0.07216180  1
  Al  Al32  1  0.43770031  0.76439894  0.87506863  1
  Al  Al33  1  0.56171816  0.86975146  0.58075275  1
  Gd  Gd34  1  0.22260386  0.20501115  0.14261935  1
  Gd  Gd35  1  0.77968049  0.42692119  0.31731063  1
  N  N36  1  0.21911262  0.20757183  0.36017570  1
  N  N37  1  0.10639515  0.07476866  0.06443628  1
  N  N38  1  0.88171923  0.20810748  0.86807135  1
  N  N39  1  0.78383527  0.08622774  0.63282613  1
  N  N40  1  0.55097931  0.20770848  0.33716360  1
  N  N41  1  0.47127026  0.08655819  0.06262578  1
  N  N42  1  0.22102322  0.20590524  0.83165232  1
  N  N43  1  0.11735952  0.08963131  0.59134813  1
  N  N44  1  0.89548803  0.17897961  0.39405104  1
  N  N45  1  0.78563518  0.09322674  0.13128582  1
  N  N46  1  0.55276452  0.20869144  0.82766969  1
  N  N47  1  0.44419477  0.09741380  0.59109915  1
  N  N48  1  0.22218437  0.53652384  0.32611075  1
  N  N49  1  0.10509142  0.45300059  0.06478982  1
  N  N50  1  0.88131708  0.54362490  0.86747755  1
  N  N51  1  0.77825175  0.42707163  0.62569016  1
  N  N52  1  0.53148531  0.55017879  0.38955188  1
  N  N53  1  0.44158027  0.42633369  0.06986504  1
  N  N54  1  0.21834100  0.54512349  0.82512170  1
  N  N55  1  0.11710409  0.42626403  0.59152029  1
  N  N56  1  0.89477561  0.55965953  0.39393331  1
  N  N57  1  0.78124089  0.42589146  0.09989779  1
  N  N58  1  0.55532091  0.53751477  0.86436013  1
  N  N59  1  0.43895179  0.42382985  0.58593348  1
  N  N60  1  0.22174474  0.87549172  0.32585988  1
  N  N61  1  0.11731997  0.75773216  0.08116090  1
  N  N62  1  0.88222592  0.87447151  0.88526538  1
  N  N63  1  0.78189278  0.76397688  0.63303913  1
  N  N64  1  0.55976762  0.87217061  0.38637643  1
  N  N65  1  0.44017239  0.76363637  0.07221849  1
  N  N66  1  0.21691414  0.87001558  0.82508792  1
  N  N67  1  0.11782780  0.75774027  0.57355419  1
  N  N68  1  0.88444692  0.87417239  0.37682273  1
  N  N69  1  0.77794240  0.75878621  0.13219621  1
  N  N70  1  0.56082731  0.86716937  0.86704184  1
  N  N71  1  0.43837016  0.76690428  0.59081861  1
