# generated using pymatgen
data_GdAl17N18
_symmetry_space_group_name_H-M   'P 1'
_cell_length_a   9.49048219
_cell_length_b   9.54394674
_cell_length_c   10.47323558
_cell_angle_alpha   89.93858412
_cell_angle_beta   89.98858682
_cell_angle_gamma   59.81741452
_symmetry_Int_Tables_number   1
_chemical_formula_structural   GdAl17N18
_chemical_formula_sum   'Gd2 Al34 N36'
_cell_volume   820.02204064
_cell_formula_units_Z   2
loop_
 _symmetry_equiv_pos_site_id
 _symmetry_equiv_pos_as_xyz
  1  'x, y, z'
loop_
 _atom_site_type_symbol
 _atom_site_label
 _atom_site_symmetry_multiplicity
 _atom_site_fract_x
 _atom_site_fract_y
 _atom_site_fract_z
 _atom_site_occupancy
  Al  Al0  1  0.12136340  0.08403942  0.40657274  1
  Al  Al1  1  0.78477935  0.08705061  0.81556248  1
  Al  Al2  1  0.88456147  0.20171418  0.57740281  1
  Al  Al3  1  0.44574432  0.09960283  0.40088536  1
  Al  Al4  1  0.55619327  0.20859070  0.13914256  1
  Al  Al5  1  0.11443972  0.08820520  0.88061332  1
  Al  Al6  1  0.22246780  0.20548985  0.64446959  1
  Al  Al7  1  0.78801011  0.08508612  0.31964576  1
  Al  Al8  1  0.87912137  0.20355281  0.05203374  1
  Al  Al9  1  0.44894919  0.09780540  0.88364850  1
  Al  Al10  1  0.54955852  0.20886901  0.64250263  1
  Al  Al11  1  0.11962936  0.43028334  0.40567433  1
  Al  Al12  1  0.22089695  0.54325054  0.13829936  1
  Al  Al13  1  0.77384090  0.42930553  0.81241597  1
  Al  Al14  1  0.88439180  0.54625412  0.57700027  1
  Al  Al15  1  0.43618446  0.42357550  0.39182255  1
  Al  Al16  1  0.55901711  0.53679274  0.05628543  1
  Al  Al17  1  0.11376628  0.43062052  0.88018764  1
  Al  Al18  1  0.22134132  0.54183957  0.64242889  1
  Al  Al19  1  0.87988263  0.54929594  0.05226196  1
  Al  Al20  1  0.44027587  0.42290470  0.88552034  1
  Al  Al21  1  0.55253002  0.53822512  0.57314444  1
  Al  Al22  1  0.11877286  0.75689232  0.38711632  1
  Al  Al23  1  0.22218175  0.86805054  0.13807550  1
  Al  Al24  1  0.77969246  0.76305571  0.81515987  1
  Al  Al25  1  0.88412081  0.87474646  0.56435622  1
  Al  Al26  1  0.43454129  0.77196861  0.39405499  1
  Al  Al27  1  0.56719398  0.86552631  0.06348757  1
  Al  Al28  1  0.11673001  0.75722241  0.89316708  1
  Al  Al29  1  0.21977225  0.86978058  0.64331797  1
  Al  Al30  1  0.77716291  0.76627000  0.31977995  1
  Al  Al31  1  0.88377147  0.87571161  0.07094850  1
  Al  Al32  1  0.43762360  0.76472735  0.87820852  1
  Al  Al33  1  0.55932625  0.87164954  0.58650382  1
  Gd  Gd34  1  0.22109541  0.20478153  0.14184123  1
  Gd  Gd35  1  0.78199693  0.42626417  0.31590351  1
  N  N36  1  0.21836645  0.20839278  0.35891224  1
  N  N37  1  0.10562754  0.07456770  0.06269462  1
  N  N38  1  0.88098973  0.20819641  0.86750587  1
  N  N39  1  0.78304133  0.08635211  0.63259041  1
  N  N40  1  0.54931990  0.20825218  0.32676406  1
  N  N41  1  0.47304028  0.08832436  0.06567163  1
  N  N42  1  0.22269042  0.20517791  0.83126081  1
  N  N43  1  0.11782027  0.08961587  0.59168813  1
  N  N44  1  0.89531907  0.17993185  0.39617723  1
  N  N45  1  0.78706440  0.09243684  0.13382290  1
  N  N46  1  0.55110371  0.20965828  0.82473621  1
  N  N47  1  0.44404854  0.09911744  0.58629323  1
  N  N48  1  0.22075773  0.53719517  0.32505003  1
  N  N49  1  0.10535409  0.45229566  0.06327894  1
  N  N50  1  0.88101671  0.54349087  0.86706162  1
  N  N51  1  0.77617015  0.42795788  0.62632805  1
  N  N52  1  0.53226255  0.55019215  0.38602119  1
  N  N53  1  0.44279007  0.42393729  0.07469657  1
  N  N54  1  0.22120010  0.54296112  0.82488625  1
  N  N55  1  0.11639338  0.42655874  0.59157340  1
  N  N56  1  0.89423217  0.56024992  0.39502476  1
  N  N57  1  0.78180775  0.42549000  0.09972172  1
  N  N58  1  0.55424479  0.53711296  0.86806636  1
  N  N59  1  0.43941765  0.42151761  0.57955513  1
  N  N60  1  0.22103710  0.87608808  0.32545871  1
  N  N61  1  0.11775634  0.75743144  0.07952803  1
  N  N62  1  0.88259060  0.87476299  0.88481287  1
  N  N63  1  0.78084859  0.76441635  0.63402767  1
  N  N64  1  0.55915628  0.87318656  0.38034924  1
  N  N65  1  0.44015491  0.76470899  0.07303405  1
  N  N66  1  0.21806407  0.86947513  0.82443645  1
  N  N67  1  0.11844945  0.75674825  0.57403156  1
  N  N68  1  0.88497769  0.87344852  0.37872235  1
  N  N69  1  0.77992380  0.75801980  0.13177023  1
  N  N70  1  0.55902516  0.86961881  0.86538966  1
  N  N71  1  0.43823275  0.76646385  0.58769804  1
