# generated using pymatgen
data_GdAl17N18
_symmetry_space_group_name_H-M   'P 1'
_cell_length_a   9.54034878
_cell_length_b   9.53011806
_cell_length_c   10.19170477
_cell_angle_alpha   89.89489446
_cell_angle_beta   89.81965923
_cell_angle_gamma   59.99756169
_symmetry_Int_Tables_number   1
_chemical_formula_structural   GdAl17N18
_chemical_formula_sum   'Gd2 Al34 N36'
_cell_volume   802.46695443
_cell_formula_units_Z   2
loop_
 _symmetry_equiv_pos_site_id
 _symmetry_equiv_pos_as_xyz
  1  'x, y, z'
loop_
 _atom_site_type_symbol
 _atom_site_label
 _atom_site_symmetry_multiplicity
 _atom_site_fract_x
 _atom_site_fract_y
 _atom_site_fract_z
 _atom_site_occupancy
  Al  Al0  1  0.11146722  0.08506835  0.31580863  1
  Al  Al1  1  0.77649587  0.09228705  0.81111048  1
  Al  Al2  1  0.89069773  0.19842754  0.56681990  1
  Al  Al3  1  0.45252191  0.09018402  0.31674149  1
  Al  Al4  1  0.56082948  0.20473212  0.06210160  1
  Al  Al5  1  0.11231364  0.09066925  0.80299566  1
  Al  Al6  1  0.22325719  0.20328613  0.56018239  1
  Al  Al7  1  0.78024505  0.08905720  0.31087382  1
  Al  Al8  1  0.88680737  0.20057932  0.05183191  1
  Al  Al9  1  0.44654192  0.09334476  0.80338404  1
  Al  Al10  1  0.55835156  0.20434488  0.56071529  1
  Al  Al11  1  0.10824075  0.43424277  0.32254189  1
  Al  Al12  1  0.21841085  0.54918351  0.12219099  1
  Al  Al13  1  0.77747170  0.42715838  0.81208696  1
  Al  Al14  1  0.88832998  0.54404452  0.56703687  1
  Al  Al15  1  0.44761611  0.42562512  0.31707629  1
  Al  Al16  1  0.55227569  0.54027564  0.05180053  1
  Al  Al17  1  0.11054487  0.42832947  0.80019554  1
  Al  Al18  1  0.22463347  0.53792461  0.58961028  1
  Al  Al19  1  0.88533081  0.54719486  0.05137704  1
  Al  Al20  1  0.44357942  0.42620620  0.81001707  1
  Al  Al21  1  0.55147130  0.54159824  0.56662965  1
  Al  Al22  1  0.11125900  0.76136401  0.37870283  1
  Al  Al23  1  0.22319434  0.87296747  0.06411814  1
  Al  Al24  1  0.77596058  0.76415715  0.81109969  1
  Al  Al25  1  0.88090065  0.87575247  0.56268839  1
  Al  Al26  1  0.44122129  0.76371733  0.31187139  1
  Al  Al27  1  0.56049674  0.86923189  0.06197769  1
  Al  Al28  1  0.11307657  0.75441286  0.87849791  1
  Al  Al29  1  0.22763993  0.87319911  0.56223931  1
  Al  Al30  1  0.77877272  0.76484230  0.31100057  1
  Al  Al31  1  0.88035483  0.87674444  0.06405338  1
  Al  Al32  1  0.44271974  0.76346894  0.81141293  1
  Al  Al33  1  0.55695632  0.86990670  0.56086599  1
  Gd  Gd34  1  0.22261624  0.20910054  0.06377648  1
  Gd  Gd35  1  0.78106813  0.42636309  0.31062701  1
  N  N36  1  0.22214476  0.20455229  0.36518646  1
  N  N37  1  0.09396155  0.08284915  0.13006648  1
  N  N38  1  0.89122750  0.20097155  0.86329256  1
  N  N39  1  0.77562170  0.09289431  0.62446195  1
  N  N40  1  0.55938881  0.20536233  0.37305000  1
  N  N41  1  0.47589937  0.07934941  0.13171431  1
  N  N42  1  0.22196520  0.20508620  0.84388081  1
  N  N43  1  0.11290568  0.09170116  0.61717589  1
  N  N44  1  0.90151137  0.17545501  0.38333593  1
  N  N45  1  0.77724194  0.09715148  0.12098728  1
  N  N46  1  0.55421106  0.20521435  0.87159667  1
  N  N47  1  0.44745105  0.09259173  0.61422762  1
  N  N48  1  0.22626099  0.53855061  0.34837013  1
  N  N49  1  0.08717142  0.45873225  0.13530690  1
  N  N50  1  0.89059086  0.54007638  0.86280862  1
  N  N51  1  0.77819217  0.42685702  0.61739572  1
  N  N52  1  0.52959885  0.55341420  0.38165049  1
  N  N53  1  0.44898473  0.42632459  0.12363758  1
  N  N54  1  0.22157561  0.53671229  0.83978614  1
  N  N55  1  0.11110644  0.42534441  0.61220853  1
  N  N56  1  0.89832122  0.55799807  0.38495220  1
  N  N57  1  0.77807817  0.42757832  0.08899885  1
  N  N58  1  0.55170003  0.54034811  0.86445021  1
  N  N59  1  0.44963363  0.42263795  0.62032421  1
  N  N60  1  0.22871789  0.87229680  0.37213298  1
  N  N61  1  0.10888613  0.76253918  0.07727433  1
  N  N62  1  0.88176189  0.87526908  0.87277917  1
  N  N63  1  0.77465262  0.76442209  0.62457692  1
  N  N64  1  0.55774612  0.86807887  0.37234773  1
  N  N65  1  0.44559097  0.76034292  0.12057980  1
  N  N66  1  0.22444170  0.87580366  0.87164765  1
  N  N67  1  0.10982221  0.76214377  0.57497218  1
  N  N68  1  0.88203678  0.87543655  0.36971564  1
  N  N69  1  0.77643260  0.75998777  0.12088580  1
  N  N70  1  0.55401941  0.87377111  0.87158879  1
  N  N71  1  0.44488986  0.76289103  0.62406574  1
