# generated using pymatgen
data_GdAl17N18
_symmetry_space_group_name_H-M   'P 1'
_cell_length_a   9.48480947
_cell_length_b   9.52656581
_cell_length_c   10.47166286
_cell_angle_alpha   89.95262340
_cell_angle_beta   89.98660541
_cell_angle_gamma   59.83761264
_symmetry_Int_Tables_number   1
_chemical_formula_structural   GdAl17N18
_chemical_formula_sum   'Gd2 Al34 N36'
_cell_volume   818.08444258
_cell_formula_units_Z   2
loop_
 _symmetry_equiv_pos_site_id
 _symmetry_equiv_pos_as_xyz
  1  'x, y, z'
loop_
 _atom_site_type_symbol
 _atom_site_label
 _atom_site_symmetry_multiplicity
 _atom_site_fract_x
 _atom_site_fract_y
 _atom_site_fract_z
 _atom_site_occupancy
  Al  Al0  1  0.12119673  0.08398303  0.40636131  1
  Al  Al1  1  0.78428750  0.08754366  0.81521553  1
  Al  Al2  1  0.88429477  0.20191865  0.57730484  1
  Al  Al3  1  0.44858896  0.09294886  0.39973507  1
  Al  Al4  1  0.55661586  0.20768205  0.13832286  1
  Al  Al5  1  0.11450655  0.08845691  0.88016162  1
  Al  Al6  1  0.22241937  0.20572012  0.64335626  1
  Al  Al7  1  0.78746656  0.08536463  0.31960212  1
  Al  Al8  1  0.87917873  0.20368699  0.05202012  1
  Al  Al9  1  0.45103830  0.09316097  0.88363071  1
  Al  Al10  1  0.54943189  0.20832788  0.64154413  1
  Al  Al11  1  0.12000747  0.42969856  0.40587492  1
  Al  Al12  1  0.22087359  0.54320840  0.13835142  1
  Al  Al13  1  0.77342447  0.42948317  0.81209998  1
  Al  Al14  1  0.88350529  0.54731992  0.57660568  1
  Al  Al15  1  0.43619308  0.42333870  0.39153264  1
  Al  Al16  1  0.55955952  0.53656472  0.05535410  1
  Al  Al17  1  0.11443264  0.42988498  0.88002096  1
  Al  Al18  1  0.22115043  0.54199703  0.64226377  1
  Al  Al19  1  0.88017089  0.54895598  0.05180384  1
  Al  Al20  1  0.44016142  0.42292409  0.88485845  1
  Al  Al21  1  0.55227090  0.53946591  0.57195394  1
  Al  Al22  1  0.11932405  0.75695758  0.38732836  1
  Al  Al23  1  0.22146786  0.86874221  0.13832258  1
  Al  Al24  1  0.78401546  0.76124367  0.81557676  1
  Al  Al25  1  0.88318302  0.87468098  0.56415152  1
  Al  Al26  1  0.43694550  0.77448157  0.39362755  1
  Al  Al27  1  0.55974378  0.86921569  0.11702246  1
  Al  Al28  1  0.11754988  0.75722721  0.89279420  1
  Al  Al29  1  0.21999976  0.86965942  0.64252173  1
  Al  Al30  1  0.78143704  0.76404686  0.31942653  1
  Al  Al31  1  0.88408374  0.87555209  0.07018855  1
  Al  Al32  1  0.43918527  0.76768428  0.88020276  1
  Al  Al33  1  0.55009596  0.87599762  0.63889022  1
  Gd  Gd34  1  0.22197946  0.20482246  0.14221444  1
  Gd  Gd35  1  0.78147762  0.42639421  0.31592225  1
  N  N36  1  0.21834769  0.20820603  0.35930769  1
  N  N37  1  0.10573636  0.07527732  0.06274104  1
  N  N38  1  0.88085467  0.20834890  0.86761494  1
  N  N39  1  0.78283996  0.08653435  0.63252206  1
  N  N40  1  0.54885778  0.20766779  0.32629535  1
  N  N41  1  0.47665842  0.08206293  0.06343883  1
  N  N42  1  0.22308071  0.20506900  0.83090720  1
  N  N43  1  0.11734516  0.08984716  0.59169421  1
  N  N44  1  0.89504312  0.17998224  0.39616933  1
  N  N45  1  0.78728793  0.09216603  0.13361820  1
  N  N46  1  0.55053497  0.20912865  0.82448289  1
  N  N47  1  0.44644324  0.09458220  0.58367654  1
  N  N48  1  0.22052974  0.53718944  0.32484780  1
  N  N49  1  0.10615117  0.45130076  0.06299674  1
  N  N50  1  0.88086651  0.54334655  0.86756887  1
  N  N51  1  0.77564398  0.42849598  0.62629295  1
  N  N52  1  0.53163168  0.55115034  0.38572186  1
  N  N53  1  0.44289069  0.42357143  0.07433511  1
  N  N54  1  0.22102310  0.54304501  0.82467262  1
  N  N55  1  0.11628333  0.42668060  0.59147787  1
  N  N56  1  0.89416723  0.55992881  0.39521194  1
  N  N57  1  0.78152978  0.42578748  0.09978490  1
  N  N58  1  0.55376891  0.53840567  0.86817574  1
  N  N59  1  0.43936932  0.42169371  0.57942340  1
  N  N60  1  0.22117114  0.87574284  0.32529046  1
  N  N61  1  0.11862808  0.75730560  0.07895130  1
  N  N62  1  0.88276140  0.87516283  0.88494861  1
  N  N63  1  0.78270534  0.76358387  0.63320323  1
  N  N64  1  0.55060884  0.87726949  0.33614485  1
  N  N65  1  0.44185581  0.76686479  0.07052082  1
  N  N66  1  0.21913070  0.86911865  0.82421247  1
  N  N67  1  0.11853229  0.75687531  0.57389453  1
  N  N68  1  0.88489089  0.87373446  0.37906323  1
  N  N69  1  0.78646998  0.75457299  0.13113299  1
  N  N70  1  0.55087544  0.87459152  0.82814852  1
  N  N71  1  0.43944403  0.76972102  0.58342871  1
