# generated using pymatgen
data_GdAl17N18
_symmetry_space_group_name_H-M   'P 1'
_cell_length_a   9.48561766
_cell_length_b   9.50871209
_cell_length_c   10.40762257
_cell_angle_alpha   90.00000010
_cell_angle_beta   89.52621628
_cell_angle_gamma   59.91936728
_symmetry_Int_Tables_number   1
_chemical_formula_structural   GdAl17N18
_chemical_formula_sum   'Gd2 Al34 N36'
_cell_volume   812.26213317
_cell_formula_units_Z   2
loop_
 _symmetry_equiv_pos_site_id
 _symmetry_equiv_pos_as_xyz
  1  'x, y, z'
loop_
 _atom_site_type_symbol
 _atom_site_label
 _atom_site_symmetry_multiplicity
 _atom_site_fract_x
 _atom_site_fract_y
 _atom_site_fract_z
 _atom_site_occupancy
  Al  Al0  1  0.12526297  0.08272659  0.40663224  1
  Al  Al1  1  0.77555597  0.09129936  0.81959907  1
  Al  Al2  1  0.88497072  0.20205777  0.58046230  1
  Al  Al3  1  0.45805308  0.08761913  0.32927961  1
  Al  Al4  1  0.55977677  0.20452719  0.07480740  1
  Al  Al5  1  0.11192493  0.08654794  0.88139244  1
  Al  Al6  1  0.21967162  0.20680981  0.64666625  1
  Al  Al7  1  0.78313007  0.08840320  0.32299441  1
  Al  Al8  1  0.87611165  0.20447413  0.05414070  1
  Al  Al9  1  0.45100669  0.09114236  0.82500309  1
  Al  Al10  1  0.55544136  0.20551172  0.57378025  1
  Al  Al11  1  0.12526306  0.42530176  0.40663225  1
  Al  Al12  1  0.21410654  0.54772328  0.14149459  1
  Al  Al13  1  0.77431107  0.42949014  0.81641060  1
  Al  Al14  1  0.88497078  0.54626272  0.58046228  1
  Al  Al15  1  0.44495830  0.42602368  0.32359030  1
  Al  Al16  1  0.55249763  0.54039690  0.06434117  1
  Al  Al17  1  0.11192497  0.43481846  0.88139241  1
  Al  Al18  1  0.21864481  0.54421054  0.64425333  1
  Al  Al19  1  0.87611170  0.55270543  0.05414071  1
  Al  Al20  1  0.44982260  0.42404485  0.82213560  1
  Al  Al21  1  0.54835027  0.54247053  0.57501715  1
  Al  Al22  1  0.11839042  0.75745050  0.39107130  1
  Al  Al23  1  0.21410651  0.87146148  0.14149463  1
  Al  Al24  1  0.77555597  0.76643603  0.81959908  1
  Al  Al25  1  0.88259724  0.87534701  0.56931168  1
  Al  Al26  1  0.44495823  0.76230948  0.32359029  1
  Al  Al27  1  0.55977679  0.86898737  0.07480740  1
  Al  Al28  1  0.11639674  0.75844735  0.89504709  1
  Al  Al29  1  0.21864484  0.87043595  0.64425332  1
  Al  Al30  1  0.78313013  0.76175803  0.32299440  1
  Al  Al31  1  0.88245014  0.87542054  0.07404342  1
  Al  Al32  1  0.44982258  0.75942402  0.82213559  1
  Al  Al33  1  0.55544139  0.87233823  0.57378024  1
  Gd  Gd34  1  0.20676881  0.21326111  0.13352177  1
  Gd  Gd35  1  0.78179130  0.42575008  0.32100515  1
  N  N36  1  0.22353136  0.20487992  0.35390679  1
  N  N37  1  0.10118781  0.07142885  0.06258509  1
  N  N38  1  0.87848730  0.20864199  0.86805883  1
  N  N39  1  0.77630664  0.09059076  0.63611140  1
  N  N40  1  0.55778219  0.20704387  0.38730543  1
  N  N41  1  0.47641763  0.07843699  0.14308640  1
  N  N42  1  0.21604166  0.20862477  0.83706927  1
  N  N43  1  0.11966690  0.08881068  0.59201320  1
  N  N44  1  0.89821813  0.17898207  0.39738543  1
  N  N45  1  0.77928601  0.09579968  0.13559882  1
  N  N46  1  0.55341997  0.20647119  0.88759608  1
  N  N47  1  0.45237036  0.09046057  0.63733970  1
  N  N48  1  0.21494639  0.54068655  0.32793832  1
  N  N49  1  0.10118790  0.46067476  0.06258510  1
  N  N50  1  0.87848738  0.54616183  0.86805886  1
  N  N51  1  0.77652901  0.42838122  0.62805148  1
  N  N52  1  0.52368869  0.55480126  0.39416656  1
  N  N53  1  0.45211565  0.42481653  0.13444552  1
  N  N54  1  0.21708022  0.54647389  0.82713748  1
  N  N55  1  0.11966697  0.42481389  0.59201322  1
  N  N56  1  0.89821826  0.55609090  0.39738541  1
  N  N57  1  0.78255775  0.42536685  0.10274002  1
  N  N58  1  0.55092419  0.54118355  0.88010465  1
  N  N59  1  0.45237549  0.42190029  0.63624927  1
  N  N60  1  0.21494633  0.87765830  0.32793833  1
  N  N61  1  0.11634381  0.75847378  0.08066071  1
  N  N62  1  0.88109787  0.87609665  0.88654494  1
  N  N63  1  0.77630668  0.76639401  0.63611139  1
  N  N64  1  0.55778225  0.86846512  0.38730541  1
  N  N65  1  0.45211562  0.75635939  0.13444552  1
  N  N66  1  0.21708024  0.86973706  0.82713746  1
  N  N67  1  0.11813087  0.75758030  0.57663392  1
  N  N68  1  0.88405756  0.87461680  0.38213459  1
  N  N69  1  0.77928605  0.75820567  0.13559883  1
  N  N70  1  0.55341999  0.87340012  0.88759609  1
  N  N71  1  0.45237552  0.75901574  0.63624926  1
