# generated using pymatgen
data_GdAl17N18
_symmetry_space_group_name_H-M   'P 1'
_cell_length_a   9.50898158
_cell_length_b   9.51312250
_cell_length_c   10.12980839
_cell_angle_alpha   90.00000025
_cell_angle_beta   89.92923596
_cell_angle_gamma   59.98559517
_symmetry_Int_Tables_number   1
_chemical_formula_structural   GdAl17N18
_chemical_formula_sum   'Gd2 Al34 N36'
_cell_volume   793.46076854
_cell_formula_units_Z   2
loop_
 _symmetry_equiv_pos_site_id
 _symmetry_equiv_pos_as_xyz
  1  'x, y, z'
loop_
 _atom_site_type_symbol
 _atom_site_label
 _atom_site_symmetry_multiplicity
 _atom_site_fract_x
 _atom_site_fract_y
 _atom_site_fract_z
 _atom_site_occupancy
  Al  Al0  1  0.11075231  0.08426139  0.30425185  1
  Al  Al1  1  0.77686168  0.09219915  0.79837524  1
  Al  Al2  1  0.89020746  0.19886507  0.55429860  1
  Al  Al3  1  0.45243685  0.09044454  0.30454863  1
  Al  Al4  1  0.56167419  0.20337604  0.04975972  1
  Al  Al5  1  0.11253506  0.09144415  0.79029364  1
  Al  Al6  1  0.22230452  0.20551071  0.54757629  1
  Al  Al7  1  0.77953836  0.08892755  0.29871856  1
  Al  Al8  1  0.88668478  0.20015211  0.03955850  1
  Al  Al9  1  0.44694754  0.09318919  0.79046881  1
  Al  Al10  1  0.55677645  0.20648356  0.54843318  1
  Al  Al11  1  0.11075232  0.43831221  0.30425184  1
  Al  Al12  1  0.21953589  0.54538199  0.04940290  1
  Al  Al13  1  0.77780944  0.42775824  0.79864516  1
  Al  Al14  1  0.89020746  0.54425339  0.55429861  1
  Al  Al15  1  0.43914677  0.43009626  0.29952778  1
  Al  Al16  1  0.55269668  0.54031462  0.03980847  1
  Al  Al17  1  0.11253507  0.42934670  0.79029365  1
  Al  Al18  1  0.22328014  0.54018919  0.54809418  1
  Al  Al19  1  0.88668478  0.54648905  0.03955850  1
  Al  Al20  1  0.44276180  0.42688865  0.79865098  1
  Al  Al21  1  0.54882596  0.54224998  0.55404072  1
  Al  Al22  1  0.11105516  0.76113537  0.29940876  1
  Al  Al23  1  0.21953589  0.86840804  0.04940290  1
  Al  Al24  1  0.77686168  0.76426511  0.79837524  1
  Al  Al25  1  0.88835294  0.87248650  0.54808698  1
  Al  Al26  1  0.43914675  0.76408288  0.29952778  1
  Al  Al27  1  0.56167421  0.86827570  0.04975972  1
  Al  Al28  1  0.11039571  0.76146510  0.79899507  1
  Al  Al29  1  0.22328014  0.86985658  0.54809418  1
  Al  Al30  1  0.77953837  0.76486002  0.29871856  1
  Al  Al31  1  0.88925659  0.87203468  0.05022336  1
  Al  Al32  1  0.44276180  0.76367548  0.79865098  1
  Al  Al33  1  0.55677645  0.87006591  0.54843318  1
  Gd  Gd34  1  0.22309029  0.20511782  0.05413972  1
  Gd  Gd35  1  0.77956499  0.42688048  0.29994184  1
  N  N36  1  0.22086099  0.20623247  0.35040545  1
  N  N37  1  0.09364598  0.07969046  0.11718538  1
  N  N38  1  0.89121000  0.20170572  0.85000312  1
  N  N39  1  0.77584008  0.09223564  0.61075683  1
  N  N40  1  0.55740906  0.20808493  0.35926751  1
  N  N41  1  0.47734459  0.07799067  0.11923310  1
  N  N42  1  0.22270599  0.20530996  0.83272702  1
  N  N43  1  0.11345138  0.09124808  0.60338620  1
  N  N44  1  0.90055413  0.17583033  0.37050115  1
  N  N45  1  0.77858191  0.09482860  0.10744130  1
  N  N46  1  0.55453614  0.20495096  0.85838397  1
  N  N47  1  0.44694617  0.09318987  0.60086990  1
  N  N48  1  0.22361383  0.54130237  0.35997010  1
  N  N49  1  0.09364597  0.45998948  0.11718538  1
  N  N50  1  0.89121000  0.54041021  0.85000312  1
  N  N51  1  0.77756880  0.42787856  0.60322126  1
  N  N52  1  0.52645330  0.55343631  0.36766805  1
  N  N53  1  0.44438798  0.42792144  0.10681556  1
  N  N54  1  0.22134783  0.53898850  0.85842348  1
  N  N55  1  0.11345137  0.42862646  0.60338621  1
  N  N56  1  0.90055414  0.55694147  0.37050116  1
  N  N57  1  0.77906928  0.42712832  0.07716437  1
  N  N58  1  0.55205748  0.54063423  0.85141582  1
  N  N59  1  0.44306571  0.42632664  0.61043814  1
  N  N60  1  0.22361382  0.86840971  0.35997010  1
  N  N61  1  0.11055481  0.76138556  0.10894000  1
  N  N62  1  0.88915871  0.87208362  0.85985487  1
  N  N63  1  0.77584007  0.76525022  0.61075684  1
  N  N64  1  0.55740906  0.86783193  0.35926750  1
  N  N65  1  0.44438799  0.76101650  0.10681556  1
  N  N66  1  0.22134783  0.87298960  0.85842348  1
  N  N67  1  0.11039231  0.76146680  0.60868401  1
  N  N68  1  0.88892198  0.87220198  0.35753002  1
  N  N69  1  0.77858192  0.75991543  0.10744130  1
  N  N70  1  0.55453614  0.87383883  0.85838397  1
  N  N71  1  0.44306571  0.76393357  0.61043814  1
