# generated using pymatgen
data_GdAl17N18
_symmetry_space_group_name_H-M   'P 1'
_cell_length_a   9.50913984
_cell_length_b   9.51321200
_cell_length_c   10.12967619
_cell_angle_alpha   90.00058755
_cell_angle_beta   89.92803318
_cell_angle_gamma   59.98623229
_symmetry_Int_Tables_number   1
_chemical_formula_structural   GdAl17N18
_chemical_formula_sum   'Gd2 Al34 N36'
_cell_volume   793.47614675
_cell_formula_units_Z   2
loop_
 _symmetry_equiv_pos_site_id
 _symmetry_equiv_pos_as_xyz
  1  'x, y, z'
loop_
 _atom_site_type_symbol
 _atom_site_label
 _atom_site_symmetry_multiplicity
 _atom_site_fract_x
 _atom_site_fract_y
 _atom_site_fract_z
 _atom_site_occupancy
  Al  Al0  1  0.11320537  0.08692068  0.40603763  1
  Al  Al1  1  0.77661103  0.09321616  0.89747066  1
  Al  Al2  1  0.88736737  0.20405410  0.65530164  1
  Al  Al3  1  0.44720018  0.09308690  0.40578613  1
  Al  Al4  1  0.56073583  0.20331231  0.14606433  1
  Al  Al5  1  0.10968408  0.08914914  0.89130275  1
  Al  Al6  1  0.22209248  0.20563865  0.64695874  1
  Al  Al7  1  0.78035986  0.08802647  0.39616498  1
  Al  Al8  1  0.88912489  0.19510620  0.14133825  1
  Al  Al9  1  0.45106538  0.09115186  0.89156051  1
  Al  Al10  1  0.55713690  0.20651016  0.64694058  1
  Al  Al11  1  0.11320794  0.43324940  0.40603718  1
  Al  Al12  1  0.22034425  0.54448073  0.14687162  1
  Al  Al13  1  0.77758368  0.42789365  0.89802361  1
  Al  Al14  1  0.88736801  0.54194873  0.65530216  1
  Al  Al15  1  0.43821863  0.43002561  0.39583907  1
  Al  Al16  1  0.54744354  0.54296572  0.14105943  1
  Al  Al17  1  0.10968538  0.43453665  0.89130113  1
  Al  Al18  1  0.22304612  0.54118932  0.64721741  1
  Al  Al19  1  0.88912705  0.54914548  0.14133510  1
  Al  Al20  1  0.44311654  0.42691709  0.89717235  1
  Al  Al21  1  0.55294858  0.54021047  0.65514026  1
  Al  Al22  1  0.11064807  0.76136361  0.39535264  1
  Al  Al23  1  0.22034317  0.86855140  0.14687189  1
  Al  Al24  1  0.77661094  0.76354399  0.89747006  1
  Al  Al25  1  0.88950819  0.87193083  0.64653495  1
  Al  Al26  1  0.43821655  0.76513211  0.39583860  1
  Al  Al27  1  0.56073563  0.86932602  0.14606372  1
  Al  Al28  1  0.11154706  0.76091157  0.89747237  1
  Al  Al29  1  0.22304563  0.86913562  0.64721756  1
  Al  Al30  1  0.78036176  0.76499118  0.39616247  1
  Al  Al31  1  0.88883389  0.87227152  0.14611911  1
  Al  Al32  1  0.44311606  0.76333666  0.89717200  1
  Al  Al33  1  0.55713744  0.86972200  0.64693920  1
  Gd  Gd34  1  0.22031267  0.20653256  0.14565947  1
  Gd  Gd35  1  0.77679069  0.42829764  0.39147118  1
  N  N36  1  0.22083135  0.20627208  0.36843840  1
  N  N37  1  0.09932627  0.07646924  0.07510076  1
  N  N38  1  0.88644712  0.20477813  0.84220944  1
  N  N39  1  0.77854827  0.09442365  0.58715241  1
  N  N40  1  0.55550559  0.20548336  0.33877648  1
  N  N41  1  0.47342465  0.07997353  0.07793597  1
  N  N42  1  0.22232617  0.20552181  0.84238588  1
  N  N43  1  0.10869114  0.09298910  0.59559614  1
  N  N44  1  0.90624573  0.17343391  0.32840690  1
  N  N45  1  0.77626348  0.09211926  0.08560194  1
  N  N46  1  0.55682236  0.20707764  0.83515587  1
  N  N47  1  0.44784282  0.09276259  0.59418206  1
  N  N48  1  0.22131571  0.53856751  0.33815084  1
  N  N49  1  0.09932797  0.45757820  0.07509809  1
  N  N50  1  0.88644748  0.54214558  0.84220937  1
  N  N51  1  0.77718949  0.42808961  0.61288587  1
  N  N52  1  0.52254429  0.55541585  0.32637594  1
  N  N53  1  0.44247471  0.42532285  0.08633779  1
  N  N54  1  0.22406367  0.54115306  0.83483605  1
  N  N55  1  0.10869122  0.43168896  0.59559595  1
  N  N56  1  0.90625149  0.55369973  0.32840258  1
  N  N57  1  0.77901413  0.42718074  0.09519206  1
  N  N58  1  0.55294441  0.54021293  0.84473969  1
  N  N59  1  0.44536790  0.42844448  0.58721583  1
  N  N60  1  0.22131318  0.87349469  0.33815105  1
  N  N61  1  0.11097836  0.76119760  0.08803582  1
  N  N62  1  0.88950472  0.87193299  0.83687931  1
  N  N63  1  0.77854907  0.76039575  0.58715028  1
  N  N64  1  0.55550638  0.87238544  0.33877594  1
  N  N65  1  0.44247371  0.76557546  0.08633758  1
  N  N66  1  0.22406272  0.86815459  0.83483661  1
  N  N67  1  0.11076442  0.76130229  0.58572659  1
  N  N68  1  0.88934891  0.87201570  0.33663394  1
  N  N69  1  0.77626336  0.76499226  0.08560098  1
  N  N70  1  0.55682266  0.86946933  0.83515472  1
  N  N71  1  0.44536758  0.75955601  0.58721532  1
