# generated using pymatgen
data_GdAl17N18
_symmetry_space_group_name_H-M   'P 1'
_cell_length_a   9.53941066
_cell_length_b   9.51667285
_cell_length_c   10.25976394
_cell_angle_alpha   90.09459155
_cell_angle_beta   89.84945138
_cell_angle_gamma   59.98322625
_symmetry_Int_Tables_number   1
_chemical_formula_structural   GdAl17N18
_chemical_formula_sum   'Gd2 Al34 N36'
_cell_volume   806.48669771
_cell_formula_units_Z   2
loop_
 _symmetry_equiv_pos_site_id
 _symmetry_equiv_pos_as_xyz
  1  'x, y, z'
loop_
 _atom_site_type_symbol
 _atom_site_label
 _atom_site_symmetry_multiplicity
 _atom_site_fract_x
 _atom_site_fract_y
 _atom_site_fract_z
 _atom_site_occupancy
  Al  Al0  1  0.10889485  0.08944938  0.32119286  1
  Al  Al1  1  0.77723716  0.09151095  0.81019690  1
  Al  Al2  1  0.88851736  0.20126660  0.56611542  1
  Al  Al3  1  0.45301444  0.09028586  0.31593588  1
  Al  Al4  1  0.56105628  0.20361593  0.06173801  1
  Al  Al5  1  0.11067849  0.09189293  0.79947804  1
  Al  Al6  1  0.22361440  0.20676026  0.55937969  1
  Al  Al7  1  0.78079894  0.08839089  0.31033787  1
  Al  Al8  1  0.88521567  0.20053292  0.05045834  1
  Al  Al9  1  0.44622890  0.09342899  0.80248532  1
  Al  Al10  1  0.55734934  0.20626564  0.56023742  1
  Al  Al11  1  0.10874997  0.43328786  0.31943659  1
  Al  Al12  1  0.21715321  0.54844411  0.13432832  1
  Al  Al13  1  0.77637683  0.42835539  0.81132697  1
  Al  Al14  1  0.88960158  0.54406457  0.56572707  1
  Al  Al15  1  0.44841722  0.42516384  0.31460382  1
  Al  Al16  1  0.55139165  0.54017640  0.05075854  1
  Al  Al17  1  0.10632721  0.42705715  0.80123491  1
  Al  Al18  1  0.22094531  0.54572165  0.62832261  1
  Al  Al19  1  0.88517394  0.54545108  0.05007294  1
  Al  Al20  1  0.44847517  0.42424644  0.81119105  1
  Al  Al21  1  0.55281077  0.54010997  0.56561749  1
  Al  Al22  1  0.11478962  0.75578177  0.38250545  1
  Al  Al23  1  0.21927361  0.86759307  0.10645976  1
  Al  Al24  1  0.77602863  0.76497289  0.81035449  1
  Al  Al25  1  0.88070878  0.87658487  0.56092443  1
  Al  Al26  1  0.44604367  0.76138554  0.31612021  1
  Al  Al27  1  0.56089378  0.86807728  0.06166089  1
  Al  Al28  1  0.11627847  0.75868414  0.88058315  1
  Al  Al29  1  0.22666932  0.87231530  0.57583366  1
  Al  Al30  1  0.78067553  0.76446668  0.31030466  1
  Al  Al31  1  0.88012806  0.87539584  0.06175356  1
  Al  Al32  1  0.44187427  0.76447813  0.80933299  1
  Al  Al33  1  0.55857122  0.87068615  0.56017778  1
  Gd  Gd34  1  0.22355837  0.20209614  0.06169689  1
  Gd  Gd35  1  0.78148982  0.42653882  0.30729691  1
  N  N36  1  0.22324423  0.20549575  0.36616251  1
  N  N37  1  0.08790246  0.08678677  0.13542493  1
  N  N38  1  0.89037344  0.20206764  0.86267901  1
  N  N39  1  0.77569806  0.09339909  0.62431304  1
  N  N40  1  0.55899945  0.20584693  0.37294619  1
  N  N41  1  0.47606212  0.07849059  0.13208708  1
  N  N42  1  0.22136600  0.20553640  0.84328529  1
  N  N43  1  0.11138037  0.09607483  0.61289406  1
  N  N44  1  0.89824093  0.17831805  0.38438624  1
  N  N45  1  0.77776607  0.09532286  0.12078964  1
  N  N46  1  0.55420492  0.20462450  0.87197255  1
  N  N47  1  0.44754476  0.09349646  0.61443409  1
  N  N48  1  0.22418126  0.54296733  0.32452184  1
  N  N49  1  0.08781873  0.45286030  0.13028921  1
  N  N50  1  0.88866703  0.54145743  0.86303973  1
  N  N51  1  0.77826273  0.42827688  0.61808415  1
  N  N52  1  0.53140994  0.55080144  0.38210094  1
  N  N53  1  0.45036568  0.42491248  0.12022845  1
  N  N54  1  0.21856387  0.54325893  0.82092473  1
  N  N55  1  0.11020711  0.42723180  0.61384570  1
  N  N56  1  0.89988772  0.55704417  0.38410789  1
  N  N57  1  0.77668010  0.42753947  0.08734549  1
  N  N58  1  0.55127742  0.54197203  0.86478812  1
  N  N59  1  0.45116002  0.42308300  0.62218849  1
  N  N60  1  0.22705231  0.86975101  0.35835883  1
  N  N61  1  0.11117934  0.75761048  0.07209521  1
  N  N62  1  0.88239958  0.87510391  0.87285022  1
  N  N63  1  0.77589102  0.76493015  0.62443849  1
  N  N64  1  0.55975098  0.86841898  0.37294328  1
  N  N65  1  0.44803546  0.75850400  0.12407717  1
  N  N66  1  0.22156057  0.87496777  0.84869896  1
  N  N67  1  0.11175524  0.75968764  0.57099746  1
  N  N68  1  0.88375495  0.87487180  0.36995194  1
  N  N69  1  0.77726095  0.75866980  0.12084342  1
  N  N70  1  0.55369377  0.87408928  0.87170346  1
  N  N71  1  0.44881055  0.76171894  0.62088408  1
