# generated using pymatgen
data_GdAl17N18
_symmetry_space_group_name_H-M   'P 1'
_cell_length_a   9.49105453
_cell_length_b   9.54060696
_cell_length_c   10.46740252
_cell_angle_alpha   89.94118378
_cell_angle_beta   90.00195995
_cell_angle_gamma   59.82451737
_symmetry_Int_Tables_number   1
_chemical_formula_structural   GdAl17N18
_chemical_formula_sum   'Gd2 Al34 N36'
_cell_volume   819.38694500
_cell_formula_units_Z   2
loop_
 _symmetry_equiv_pos_site_id
 _symmetry_equiv_pos_as_xyz
  1  'x, y, z'
loop_
 _atom_site_type_symbol
 _atom_site_label
 _atom_site_symmetry_multiplicity
 _atom_site_fract_x
 _atom_site_fract_y
 _atom_site_fract_z
 _atom_site_occupancy
  Al  Al0  1  0.12138324  0.08400002  0.40641692  1
  Al  Al1  1  0.78466432  0.08722422  0.81548150  1
  Al  Al2  1  0.88446153  0.20177504  0.57728718  1
  Al  Al3  1  0.44736614  0.09620664  0.40089263  1
  Al  Al4  1  0.55642665  0.20832347  0.13908597  1
  Al  Al5  1  0.11442393  0.08834087  0.88051921  1
  Al  Al6  1  0.22182993  0.20604537  0.64416175  1
  Al  Al7  1  0.78777283  0.08513803  0.31973351  1
  Al  Al8  1  0.87921351  0.20357695  0.05213158  1
  Al  Al9  1  0.44911293  0.09720921  0.88295791  1
  Al  Al10  1  0.54954028  0.20909140  0.64228252  1
  Al  Al11  1  0.11975493  0.43009513  0.40560794  1
  Al  Al12  1  0.22095346  0.54316427  0.13842097  1
  Al  Al13  1  0.77377202  0.42930432  0.81230311  1
  Al  Al14  1  0.88408430  0.54655344  0.57649599  1
  Al  Al15  1  0.43617371  0.42350078  0.39166480  1
  Al  Al16  1  0.55930301  0.53646842  0.05590512  1
  Al  Al17  1  0.11404660  0.43032702  0.88018693  1
  Al  Al18  1  0.22119603  0.54193284  0.64234633  1
  Al  Al19  1  0.88044662  0.54864226  0.05220084  1
  Al  Al20  1  0.44023146  0.42293457  0.88530323  1
  Al  Al21  1  0.55240141  0.53839082  0.57273800  1
  Al  Al22  1  0.11897730  0.75690941  0.38704581  1
  Al  Al23  1  0.22201412  0.86831859  0.13843686  1
  Al  Al24  1  0.78180505  0.76210526  0.81570450  1
  Al  Al25  1  0.88372196  0.87480705  0.56388627  1
  Al  Al26  1  0.43596990  0.77322021  0.39422294  1
  Al  Al27  1  0.56624355  0.86592161  0.07265298  1
  Al  Al28  1  0.11700244  0.75720176  0.89308936  1
  Al  Al29  1  0.21918946  0.86986096  0.64317327  1
  Al  Al30  1  0.77693632  0.76637595  0.31980699  1
  Al  Al31  1  0.88425446  0.87568950  0.07080321  1
  Al  Al32  1  0.43767509  0.76522145  0.87820459  1
  Al  Al33  1  0.55571758  0.87334845  0.60719016  1
  Gd  Gd34  1  0.22189777  0.20433526  0.14237023  1
  Gd  Gd35  1  0.78151848  0.42664045  0.31610009  1
  N  N36  1  0.21845290  0.20837049  0.35939128  1
  N  N37  1  0.10576368  0.07482397  0.06284574  1
  N  N38  1  0.88099083  0.20823377  0.86754025  1
  N  N39  1  0.78289748  0.08638522  0.63248346  1
  N  N40  1  0.54912697  0.20809142  0.32675635  1
  N  N41  1  0.47403657  0.08711867  0.06424041  1
  N  N42  1  0.22253975  0.20533445  0.83111547  1
  N  N43  1  0.11761471  0.08967496  0.59177876  1
  N  N44  1  0.89524303  0.17999671  0.39610565  1
  N  N45  1  0.78713069  0.09233971  0.13369011  1
  N  N46  1  0.55106075  0.20971835  0.82463469  1
  N  N47  1  0.44425560  0.09840607  0.58642335  1
  N  N48  1  0.22073599  0.53717658  0.32499866  1
  N  N49  1  0.10587302  0.45165589  0.06335814  1
  N  N50  1  0.88116695  0.54320137  0.86730583  1
  N  N51  1  0.77597898  0.42818334  0.62626204  1
  N  N52  1  0.53178778  0.55073287  0.38618419  1
  N  N53  1  0.44284688  0.42381999  0.07462708  1
  N  N54  1  0.22113105  0.54299421  0.82489092  1
  N  N55  1  0.11616450  0.42680750  0.59160390  1
  N  N56  1  0.89436894  0.56018599  0.39480901  1
  N  N57  1  0.78169812  0.42558623  0.09975326  1
  N  N58  1  0.55418021  0.53730995  0.86799394  1
  N  N59  1  0.43924102  0.42162898  0.57957163  1
  N  N60  1  0.22122427  0.87584913  0.32558657  1
  N  N61  1  0.11821427  0.75732950  0.07942331  1
  N  N62  1  0.88281298  0.87494311  0.88490043  1
  N  N63  1  0.78207623  0.76383002  0.63418944  1
  N  N64  1  0.55672929  0.87438461  0.36824800  1
  N  N65  1  0.44041324  0.76518619  0.07163060  1
  N  N66  1  0.21803155  0.86949877  0.82441517  1
  N  N67  1  0.11826509  0.75680214  0.57401848  1
  N  N68  1  0.88511234  0.87335933  0.37852661  1
  N  N69  1  0.78195897  0.75693562  0.13081482  1
  N  N70  1  0.55650706  0.87123163  0.85377033  1
  N  N71  1  0.43810873  0.76702510  0.58738291  1
