# generated using pymatgen
data_GdAl17N18
_symmetry_space_group_name_H-M   'P 1'
_cell_length_a   9.52564156
_cell_length_b   9.52818275
_cell_length_c   10.31146870
_cell_angle_alpha   90.15042394
_cell_angle_beta   89.50590646
_cell_angle_gamma   60.04257488
_symmetry_Int_Tables_number   1
_chemical_formula_structural   GdAl17N18
_chemical_formula_sum   'Gd2 Al34 N36'
_cell_volume   810.79597226
_cell_formula_units_Z   2
loop_
 _symmetry_equiv_pos_site_id
 _symmetry_equiv_pos_as_xyz
  1  'x, y, z'
loop_
 _atom_site_type_symbol
 _atom_site_label
 _atom_site_symmetry_multiplicity
 _atom_site_fract_x
 _atom_site_fract_y
 _atom_site_fract_z
 _atom_site_occupancy
  Al  Al0  1  0.12432028  0.08042387  0.39122303  1
  Al  Al1  1  0.77525377  0.09158411  0.80664671  1
  Al  Al2  1  0.88553133  0.20114435  0.56812386  1
  Al  Al3  1  0.45939033  0.08616439  0.31647575  1
  Al  Al4  1  0.56020102  0.20438647  0.06075741  1
  Al  Al5  1  0.11184998  0.08876587  0.86718602  1
  Al  Al6  1  0.22459495  0.20463255  0.61554881  1
  Al  Al7  1  0.78324533  0.08709476  0.30920635  1
  Al  Al8  1  0.87530360  0.20577226  0.04106503  1
  Al  Al9  1  0.44791139  0.09320460  0.81062085  1
  Al  Al10  1  0.55704472  0.20547326  0.55990224  1
  Al  Al11  1  0.12385181  0.42720541  0.39026853  1
  Al  Al12  1  0.21307487  0.54915536  0.12758894  1
  Al  Al13  1  0.77386130  0.43018830  0.80331521  1
  Al  Al14  1  0.88522672  0.54576581  0.56709896  1
  Al  Al15  1  0.44549566  0.42508927  0.30946152  1
  Al  Al16  1  0.55053859  0.54170799  0.05070092  1
  Al  Al17  1  0.11145331  0.43533749  0.86815838  1
  Al  Al18  1  0.21885313  0.54415149  0.63090586  1
  Al  Al19  1  0.87447248  0.55337093  0.04130298  1
  Al  Al20  1  0.44931022  0.42434184  0.80932396  1
  Al  Al21  1  0.54849227  0.54184614  0.56134685  1
  Al  Al22  1  0.11816670  0.75665482  0.37789239  1
  Al  Al23  1  0.21313681  0.87275530  0.12861037  1
  Al  Al24  1  0.77523717  0.76706686  0.80650515  1
  Al  Al25  1  0.88258881  0.87492167  0.55638701  1
  Al  Al26  1  0.44615462  0.76070501  0.30998570  1
  Al  Al27  1  0.55973674  0.86936642  0.06072018  1
  Al  Al28  1  0.11594959  0.75989598  0.88150706  1
  Al  Al29  1  0.21916474  0.86981155  0.63065411  1
  Al  Al30  1  0.78304744  0.76104553  0.30870744  1
  Al  Al31  1  0.88199144  0.87600887  0.06087010  1
  Al  Al32  1  0.44934294  0.76043988  0.80912276  1
  Al  Al33  1  0.55709225  0.87009666  0.55987201  1
  Gd  Gd34  1  0.21117017  0.21240344  0.11484044  1
  Gd  Gd35  1  0.78318259  0.42291854  0.30814577  1
  N  N36  1  0.22622570  0.20262426  0.34545791  1
  N  N37  1  0.09826319  0.07408231  0.05266737  1
  N  N38  1  0.87913361  0.20897824  0.85335893  1
  N  N39  1  0.77603954  0.09040315  0.62206967  1
  N  N40  1  0.55907442  0.20637584  0.37277546  1
  N  N41  1  0.47857554  0.07766649  0.12985789  1
  N  N42  1  0.21857658  0.20871258  0.83152013  1
  N  N43  1  0.11913249  0.08778946  0.57896527  1
  N  N44  1  0.89941012  0.17614598  0.38332220  1
  N  N45  1  0.77827566  0.09680825  0.12102260  1
  N  N46  1  0.55372073  0.20636001  0.87245694  1
  N  N47  1  0.45323149  0.08982434  0.62074267  1
  N  N48  1  0.21665584  0.54025522  0.31525743  1
  N  N49  1  0.09729093  0.46334618  0.05235828  1
  N  N50  1  0.87874444  0.54653982  0.85353124  1
  N  N51  1  0.77617962  0.42820831  0.61306009  1
  N  N52  1  0.52572475  0.55291260  0.37883324  1
  N  N53  1  0.45006402  0.42534370  0.11885597  1
  N  N54  1  0.21755368  0.54676409  0.81545954  1
  N  N55  1  0.11890510  0.42633398  0.57764055  1
  N  N56  1  0.89857342  0.55542177  0.38182233  1
  N  N57  1  0.77893202  0.42746290  0.08837139  1
  N  N58  1  0.55057408  0.54196766  0.86519577  1
  N  N59  1  0.45150926  0.42204097  0.62176312  1
  N  N60  1  0.21735035  0.87421803  0.31649169  1
  N  N61  1  0.11465374  0.76021973  0.06864962  1
  N  N62  1  0.88178134  0.87634320  0.87206025  1
  N  N63  1  0.77622235  0.76591702  0.62173489  1
  N  N64  1  0.55922290  0.86672480  0.37281856  1
  N  N65  1  0.45013199  0.75830139  0.11938362  1
  N  N66  1  0.21766147  0.87078806  0.81522263  1
  N  N67  1  0.11683872  0.75777245  0.56498478  1
  N  N68  1  0.88493014  0.87321437  0.36755132  1
  N  N69  1  0.77778713  0.75951980  0.12068956  1
  N  N70  1  0.55346947  0.87452185  0.87231613  1
  N  N71  1  0.45175340  0.75892185  0.62150061  1
