# generated using pymatgen
data_GdAl17N18
_symmetry_space_group_name_H-M   'P 1'
_cell_length_a   9.46711631
_cell_length_b   9.50959785
_cell_length_c   10.50742903
_cell_angle_alpha   90.01373199
_cell_angle_beta   89.91637135
_cell_angle_gamma   59.84290696
_symmetry_Int_Tables_number   1
_chemical_formula_structural   GdAl17N18
_chemical_formula_sum   'Gd2 Al34 N36'
_cell_volume   817.93081103
_cell_formula_units_Z   2
loop_
 _symmetry_equiv_pos_site_id
 _symmetry_equiv_pos_as_xyz
  1  'x, y, z'
loop_
 _atom_site_type_symbol
 _atom_site_label
 _atom_site_symmetry_multiplicity
 _atom_site_fract_x
 _atom_site_fract_y
 _atom_site_fract_z
 _atom_site_occupancy
  Al  Al0  1  0.12116042  0.08261539  0.40745123  1
  Al  Al1  1  0.77799601  0.09143029  0.81644743  1
  Al  Al2  1  0.88540588  0.20330239  0.57910740  1
  Al  Al3  1  0.44082952  0.09628964  0.40234063  1
  Al  Al4  1  0.56352625  0.21087262  0.06764488  1
  Al  Al5  1  0.11605243  0.08642426  0.88098206  1
  Al  Al6  1  0.22794309  0.20260399  0.64623597  1
  Al  Al7  1  0.77928724  0.08988858  0.32095870  1
  Al  Al8  1  0.87926434  0.20472833  0.05212660  1
  Al  Al9  1  0.44728699  0.09296098  0.88893501  1
  Al  Al10  1  0.55988615  0.21004892  0.57386595  1
  Al  Al11  1  0.12113045  0.42950477  0.40747214  1
  Al  Al12  1  0.21282464  0.54803674  0.13946685  1
  Al  Al13  1  0.77590419  0.42872034  0.81537042  1
  Al  Al14  1  0.88542641  0.54442429  0.57909428  1
  Al  Al15  1  0.44334175  0.42695714  0.32132926  1
  Al  Al16  1  0.55168218  0.54093330  0.06122158  1
  Al  Al17  1  0.11620788  0.43074371  0.88102353  1
  Al  Al18  1  0.21626334  0.54535326  0.64344057  1
  Al  Al19  1  0.87945223  0.54940385  0.05217093  1
  Al  Al20  1  0.45060839  0.42585477  0.81735316  1
  Al  Al21  1  0.54728282  0.54311025  0.57164114  1
  Al  Al22  1  0.11680560  0.75833103  0.38901265  1
  Al  Al23  1  0.21246243  0.87279301  0.13931528  1
  Al  Al24  1  0.77793745  0.76377014  0.81643079  1
  Al  Al25  1  0.88184069  0.87561998  0.56630098  1
  Al  Al26  1  0.44335268  0.76322768  0.32065699  1
  Al  Al27  1  0.56361790  0.85911284  0.06775166  1
  Al  Al28  1  0.11625532  0.75846367  0.89353054  1
  Al  Al29  1  0.21622163  0.87162645  0.64351576  1
  Al  Al30  1  0.77939325  0.76404323  0.32090186  1
  Al  Al31  1  0.88018997  0.87660332  0.07069439  1
  Al  Al32  1  0.45056503  0.75694195  0.81742669  1
  Al  Al33  1  0.55982522  0.86319139  0.57352740  1
  Gd  Gd34  1  0.21712929  0.20814392  0.14401972  1
  Gd  Gd35  1  0.77979088  0.42667334  0.31749660  1
  N  N36  1  0.21819613  0.20753346  0.35911812  1
  N  N37  1  0.10576741  0.07454675  0.06163268  1
  N  N38  1  0.88246806  0.20755275  0.86732358  1
  N  N39  1  0.77887361  0.08991463  0.63480143  1
  N  N40  1  0.55702796  0.21073008  0.38487387  1
  N  N41  1  0.46768756  0.08293521  0.07454434  1
  N  N42  1  0.22520517  0.20398768  0.83160631  1
  N  N43  1  0.11969749  0.08918623  0.59116643  1
  N  N44  1  0.89438608  0.18096627  0.39713418  1
  N  N45  1  0.77980218  0.09639255  0.13424772  1
  N  N46  1  0.55955948  0.21196812  0.88000610  1
  N  N47  1  0.44710045  0.09301108  0.58855312  1
  N  N48  1  0.21218523  0.54155200  0.32495004  1
  N  N49  1  0.10598247  0.45309854  0.06169464  1
  N  N50  1  0.88262827  0.54317528  0.86735208  1
  N  N51  1  0.77557914  0.42883150  0.62793806  1
  N  N52  1  0.52222750  0.55580227  0.39217907  1
  N  N53  1  0.45124791  0.42647792  0.13332842  1
  N  N54  1  0.21695955  0.54660409  0.82529970  1
  N  N55  1  0.11970758  0.42429827  0.59116705  1
  N  N56  1  0.89435944  0.55784386  0.39708089  1
  N  N57  1  0.78197628  0.42581378  0.10063911  1
  N  N58  1  0.55188945  0.54074297  0.87833196  1
  N  N59  1  0.45047556  0.42494001  0.63406673  1
  N  N60  1  0.21212383  0.87963164  0.32471985  1
  N  N61  1  0.11520156  0.75905097  0.07783948  1
  N  N62  1  0.88018746  0.87649309  0.88482871  1
  N  N63  1  0.77873866  0.76440640  0.63472866  1
  N  N64  1  0.55699282  0.86566368  0.38453307  1
  N  N65  1  0.45109102  0.75597336  0.13316528  1
  N  N66  1  0.21688326  0.86969895  0.82537458  1
  N  N67  1  0.11755618  0.75784447  0.57362522  1
  N  N68  1  0.88134665  0.87596264  0.38080393  1
  N  N69  1  0.77989179  0.75723393  0.13426899  1
  N  N70  1  0.55963712  0.86165253  0.88022452  1
  N  N71  1  0.45042611  0.75801557  0.63420465  1
