# generated using pymatgen
data_GdAl17N18
_symmetry_space_group_name_H-M   'P 1'
_cell_length_a   9.48827356
_cell_length_b   9.51893057
_cell_length_c   10.41505085
_cell_angle_alpha   90.00031065
_cell_angle_beta   89.69804751
_cell_angle_gamma   59.88307339
_symmetry_Int_Tables_number   1
_chemical_formula_structural   GdAl17N18
_chemical_formula_sum   'Gd2 Al34 N36'
_cell_volume   813.66644945
_cell_formula_units_Z   2
loop_
 _symmetry_equiv_pos_site_id
 _symmetry_equiv_pos_as_xyz
  1  'x, y, z'
loop_
 _atom_site_type_symbol
 _atom_site_label
 _atom_site_symmetry_multiplicity
 _atom_site_fract_x
 _atom_site_fract_y
 _atom_site_fract_z
 _atom_site_occupancy
  Al  Al0  1  0.12200264  0.08239027  0.40581629  1
  Al  Al1  1  0.78229505  0.08826787  0.81527591  1
  Al  Al2  1  0.88570652  0.20077172  0.57805303  1
  Al  Al3  1  0.44724783  0.09304253  0.39614168  1
  Al  Al4  1  0.55553480  0.20678493  0.13779551  1
  Al  Al5  1  0.11501334  0.08757992  0.87925164  1
  Al  Al6  1  0.22447208  0.20442842  0.64340647  1
  Al  Al7  1  0.78614083  0.08577033  0.31967627  1
  Al  Al8  1  0.87694171  0.20467276  0.05153998  1
  Al  Al9  1  0.45216265  0.09058768  0.88625217  1
  Al  Al10  1  0.54962942  0.20809530  0.63907703  1
  Al  Al11  1  0.12200475  0.42895009  0.40581593  1
  Al  Al12  1  0.21809558  0.54450655  0.13813736  1
  Al  Al13  1  0.77848489  0.42742805  0.81503461  1
  Al  Al14  1  0.88570858  0.54684847  0.57805170  1
  Al  Al15  1  0.44030574  0.42740600  0.38816669  1
  Al  Al16  1  0.54881414  0.54225594  0.10260036  1
  Al  Al17  1  0.11501699  0.43074788  0.87925007  1
  Al  Al18  1  0.22220763  0.54234165  0.64110947  1
  Al  Al19  1  0.87694434  0.55171076  0.05153956  1
  Al  Al20  1  0.44249009  0.42587629  0.88411687  1
  Al  Al21  1  0.54918897  0.54206736  0.62661565  1
  Al  Al22  1  0.11913883  0.75710402  0.38656686  1
  Al  Al23  1  0.21809283  0.87072828  0.13813834  1
  Al  Al24  1  0.78229505  0.76277673  0.81527657  1
  Al  Al25  1  0.88364950  0.87483907  0.56474740  1
  Al  Al26  1  0.44030366  0.76562488  0.38816577  1
  Al  Al27  1  0.55553794  0.87100502  0.13779531  1
  Al  Al28  1  0.11753555  0.75790408  0.89155714  1
  Al  Al29  1  0.22220787  0.86878131  0.64110897  1
  Al  Al30  1  0.78614366  0.76142975  0.31967497  1
  Al  Al31  1  0.88215615  0.87558467  0.06988254  1
  Al  Al32  1  0.44248875  0.76497326  0.88411662  1
  Al  Al33  1  0.54963049  0.87559797  0.63907722  1
  Gd  Gd34  1  0.21860477  0.20735590  0.13957758  1
  Gd  Gd35  1  0.79004834  0.42165117  0.31894188  1
  N  N36  1  0.21735471  0.20798481  0.35747208  1
  N  N37  1  0.10325951  0.07616520  0.06255136  1
  N  N38  1  0.88105077  0.20746974  0.86710727  1
  N  N39  1  0.78245636  0.08689369  0.63245250  1
  N  N40  1  0.54807607  0.20787842  0.32633845  1
  N  N41  1  0.47666397  0.07834126  0.06700595  1
  N  N42  1  0.22392340  0.20469925  0.83206110  1
  N  N43  1  0.11929503  0.08877471  0.59197129  1
  N  N44  1  0.89654697  0.17613770  0.39711567  1
  N  N45  1  0.78569998  0.09266664  0.13282477  1
  N  N46  1  0.54856027  0.20954958  0.82421565  1
  N  N47  1  0.44780789  0.09276718  0.58022062  1
  N  N48  1  0.22068752  0.53673431  0.32504252  1
  N  N49  1  0.10326542  0.45391931  0.06255088  1
  N  N50  1  0.88105417  0.54479752  0.86710944  1
  N  N51  1  0.78167221  0.42583818  0.62587251  1
  N  N52  1  0.52751736  0.55289569  0.33490740  1
  N  N53  1  0.44191827  0.42429227  0.07144950  1
  N  N54  1  0.22200760  0.54323804  0.82405018  1
  N  N55  1  0.11929900  0.42527861  0.59197345  1
  N  N56  1  0.89654941  0.56063778  0.39711654  1
  N  N57  1  0.77844494  0.42745090  0.09806256  1
  N  N58  1  0.54790384  0.54270731  0.83278954  1
  N  N59  1  0.44388179  0.42545729  0.57611289  1
  N  N60  1  0.22068661  0.87590552  0.32504138  1
  N  N61  1  0.11703413  0.75815678  0.07854361  1
  N  N62  1  0.88219754  0.87556183  0.88414990  1
  N  N63  1  0.78245633  0.76399875  0.63245349  1
  N  N64  1  0.54807728  0.87735869  0.32633741  1
  N  N65  1  0.44191444  0.76713932  0.07145115  1
  N  N66  1  0.22200767  0.86807859  0.82404999  1
  N  N67  1  0.11887378  0.75723795  0.57395345  1
  N  N68  1  0.88469476  0.87431445  0.37942065  1
  N  N69  1  0.78570291  0.75497743  0.13282537  1
  N  N70  1  0.54856100  0.87520654  0.82421640  1
  N  N71  1  0.44388090  0.76400387  0.57611229  1
