# generated using pymatgen
data_GdAl17N18
_symmetry_space_group_name_H-M   'P 1'
_cell_length_a   9.51358046
_cell_length_b   9.52021684
_cell_length_c   10.34000247
_cell_angle_alpha   90.11276424
_cell_angle_beta   89.50692457
_cell_angle_gamma   60.02491499
_symmetry_Int_Tables_number   1
_chemical_formula_structural   GdAl17N18
_chemical_formula_sum   'Gd2 Al34 N36'
_cell_volume   811.19196039
_cell_formula_units_Z   2
loop_
 _symmetry_equiv_pos_site_id
 _symmetry_equiv_pos_as_xyz
  1  'x, y, z'
loop_
 _atom_site_type_symbol
 _atom_site_label
 _atom_site_symmetry_multiplicity
 _atom_site_fract_x
 _atom_site_fract_y
 _atom_site_fract_z
 _atom_site_occupancy
  Al  Al0  1  0.12523488  0.08146219  0.39204688  1
  Al  Al1  1  0.77550397  0.09151686  0.80621616  1
  Al  Al2  1  0.88563047  0.20119682  0.56745934  1
  Al  Al3  1  0.45890922  0.08662739  0.31608239  1
  Al  Al4  1  0.56009195  0.20454778  0.06080818  1
  Al  Al5  1  0.11180420  0.08780531  0.86753856  1
  Al  Al6  1  0.22170331  0.20598177  0.62745199  1
  Al  Al7  1  0.78340481  0.08741898  0.30919902  1
  Al  Al8  1  0.87549995  0.20559768  0.04087932  1
  Al  Al9  1  0.45010878  0.09195162  0.81070185  1
  Al  Al10  1  0.55630141  0.20543135  0.55984699  1
  Al  Al11  1  0.12486327  0.42565929  0.39150915  1
  Al  Al12  1  0.21324733  0.54871590  0.12764513  1
  Al  Al13  1  0.77401023  0.42993457  0.80283821  1
  Al  Al14  1  0.88531733  0.54586498  0.56681770  1
  Al  Al15  1  0.44523942  0.42539835  0.30948263  1
  Al  Al16  1  0.55109409  0.54136786  0.05063888  1
  Al  Al17  1  0.11140576  0.43541517  0.86784206  1
  Al  Al18  1  0.21875646  0.54413419  0.63063763  1
  Al  Al19  1  0.87499225  0.55305404  0.04103592  1
  Al  Al20  1  0.44949701  0.42430711  0.80891315  1
  Al  Al21  1  0.54835238  0.54208891  0.56121254  1
  Al  Al22  1  0.11827381  0.75692788  0.37764053  1
  Al  Al23  1  0.21333019  0.87253912  0.12819255  1
  Al  Al24  1  0.77545047  0.76676893  0.80612437  1
  Al  Al25  1  0.88257368  0.87503384  0.55603696  1
  Al  Al26  1  0.44565065  0.76125674  0.30973545  1
  Al  Al27  1  0.55975577  0.86924641  0.06074431  1
  Al  Al28  1  0.11607982  0.75938900  0.88140356  1
  Al  Al29  1  0.21895333  0.87015392  0.63056959  1
  Al  Al30  1  0.78323947  0.76106704  0.30882900  1
  Al  Al31  1  0.88199701  0.87593437  0.06060821  1
  Al  Al32  1  0.44957480  0.76000095  0.80879394  1
  Al  Al33  1  0.55630029  0.87107258  0.55981089  1
  Gd  Gd34  1  0.20967657  0.21281307  0.11752239  1
  Gd  Gd35  1  0.78277827  0.42372285  0.30820263  1
  N  N36  1  0.22505438  0.20348946  0.34173671  1
  N  N37  1  0.09937161  0.07349391  0.05102237  1
  N  N38  1  0.87901579  0.20892629  0.85363701  1
  N  N39  1  0.77606174  0.09051677  0.62200481  1
  N  N40  1  0.55875152  0.20653672  0.37284169  1
  N  N41  1  0.47785575  0.07798666  0.12926386  1
  N  N42  1  0.21728247  0.20885548  0.82544536  1
  N  N43  1  0.11951403  0.08831998  0.57885032  1
  N  N44  1  0.89955057  0.17673781  0.38325481  1
  N  N45  1  0.77861421  0.09657971  0.12118869  1
  N  N46  1  0.55375532  0.20645663  0.87286873  1
  N  N47  1  0.45280861  0.09008698  0.62177066  1
  N  N48  1  0.21610958  0.54019575  0.31501789  1
  N  N49  1  0.09869066  0.46210458  0.05084641  1
  N  N50  1  0.87866306  0.54637451  0.85371448  1
  N  N51  1  0.77629269  0.42820269  0.61317402  1
  N  N52  1  0.52492815  0.55361673  0.37920119  1
  N  N53  1  0.45049404  0.42531721  0.11926094  1
  N  N54  1  0.21751920  0.54659482  0.81481033  1
  N  N55  1  0.11924338  0.42537742  0.57816173  1
  N  N56  1  0.89892873  0.55538550  0.38228481  1
  N  N57  1  0.77988674  0.42694549  0.08878411  1
  N  N58  1  0.55086195  0.54163864  0.86546021  1
  N  N59  1  0.45170908  0.42202132  0.62190163  1
  N  N60  1  0.21654708  0.87552150  0.31565281  1
  N  N61  1  0.11494887  0.75978341  0.06813583  1
  N  N62  1  0.88161398  0.87628417  0.87213914  1
  N  N63  1  0.77614184  0.76605899  0.62178475  1
  N  N64  1  0.55880748  0.86722530  0.37284220  1
  N  N65  1  0.45053566  0.75786614  0.11950556  1
  N  N66  1  0.21764696  0.87033787  0.81474194  1
  N  N67  1  0.11717042  0.75778044  0.56435476  1
  N  N68  1  0.88474561  0.87356822  0.36769153  1
  N  N69  1  0.77823864  0.75909435  0.12092676  1
  N  N70  1  0.55357433  0.87406902  0.87275955  1
  N  N71  1  0.45187161  0.75897245  0.62176254  1
