# generated using pymatgen
data_GdAl17N18
_symmetry_space_group_name_H-M   'P 1'
_cell_length_a   9.48561540
_cell_length_b   9.50871129
_cell_length_c   10.40762555
_cell_angle_alpha   90.00000508
_cell_angle_beta   89.52605031
_cell_angle_gamma   59.91943001
_symmetry_Int_Tables_number   1
_chemical_formula_structural   GdAl17N18
_chemical_formula_sum   'Gd2 Al34 N36'
_cell_volume   812.26259282
_cell_formula_units_Z   2
loop_
 _symmetry_equiv_pos_site_id
 _symmetry_equiv_pos_as_xyz
  1  'x, y, z'
loop_
 _atom_site_type_symbol
 _atom_site_label
 _atom_site_symmetry_multiplicity
 _atom_site_fract_x
 _atom_site_fract_y
 _atom_site_fract_z
 _atom_site_occupancy
  Al  Al0  1  0.12528525  0.08271139  0.39667641  1
  Al  Al1  1  0.77557892  0.09128136  0.80964204  1
  Al  Al2  1  0.88499509  0.20204124  0.57051040  1
  Al  Al3  1  0.45807505  0.08760257  0.31932300  1
  Al  Al4  1  0.55980216  0.20451008  0.06485588  1
  Al  Al5  1  0.11194789  0.08652906  0.87143944  1
  Al  Al6  1  0.21969529  0.20679248  0.63671763  1
  Al  Al7  1  0.78315230  0.08838747  0.31304248  1
  Al  Al8  1  0.87613392  0.20445665  0.04418344  1
  Al  Al9  1  0.45103007  0.09112508  0.81505481  1
  Al  Al10  1  0.55546433  0.20549342  0.56382900  1
  Al  Al11  1  0.12528527  0.42528361  0.39667642  1
  Al  Al12  1  0.21413075  0.54770582  0.13153956  1
  Al  Al13  1  0.77433314  0.42947353  0.80646018  1
  Al  Al14  1  0.88499508  0.54624389  0.57051040  1
  Al  Al15  1  0.44498107  0.42600642  0.31363946  1
  Al  Al16  1  0.55252033  0.54037993  0.05438856  1
  Al  Al17  1  0.11194785  0.43480331  0.87143945  1
  Al  Al18  1  0.21866914  0.54419264  0.63429452  1
  Al  Al19  1  0.87613397  0.55268963  0.04418345  1
  Al  Al20  1  0.44984420  0.42402862  0.81218146  1
  Al  Al21  1  0.54837647  0.54245186  0.56506377  1
  Al  Al22  1  0.11841364  0.75743329  0.38111470  1
  Al  Al23  1  0.21413073  0.87144367  0.13153956  1
  Al  Al24  1  0.77557892  0.76641996  0.80964205  1
  Al  Al25  1  0.88262142  0.87532941  0.55935355  1
  Al  Al26  1  0.44498108  0.76229269  0.31363947  1
  Al  Al27  1  0.55980217  0.86896798  0.06485588  1
  Al  Al28  1  0.11641845  0.75843090  0.88509084  1
  Al  Al29  1  0.21866918  0.87041845  0.63429451  1
  Al  Al30  1  0.78315231  0.76174042  0.31304248  1
  Al  Al31  1  0.88247408  0.87540307  0.06409219  1
  Al  Al32  1  0.44984423  0.75940736  0.81218146  1
  Al  Al33  1  0.55546434  0.87232247  0.56382900  1
  Gd  Gd34  1  0.20679369  0.21324329  0.12356171  1
  Gd  Gd35  1  0.78181577  0.42573220  0.31104864  1
  N  N36  1  0.22355257  0.20486383  0.34394638  1
  N  N37  1  0.10121013  0.07141038  0.05263125  1
  N  N38  1  0.87851067  0.20862366  0.85810271  1
  N  N39  1  0.77633071  0.09057237  0.62615530  1
  N  N40  1  0.55780379  0.20702613  0.37735338  1
  N  N41  1  0.47644276  0.07841870  0.13313103  1
  N  N42  1  0.21606424  0.20860800  0.82711986  1
  N  N43  1  0.11969202  0.08879423  0.58205767  1
  N  N44  1  0.89824066  0.17896649  0.38743312  1
  N  N45  1  0.77930991  0.09578286  0.12564649  1
  N  N46  1  0.55344337  0.20645528  0.87764383  1
  N  N47  1  0.45239367  0.09044326  0.62739119  1
  N  N48  1  0.21496895  0.54066935  0.31798363  1
  N  N49  1  0.10121012  0.46065969  0.05263125  1
  N  N50  1  0.87851065  0.54614592  0.85810271  1
  N  N51  1  0.77655276  0.42836372  0.61810049  1
  N  N52  1  0.52371398  0.55478313  0.38421344  1
  N  N53  1  0.45213953  0.42479882  0.12449371  1
  N  N54  1  0.21710178  0.54645795  0.81717968  1
  N  N55  1  0.11969200  0.42479397  0.58205768  1
  N  N56  1  0.89824065  0.55607308  0.38743311  1
  N  N57  1  0.78258105  0.42534958  0.09278258  1
  N  N58  1  0.55094513  0.54116755  0.87015187  1
  N  N59  1  0.45239982  0.42188272  0.62629468  1
  N  N60  1  0.21496897  0.87764193  0.31798363  1
  N  N61  1  0.11636865  0.75845582  0.07070538  1
  N  N62  1  0.88111972  0.87608027  0.87659170  1
  N  N63  1  0.77633072  0.76637714  0.62615531  1
  N  N64  1  0.55780379  0.86845027  0.37735339  1
  N  N65  1  0.45213953  0.75634186  0.12449371  1
  N  N66  1  0.21710181  0.86972053  0.81717969  1
  N  N67  1  0.11815501  0.75756261  0.56667636  1
  N  N68  1  0.88408126  0.87459948  0.37217822  1
  N  N69  1  0.77930990  0.75818746  0.12564649  1
  N  N70  1  0.55344335  0.87338159  0.87764383  1
  N  N71  1  0.45239987  0.75899764  0.62629469  1
