# generated using pymatgen
data_GdAl17N18
_symmetry_space_group_name_H-M   'P 1'
_cell_length_a   9.51633906
_cell_length_b   9.58682041
_cell_length_c   10.41938661
_cell_angle_alpha   90.01389935
_cell_angle_beta   90.18408689
_cell_angle_gamma   59.75733574
_symmetry_Int_Tables_number   1
_chemical_formula_structural   GdAl17N18
_chemical_formula_sum   'Gd2 Al34 N36'
_cell_volume   821.19695906
_cell_formula_units_Z   2
loop_
 _symmetry_equiv_pos_site_id
 _symmetry_equiv_pos_as_xyz
  1  'x, y, z'
loop_
 _atom_site_type_symbol
 _atom_site_label
 _atom_site_symmetry_multiplicity
 _atom_site_fract_x
 _atom_site_fract_y
 _atom_site_fract_z
 _atom_site_occupancy
  Al  Al0  1  0.11881316  0.08507647  0.40486534  1
  Al  Al1  1  0.78089014  0.08962668  0.81530221  1
  Al  Al2  1  0.88592026  0.20214407  0.57687000  1
  Al  Al3  1  0.44080827  0.09648308  0.40456543  1
  Al  Al4  1  0.56637139  0.20435723  0.06207506  1
  Al  Al5  1  0.11438384  0.08693356  0.88273028  1
  Al  Al6  1  0.22310709  0.20503801  0.64635012  1
  Al  Al7  1  0.77667844  0.09079162  0.32019056  1
  Al  Al8  1  0.87916278  0.20433657  0.05344469  1
  Al  Al9  1  0.44719659  0.09303172  0.87982674  1
  Al  Al10  1  0.56218366  0.20219781  0.58345107  1
  Al  Al11  1  0.12000412  0.42950352  0.40479321  1
  Al  Al12  1  0.22337855  0.54306891  0.13805336  1
  Al  Al13  1  0.77904182  0.42654691  0.81315896  1
  Al  Al14  1  0.88668299  0.54478265  0.57708309  1
  Al  Al15  1  0.43267182  0.43002510  0.39844887  1
  Al  Al16  1  0.55566929  0.54322228  0.05275324  1
  Al  Al17  1  0.11390043  0.43167033  0.88192976  1
  Al  Al18  1  0.21943608  0.54305595  0.64390102  1
  Al  Al19  1  0.87959054  0.55014049  0.05355623  1
  Al  Al20  1  0.43801074  0.43061030  0.87650163  1
  Al  Al21  1  0.55356666  0.53981473  0.58160317  1
  Al  Al22  1  0.11600236  0.75813344  0.38557615  1
  Al  Al23  1  0.22355849  0.86716539  0.13824202  1
  Al  Al24  1  0.78209111  0.76264203  0.81529836  1
  Al  Al25  1  0.88507327  0.87384195  0.56412142  1
  Al  Al26  1  0.43367382  0.77070188  0.38789285  1
  Al  Al27  1  0.56396820  0.86095572  0.06085201  1
  Al  Al28  1  0.11531233  0.75936584  0.89559322  1
  Al  Al29  1  0.21521399  0.87227183  0.64244568  1
  Al  Al30  1  0.77693794  0.76550097  0.31980311  1
  Al  Al31  1  0.88222748  0.87542898  0.07316203  1
  Al  Al32  1  0.44359153  0.76176229  0.84399503  1
  Al  Al33  1  0.56260371  0.86818320  0.58312513  1
  Gd  Gd34  1  0.22035911  0.20624229  0.14085469  1
  Gd  Gd35  1  0.77741374  0.42827612  0.31591162  1
  N  N36  1  0.21856797  0.20733518  0.35877155  1
  N  N37  1  0.10410402  0.07424562  0.06533127  1
  N  N38  1  0.88255013  0.20695705  0.86712440  1
  N  N39  1  0.78302150  0.08696236  0.63320057  1
  N  N40  1  0.55981326  0.20337639  0.38629903  1
  N  N41  1  0.46844756  0.08199819  0.06841149  1
  N  N42  1  0.22111162  0.20576198  0.83308134  1
  N  N43  1  0.11794912  0.09009417  0.59065583  1
  N  N44  1  0.89377709  0.18073414  0.39359096  1
  N  N45  1  0.77788607  0.09728215  0.13254941  1
  N  N46  1  0.56176622  0.20525434  0.86738284  1
  N  N47  1  0.44404871  0.09434161  0.59490087  1
  N  N48  1  0.22191062  0.53650682  0.32642292  1
  N  N49  1  0.10482570  0.45459047  0.06486763  1
  N  N50  1  0.88236292  0.54361185  0.86695373  1
  N  N51  1  0.77998917  0.42646504  0.62641024  1
  N  N52  1  0.53094368  0.55264627  0.39464190  1
  N  N53  1  0.44006843  0.43130100  0.07164250  1
  N  N54  1  0.21746695  0.54623114  0.82564108  1
  N  N55  1  0.11844277  0.42516319  0.59123592  1
  N  N56  1  0.89482039  0.55864909  0.39356524  1
  N  N57  1  0.78053673  0.42663440  0.09808283  1
  N  N58  1  0.55673836  0.53823428  0.86252638  1
  N  N59  1  0.43857009  0.42743632  0.59195044  1
  N  N60  1  0.21910806  0.87651258  0.32812660  1
  N  N61  1  0.11540289  0.75907232  0.08270760  1
  N  N62  1  0.88241639  0.87566350  0.88504683  1
  N  N63  1  0.78330471  0.76300038  0.63327755  1
  N  N64  1  0.55971562  0.86938100  0.38900460  1
  N  N65  1  0.44204700  0.76222194  0.08639661  1
  N  N66  1  0.21558879  0.87049572  0.82466880  1
  N  N67  1  0.11778436  0.75696370  0.57328477  1
  N  N68  1  0.88294559  0.87500380  0.37675810  1
  N  N69  1  0.77729949  0.75881035  0.13211472  1
  N  N70  1  0.56228933  0.86577441  0.86734573  1
  N  N71  1  0.44210338  0.76466977  0.60889080  1
