# generated using pymatgen
data_GdAl17N18
_symmetry_space_group_name_H-M   'P 1'
_cell_length_a   9.53810859
_cell_length_b   9.51461283
_cell_length_c   10.25781618
_cell_angle_alpha   90.08181505
_cell_angle_beta   89.84338014
_cell_angle_gamma   59.96699464
_symmetry_Int_Tables_number   1
_chemical_formula_structural   GdAl17N18
_chemical_formula_sum   'Gd2 Al34 N36'
_cell_volume   805.91734683
_cell_formula_units_Z   2
loop_
 _symmetry_equiv_pos_site_id
 _symmetry_equiv_pos_as_xyz
  1  'x, y, z'
loop_
 _atom_site_type_symbol
 _atom_site_label
 _atom_site_symmetry_multiplicity
 _atom_site_fract_x
 _atom_site_fract_y
 _atom_site_fract_z
 _atom_site_occupancy
  Al  Al0  1  0.10994959  0.08717471  0.31984017  1
  Al  Al1  1  0.77702907  0.09175144  0.81014445  1
  Al  Al2  1  0.88910124  0.20071021  0.56633858  1
  Al  Al3  1  0.45293018  0.09022266  0.31610860  1
  Al  Al4  1  0.56100937  0.20369702  0.06184383  1
  Al  Al5  1  0.11145232  0.09093208  0.80035028  1
  Al  Al6  1  0.22344617  0.20637654  0.55967223  1
  Al  Al7  1  0.78088190  0.08845829  0.31043331  1
  Al  Al8  1  0.88553333  0.20021868  0.05095729  1
  Al  Al9  1  0.44630836  0.09347409  0.80254434  1
  Al  Al10  1  0.55733162  0.20626709  0.56022134  1
  Al  Al11  1  0.10881927  0.43317629  0.31965642  1
  Al  Al12  1  0.21706280  0.54905063  0.13477238  1
  Al  Al13  1  0.77654092  0.42819596  0.81132921  1
  Al  Al14  1  0.88960682  0.54409315  0.56575088  1
  Al  Al15  1  0.44852364  0.42523318  0.31473973  1
  Al  Al16  1  0.55161022  0.53994302  0.05110853  1
  Al  Al17  1  0.10637356  0.42680065  0.80109939  1
  Al  Al18  1  0.22086523  0.54597060  0.62805255  1
  Al  Al19  1  0.88523909  0.54545836  0.05023519  1
  Al  Al20  1  0.44869421  0.42409776  0.81110350  1
  Al  Al21  1  0.55228245  0.54063190  0.56585985  1
  Al  Al22  1  0.11442669  0.75594504  0.38231488  1
  Al  Al23  1  0.22098116  0.86978987  0.08237168  1
  Al  Al24  1  0.77575648  0.76494309  0.81028051  1
  Al  Al25  1  0.88089595  0.87645929  0.56123742  1
  Al  Al26  1  0.44369943  0.76254566  0.31494005  1
  Al  Al27  1  0.56087305  0.86812351  0.06189550  1
  Al  Al28  1  0.11470468  0.75728367  0.88049456  1
  Al  Al29  1  0.22775583  0.87326593  0.56450917  1
  Al  Al30  1  0.78038832  0.76453596  0.31046675  1
  Al  Al31  1  0.88013525  0.87528939  0.06219478  1
  Al  Al32  1  0.44158295  0.76476654  0.80993603  1
  Al  Al33  1  0.55811617  0.87059645  0.56040217  1
  Gd  Gd34  1  0.22338383  0.20271134  0.06219410  1
  Gd  Gd35  1  0.78144690  0.42666638  0.30776436  1
  N  N36  1  0.22301531  0.20527941  0.36612886  1
  N  N37  1  0.08966341  0.08410606  0.13493891  1
  N  N38  1  0.89073130  0.20167084  0.86291071  1
  N  N39  1  0.77555770  0.09351281  0.62434403  1
  N  N40  1  0.55902233  0.20584411  0.37297514  1
  N  N41  1  0.47603387  0.07859848  0.13214293  1
  N  N42  1  0.22153538  0.20540262  0.84356022  1
  N  N43  1  0.11219000  0.09424310  0.61471757  1
  N  N44  1  0.89893973  0.17795544  0.38429500  1
  N  N45  1  0.77766630  0.09536823  0.12086927  1
  N  N46  1  0.55421672  0.20465302  0.87202740  1
  N  N47  1  0.44751233  0.09351084  0.61449463  1
  N  N48  1  0.22423869  0.54309146  0.32479994  1
  N  N49  1  0.08779534  0.45306949  0.13059209  1
  N  N50  1  0.88876124  0.54139835  0.86312063  1
  N  N51  1  0.77821769  0.42826646  0.61805428  1
  N  N52  1  0.53099542  0.55144371  0.38208193  1
  N  N53  1  0.45036761  0.42491300  0.12033463  1
  N  N54  1  0.21880786  0.54304001  0.82065953  1
  N  N55  1  0.11024255  0.42705634  0.61387095  1
  N  N56  1  0.89994591  0.55712290  0.38421972  1
  N  N57  1  0.77695209  0.42732670  0.08760219  1
  N  N58  1  0.55124673  0.54200236  0.86492351  1
  N  N59  1  0.45116214  0.42305959  0.62220833  1
  N  N60  1  0.22823773  0.87107560  0.36896499  1
  N  N61  1  0.11032740  0.75723925  0.07219647  1
  N  N62  1  0.88203687  0.87528282  0.87259612  1
  N  N63  1  0.77556749  0.76492959  0.62445658  1
  N  N64  1  0.55942190  0.86816129  0.37291645  1
  N  N65  1  0.44664411  0.75921121  0.12375291  1
  N  N66  1  0.22311003  0.87644267  0.86458728  1
  N  N67  1  0.11143018  0.76017052  0.57221941  1
  N  N68  1  0.88370132  0.87488629  0.36997159  1
  N  N69  1  0.77707846  0.75864501  0.12093043  1
  N  N70  1  0.55369849  0.87411531  0.87180934  1
  N  N71  1  0.44661130  0.76277304  0.62242486  1
