# generated using pymatgen
data_GdAl17N18
_symmetry_space_group_name_H-M   'P 1'
_cell_length_a   9.50593027
_cell_length_b   9.56609886
_cell_length_c   10.43964093
_cell_angle_alpha   90.02698021
_cell_angle_beta   90.15712220
_cell_angle_gamma   59.77256034
_symmetry_Int_Tables_number   1
_chemical_formula_structural   GdAl17N18
_chemical_formula_sum   'Gd2 Al34 N36'
_cell_volume   820.24559870
_cell_formula_units_Z   2
loop_
 _symmetry_equiv_pos_site_id
 _symmetry_equiv_pos_as_xyz
  1  'x, y, z'
loop_
 _atom_site_type_symbol
 _atom_site_label
 _atom_site_symmetry_multiplicity
 _atom_site_fract_x
 _atom_site_fract_y
 _atom_site_fract_z
 _atom_site_occupancy
  Al  Al0  1  0.11940205  0.08439654  0.40558393  1
  Al  Al1  1  0.78073919  0.08968184  0.81529003  1
  Al  Al2  1  0.88539350  0.20269965  0.57712535  1
  Al  Al3  1  0.44057686  0.09642151  0.40473243  1
  Al  Al4  1  0.56633558  0.20456755  0.06235075  1
  Al  Al5  1  0.11507385  0.08614466  0.88235675  1
  Al  Al6  1  0.22369887  0.20462172  0.64652787  1
  Al  Al7  1  0.77668984  0.09079510  0.32035887  1
  Al  Al8  1  0.87883678  0.20489759  0.05293618  1
  Al  Al9  1  0.44730437  0.09177530  0.88118585  1
  Al  Al10  1  0.56214826  0.20214172  0.58344443  1
  Al  Al11  1  0.12016778  0.42938535  0.40505431  1
  Al  Al12  1  0.22343246  0.54294846  0.13829256  1
  Al  Al13  1  0.77817493  0.42712567  0.81402976  1
  Al  Al14  1  0.88643809  0.54465293  0.57748900  1
  Al  Al15  1  0.43259373  0.43138992  0.39909786  1
  Al  Al16  1  0.55451409  0.54644324  0.05470748  1
  Al  Al17  1  0.11429274  0.43141215  0.88192234  1
  Al  Al18  1  0.21995266  0.54270330  0.64416187  1
  Al  Al19  1  0.87987246  0.55007789  0.05347225  1
  Al  Al20  1  0.43815158  0.43165322  0.87799406  1
  Al  Al21  1  0.55168602  0.54441446  0.57883457  1
  Al  Al22  1  0.11614787  0.75843205  0.38651865  1
  Al  Al23  1  0.21722796  0.87035281  0.13895050  1
  Al  Al24  1  0.78067406  0.76290503  0.81590610  1
  Al  Al25  1  0.88427028  0.87382917  0.56453647  1
  Al  Al26  1  0.44152884  0.76642904  0.33623372  1
  Al  Al27  1  0.56319959  0.85984569  0.06276095  1
  Al  Al28  1  0.11566715  0.75947677  0.89503450  1
  Al  Al29  1  0.21399085  0.87256850  0.64228879  1
  Al  Al30  1  0.77781071  0.76506590  0.31988819  1
  Al  Al31  1  0.88175287  0.87544062  0.07256334  1
  Al  Al32  1  0.44908949  0.75888209  0.81639348  1
  Al  Al33  1  0.56056074  0.86503883  0.57874793  1
  Gd  Gd34  1  0.22009871  0.20670143  0.14138654  1
  Gd  Gd35  1  0.77737018  0.42760931  0.31608326  1
  N  N36  1  0.21860986  0.20717315  0.35871258  1
  N  N37  1  0.10441495  0.07459582  0.06440790  1
  N  N38  1  0.88244342  0.20706839  0.86725989  1
  N  N39  1  0.78291912  0.08703760  0.63355241  1
  N  N40  1  0.55967208  0.20386700  0.38637610  1
  N  N41  1  0.46832634  0.08179869  0.06915618  1
  N  N42  1  0.22167187  0.20531175  0.83287829  1
  N  N43  1  0.11815805  0.08990102  0.59055079  1
  N  N44  1  0.89349171  0.18116091  0.39425403  1
  N  N45  1  0.77816024  0.09731081  0.13275847  1
  N  N46  1  0.56145176  0.20532449  0.86788244  1
  N  N47  1  0.44461729  0.09278047  0.59414031  1
  N  N48  1  0.22190982  0.53680222  0.32639531  1
  N  N49  1  0.10514877  0.45451096  0.06462383  1
  N  N50  1  0.88279612  0.54336864  0.86711084  1
  N  N51  1  0.77869651  0.42711396  0.62698577  1
  N  N52  1  0.52840888  0.55828636  0.39570052  1
  N  N53  1  0.44009300  0.43212346  0.07232496  1
  N  N54  1  0.21803351  0.54587242  0.82554845  1
  N  N55  1  0.11858839  0.42502530  0.59115039  1
  N  N56  1  0.89481729  0.55809662  0.39387640  1
  N  N57  1  0.78080192  0.42678675  0.09851901  1
  N  N58  1  0.55559451  0.54191862  0.86802246  1
  N  N59  1  0.43911351  0.42818097  0.59148081  1
  N  N60  1  0.21406647  0.87898229  0.32711364  1
  N  N61  1  0.11543854  0.75866673  0.08163222  1
  N  N62  1  0.88196449  0.87559567  0.88504009  1
  N  N63  1  0.78131503  0.76361509  0.63350043  1
  N  N64  1  0.55815740  0.86779470  0.38840282  1
  N  N65  1  0.44932866  0.75859215  0.12371938  1
  N  N66  1  0.21610545  0.87004806  0.82582978  1
  N  N67  1  0.11763093  0.75680368  0.57337700  1
  N  N68  1  0.88256529  0.87507495  0.37751363  1
  N  N69  1  0.77776204  0.75874795  0.13254978  1
  N  N70  1  0.56081434  0.86259105  0.87320184  1
  N  N71  1  0.44726788  0.76145671  0.63140076  1
