# generated using pymatgen
data_GdAl17N18
_symmetry_space_group_name_H-M   'P 1'
_cell_length_a   9.50897562
_cell_length_b   9.51311958
_cell_length_c   10.12981529
_cell_angle_alpha   90.00000059
_cell_angle_beta   89.92923120
_cell_angle_gamma   59.98558820
_symmetry_Int_Tables_number   1
_chemical_formula_structural   GdAl17N18
_chemical_formula_sum   'Gd2 Al34 N36'
_cell_volume   793.46051240
_cell_formula_units_Z   2
loop_
 _symmetry_equiv_pos_site_id
 _symmetry_equiv_pos_as_xyz
  1  'x, y, z'
loop_
 _atom_site_type_symbol
 _atom_site_label
 _atom_site_symmetry_multiplicity
 _atom_site_fract_x
 _atom_site_fract_y
 _atom_site_fract_z
 _atom_site_occupancy
  Al  Al0  1  0.11073121  0.08425906  0.31460909  1
  Al  Al1  1  0.77684044  0.09219686  0.80872651  1
  Al  Al2  1  0.89018568  0.19886287  0.56465358  1
  Al  Al3  1  0.45241476  0.09044227  0.31490263  1
  Al  Al4  1  0.56165225  0.20337325  0.06011038  1
  Al  Al5  1  0.11251356  0.09144129  0.80064587  1
  Al  Al6  1  0.22228362  0.20550785  0.55793340  1
  Al  Al7  1  0.77951720  0.08892454  0.30907076  1
  Al  Al8  1  0.88666382  0.20014880  0.04991435  1
  Al  Al9  1  0.44692671  0.09318630  0.80082085  1
  Al  Al10  1  0.55675531  0.20648096  0.55878422  1
  Al  Al11  1  0.11073121  0.43830903  0.31460909  1
  Al  Al12  1  0.21951413  0.54537895  0.05975367  1
  Al  Al13  1  0.77778875  0.42775527  0.80900167  1
  Al  Al14  1  0.89018568  0.54425076  0.56465359  1
  Al  Al15  1  0.43912572  0.43009387  0.30987865  1
  Al  Al16  1  0.55267492  0.54031220  0.05016130  1
  Al  Al17  1  0.11251357  0.42934443  0.80064587  1
  Al  Al18  1  0.22325917  0.54018704  0.55844532  1
  Al  Al19  1  0.88666382  0.54648670  0.04991435  1
  Al  Al20  1  0.44274058  0.42688582  0.80900180  1
  Al  Al21  1  0.54880536  0.54224697  0.56439578  1
  Al  Al22  1  0.11103353  0.76113288  0.30975796  1
  Al  Al23  1  0.21951413  0.86840623  0.05975367  1
  Al  Al24  1  0.77684044  0.76426202  0.80872651  1
  Al  Al25  1  0.88833200  0.87248366  0.55843911  1
  Al  Al26  1  0.43912571  0.76407970  0.30987865  1
  Al  Al27  1  0.56165227  0.86827381  0.06011038  1
  Al  Al28  1  0.11037468  0.76146230  0.80934546  1
  Al  Al29  1  0.22325918  0.86985309  0.55844531  1
  Al  Al30  1  0.77951720  0.76485757  0.30907076  1
  Al  Al31  1  0.88923483  0.87203226  0.06057251  1
  Al  Al32  1  0.44274058  0.76367291  0.80900180  1
  Al  Al33  1  0.55675531  0.87006305  0.55878421  1
  Gd  Gd34  1  0.22306726  0.20511604  0.06449288  1
  Gd  Gd35  1  0.77954404  0.42687763  0.31029620  1
  N  N36  1  0.22083977  0.20622978  0.36076242  1
  N  N37  1  0.09362505  0.07968740  0.12754149  1
  N  N38  1  0.89118923  0.20170233  0.86035835  1
  N  N39  1  0.77581856  0.09223298  0.62110920  1
  N  N40  1  0.55738767  0.20808247  0.36961958  1
  N  N41  1  0.47732167  0.07798881  0.12958611  1
  N  N42  1  0.22268475  0.20530728  0.84307926  1
  N  N43  1  0.11343017  0.09124455  0.61373931  1
  N  N44  1  0.90053196  0.17582780  0.38085617  1
  N  N45  1  0.77855995  0.09482536  0.11779391  1
  N  N46  1  0.55451494  0.20494828  0.86873562  1
  N  N47  1  0.44692589  0.09318670  0.61122279  1
  N  N48  1  0.22359294  0.54130046  0.37032224  1
  N  N49  1  0.09362503  0.45998687  0.12754149  1
  N  N50  1  0.89118923  0.54040776  0.86035835  1
  N  N51  1  0.77754792  0.42787568  0.61357747  1
  N  N52  1  0.52643235  0.55343348  0.37802197  1
  N  N53  1  0.44436639  0.42791881  0.11716729  1
  N  N54  1  0.22132656  0.53898574  0.86877506  1
  N  N55  1  0.11343016  0.42862458  0.61373932  1
  N  N56  1  0.90053196  0.55693957  0.38085617  1
  N  N57  1  0.77904762  0.42712585  0.08751861  1
  N  N58  1  0.55203572  0.54063180  0.86176870  1
  N  N59  1  0.44304444  0.42632372  0.62079007  1
  N  N60  1  0.22359293  0.86840591  0.37032223  1
  N  N61  1  0.11053303  0.76138314  0.11928993  1
  N  N62  1  0.88913733  0.87208100  0.87020507  1
  N  N63  1  0.77581856  0.76524777  0.62110920  1
  N  N64  1  0.55738767  0.86782917  0.36961957  1
  N  N65  1  0.44436639  0.76101409  0.11716728  1
  N  N66  1  0.22132656  0.87298701  0.86877505  1
  N  N67  1  0.11037131  0.76146399  0.61903583  1
  N  N68  1  0.88890110  0.87219911  0.36788267  1
  N  N69  1  0.77855996  0.75991400  0.11779392  1
  N  N70  1  0.55451495  0.87383610  0.86873562  1
  N  N71  1  0.44304444  0.76393115  0.62079007  1
