# generated using pymatgen
data_GdAl17N18
_symmetry_space_group_name_H-M   'P 1'
_cell_length_a   9.53081423
_cell_length_b   9.53008250
_cell_length_c   10.17549224
_cell_angle_alpha   90.04857089
_cell_angle_beta   89.91087362
_cell_angle_gamma   60.00360171
_symmetry_Int_Tables_number   1
_chemical_formula_structural   GdAl17N18
_chemical_formula_sum   'Gd2 Al34 N36'
_cell_volume   800.43707088
_cell_formula_units_Z   2
loop_
 _symmetry_equiv_pos_site_id
 _symmetry_equiv_pos_as_xyz
  1  'x, y, z'
loop_
 _atom_site_type_symbol
 _atom_site_label
 _atom_site_symmetry_multiplicity
 _atom_site_fract_x
 _atom_site_fract_y
 _atom_site_fract_z
 _atom_site_occupancy
  Al  Al0  1  0.11316642  0.08725262  0.40616527  1
  Al  Al1  1  0.77327094  0.09940204  0.89529873  1
  Al  Al2  1  0.88752469  0.20434261  0.65573168  1
  Al  Al3  1  0.44705923  0.09321704  0.40590264  1
  Al  Al4  1  0.55884870  0.20458672  0.14637135  1
  Al  Al5  1  0.10938446  0.08918402  0.89158310  1
  Al  Al6  1  0.22213455  0.20531814  0.64666617  1
  Al  Al7  1  0.77712359  0.09473207  0.39335652  1
  Al  Al8  1  0.88866940  0.19662663  0.14191586  1
  Al  Al9  1  0.45027809  0.09150233  0.89150263  1
  Al  Al10  1  0.55648785  0.20698463  0.64732644  1
  Al  Al11  1  0.11367456  0.43321623  0.40600989  1
  Al  Al12  1  0.22081607  0.54363313  0.14719663  1
  Al  Al13  1  0.77725860  0.42772980  0.89801859  1
  Al  Al14  1  0.88758411  0.54109882  0.65597566  1
  Al  Al15  1  0.43890755  0.42988200  0.39624298  1
  Al  Al16  1  0.54744838  0.54301830  0.14131239  1
  Al  Al17  1  0.10990164  0.43409244  0.89121108  1
  Al  Al18  1  0.22429588  0.53974145  0.64763945  1
  Al  Al19  1  0.88928624  0.54775490  0.14046001  1
  Al  Al20  1  0.44306319  0.42692141  0.89769316  1
  Al  Al21  1  0.55312023  0.53998196  0.65503110  1
  Al  Al22  1  0.11798939  0.75792887  0.39359625  1
  Al  Al23  1  0.22049206  0.86913337  0.14719928  1
  Al  Al24  1  0.77335405  0.76059888  0.89508926  1
  Al  Al25  1  0.88983528  0.87115098  0.58577050  1
  Al  Al26  1  0.43861911  0.76529142  0.39605931  1
  Al  Al27  1  0.55838427  0.87023683  0.14546002  1
  Al  Al28  1  0.11772857  0.75760903  0.89488417  1
  Al  Al29  1  0.22416000  0.86909501  0.64766910  1
  Al  Al30  1  0.77770841  0.76250596  0.39029629  1
  Al  Al31  1  0.88890350  0.87239769  0.08460589  1
  Al  Al32  1  0.44285536  0.76311592  0.89750343  1
  Al  Al33  1  0.55681650  0.86933787  0.64719429  1
  Gd  Gd34  1  0.21943862  0.20700287  0.14610359  1
  Gd  Gd35  1  0.77711942  0.42954145  0.39306941  1
  N  N36  1  0.22107905  0.20624771  0.36837081  1
  N  N37  1  0.09858306  0.07671965  0.07496322  1
  N  N38  1  0.88698492  0.20550159  0.84156536  1
  N  N39  1  0.77504752  0.10152577  0.58750662  1
  N  N40  1  0.55410062  0.20629309  0.33789005  1
  N  N41  1  0.47227976  0.08074461  0.07741927  1
  N  N42  1  0.22204618  0.20531861  0.84171347  1
  N  N43  1  0.10866721  0.09263411  0.59512281  1
  N  N44  1  0.90637976  0.17560624  0.32775243  1
  N  N45  1  0.77175427  0.10017449  0.08596758  1
  N  N46  1  0.55504399  0.20801521  0.83458121  1
  N  N47  1  0.44818968  0.09231851  0.59375974  1
  N  N48  1  0.22299081  0.53676406  0.33741901  1
  N  N49  1  0.09943060  0.45759769  0.07434430  1
  N  N50  1  0.88708491  0.54035546  0.84189876  1
  N  N51  1  0.77736244  0.42777838  0.61343637  1
  N  N52  1  0.52341812  0.55523510  0.32660613  1
  N  N53  1  0.44215810  0.42575205  0.08621383  1
  N  N54  1  0.22535055  0.53913778  0.83417341  1
  N  N55  1  0.10870006  0.43160601  0.59513447  1
  N  N56  1  0.90792587  0.55190378  0.32600381  1
  N  N57  1  0.77856558  0.42734196  0.09415107  1
  N  N58  1  0.55268523  0.54015475  0.84442495  1
  N  N59  1  0.44569470  0.42803560  0.58686669  1
  N  N60  1  0.22259088  0.87434257  0.33737894  1
  N  N61  1  0.11760359  0.75780664  0.08841152  1
  N  N62  1  0.88987490  0.87168297  0.87679408  1
  N  N63  1  0.77519220  0.75587443  0.58680066  1
  N  N64  1  0.55393252  0.87336202  0.33697915  1
  N  N65  1  0.44175442  0.76553190  0.08594958  1
  N  N66  1  0.22508100  0.86866203  0.83426312  1
  N  N67  1  0.11902291  0.75693975  0.58643279  1
  N  N68  1  0.89121260  0.87180356  0.37914481  1
  N  N69  1  0.77178756  0.76169679  0.08602636  1
  N  N70  1  0.55501192  0.87000027  0.83465093  1
  N  N71  1  0.44562172  0.75941646  0.58677124  1
