# generated using pymatgen
data_GdAl17N18
_symmetry_space_group_name_H-M   'P 1'
_cell_length_a   9.48561330
_cell_length_b   9.50870157
_cell_length_c   10.40748230
_cell_angle_alpha   89.99917098
_cell_angle_beta   89.52605455
_cell_angle_gamma   59.91940019
_symmetry_Int_Tables_number   1
_chemical_formula_structural   GdAl17N18
_chemical_formula_sum   'Gd2 Al34 N36'
_cell_volume   812.25022334
_cell_formula_units_Z   2
loop_
 _symmetry_equiv_pos_site_id
 _symmetry_equiv_pos_as_xyz
  1  'x, y, z'
loop_
 _atom_site_type_symbol
 _atom_site_label
 _atom_site_symmetry_multiplicity
 _atom_site_fract_x
 _atom_site_fract_y
 _atom_site_fract_z
 _atom_site_occupancy
  Al  Al0  1  0.12373055  0.08073638  0.40291695  1
  Al  Al1  1  0.78121940  0.08920511  0.81282199  1
  Al  Al2  1  0.88793823  0.19860693  0.57568132  1
  Al  Al3  1  0.44735358  0.09304486  0.39271672  1
  Al  Al4  1  0.55493245  0.20738227  0.13344832  1
  Al  Al5  1  0.11490533  0.08714774  0.87658332  1
  Al  Al6  1  0.22555891  0.20393211  0.64063239  1
  Al  Al7  1  0.78573938  0.08571587  0.31557615  1
  Al  Al8  1  0.87463590  0.20809564  0.05043643  1
  Al  Al9  1  0.45152506  0.09093793  0.88202378  1
  Al  Al10  1  0.55004798  0.20938391  0.63492272  1
  Al  Al11  1  0.12373038  0.42896906  0.40291533  1
  Al  Al12  1  0.21675078  0.54499705  0.13406105  1
  Al  Al13  1  0.78019152  0.42660336  0.81040225  1
  Al  Al14  1  0.88794227  0.54687612  0.57568504  1
  Al  Al15  1  0.44006699  0.42891567  0.38223708  1
  Al  Al16  1  0.54182702  0.54578883  0.12776969  1
  Al  Al17  1  0.11490780  0.43133897  0.87659270  1
  Al  Al18  1  0.22431170  0.54212329  0.63745715  1
  Al  Al19  1  0.87463981  0.55065335  0.05044357  1
  Al  Al20  1  0.44442163  0.42790593  0.88327218  1
  Al  Al21  1  0.54886056  0.54228393  0.63204746  1
  Al  Al22  1  0.11739074  0.75802245  0.38301157  1
  Al  Al23  1  0.21675129  0.87164539  0.13405765  1
  Al  Al24  1  0.78122080  0.76297085  0.81282767  1
  Al  Al25  1  0.88346980  0.87497678  0.56203461  1
  Al  Al26  1  0.44006942  0.76445636  0.38223748  1
  Al  Al27  1  0.55493790  0.87108757  0.13345039  1
  Al  Al28  1  0.11726809  0.75806506  0.88774141  1
  Al  Al29  1  0.22431397  0.86698587  0.63745266  1
  Al  Al30  1  0.78574140  0.76197543  0.31558112  1
  Al  Al31  1  0.88149522  0.87594902  0.06599940  1
  Al  Al32  1  0.44442182  0.76107401  0.88327026  1
  Al  Al33  1  0.55005238  0.87399579  0.63492321  1
  Gd  Gd34  1  0.21813302  0.20761833  0.13605490  1
  Gd  Gd35  1  0.79307292  0.42018163  0.32355939  1
  N  N36  1  0.21728927  0.20807415  0.35432404  1
  N  N37  1  0.10167815  0.07730969  0.05966349  1
  N  N38  1  0.88020800  0.20859479  0.86505042  1
  N  N39  1  0.78278759  0.08694839  0.62993554  1
  N  N40  1  0.54773096  0.20862494  0.32259851  1
  N  N41  1  0.47622853  0.07858684  0.06286868  1
  N  N42  1  0.22335047  0.20502399  0.82899320  1
  N  N43  1  0.12137590  0.08726176  0.58900125  1
  N  N44  1  0.89865246  0.17276509  0.39448346  1
  N  N45  1  0.78494444  0.09271349  0.12912901  1
  N  N46  1  0.54749110  0.21152064  0.82080844  1
  N  N47  1  0.44895024  0.09223992  0.57695257  1
  N  N48  1  0.22055667  0.53764479  0.32145720  1
  N  N49  1  0.10168519  0.45438908  0.05967748  1
  N  N50  1  0.88020967  0.54459088  0.86505939  1
  N  N51  1  0.78382224  0.42480039  0.61999688  1
  N  N52  1  0.52342482  0.55500799  0.31396054  1
  N  N53  1  0.44209669  0.42636566  0.06974643  1
  N  N54  1  0.22355839  0.54282230  0.82094590  1
  N  N55  1  0.12137799  0.42478568  0.58900167  1
  N  N56  1  0.89865251  0.56201595  0.39449059  1
  N  N57  1  0.77635152  0.42851725  0.10316568  1
  N  N58  1  0.54749334  0.54295509  0.81971526  1
  N  N59  1  0.44644495  0.42695794  0.56945363  1
  N  N60  1  0.22055823  0.87523566  0.32145544  1
  N  N61  1  0.11582562  0.75878326  0.07491923  1
  N  N62  1  0.88173505  0.87583032  0.88043634  1
  N  N63  1  0.78279244  0.76368265  0.62994164  1
  N  N64  1  0.54773187  0.87708527  0.32259979  1
  N  N65  1  0.44209864  0.76494272  0.06974522  1
  N  N66  1  0.22356108  0.86701501  0.82093957  1
  N  N67  1  0.11876705  0.75732882  0.57051405  1
  N  N68  1  0.88349599  0.87496758  0.37641698  1
  N  N69  1  0.78495057  0.75572826  0.12913435  1
  N  N70  1  0.54749226  0.87439106  0.82080832  1
  N  N71  1  0.44644845  0.76002837  0.56945278  1
