# generated using pymatgen
data_GdAl17N18
_symmetry_space_group_name_H-M   'P 1'
_cell_length_a   9.52795883
_cell_length_b   9.52765869
_cell_length_c   10.31446923
_cell_angle_alpha   89.85451620
_cell_angle_beta   89.36171928
_cell_angle_gamma   59.99367645
_symmetry_Int_Tables_number   1
_chemical_formula_structural   GdAl17N18
_chemical_formula_sum   'Gd2 Al34 N36'
_cell_volume   810.78609482
_cell_formula_units_Z   2
loop_
 _symmetry_equiv_pos_site_id
 _symmetry_equiv_pos_as_xyz
  1  'x, y, z'
loop_
 _atom_site_type_symbol
 _atom_site_label
 _atom_site_symmetry_multiplicity
 _atom_site_fract_x
 _atom_site_fract_y
 _atom_site_fract_z
 _atom_site_occupancy
  Al  Al0  1  0.12457311  0.08114737  0.41764774  1
  Al  Al1  1  0.78073691  0.08909827  0.82806287  1
  Al  Al2  1  0.88799668  0.20061868  0.59138311  1
  Al  Al3  1  0.44925799  0.09239466  0.40802340  1
  Al  Al4  1  0.55379693  0.20698360  0.14875954  1
  Al  Al5  1  0.11432248  0.08677784  0.89069285  1
  Al  Al6  1  0.22595695  0.20415765  0.65545471  1
  Al  Al7  1  0.78670712  0.08597248  0.33017446  1
  Al  Al8  1  0.87545766  0.20510118  0.06743834  1
  Al  Al9  1  0.45140177  0.09044901  0.89736796  1
  Al  Al10  1  0.55048729  0.20989300  0.64962195  1
  Al  Al11  1  0.12532996  0.42795653  0.41743847  1
  Al  Al12  1  0.21679287  0.54424896  0.14999976  1
  Al  Al13  1  0.77564462  0.42910805  0.84147044  1
  Al  Al14  1  0.88839224  0.54691089  0.59058244  1
  Al  Al15  1  0.44013418  0.42921177  0.39799561  1
  Al  Al16  1  0.54054318  0.54567516  0.14226556  1
  Al  Al17  1  0.11460606  0.43111647  0.89165448  1
  Al  Al18  1  0.22459242  0.54240633  0.65225510  1
  Al  Al19  1  0.87587879  0.55112364  0.06831700  1
  Al  Al20  1  0.44285324  0.42730962  0.89885183  1
  Al  Al21  1  0.55167388  0.54136352  0.64808198  1
  Al  Al22  1  0.11787814  0.75806318  0.39788454  1
  Al  Al23  1  0.21662980  0.87049950  0.14951754  1
  Al  Al24  1  0.78101847  0.76309181  0.82784107  1
  Al  Al25  1  0.88389777  0.87591123  0.57723396  1
  Al  Al26  1  0.43969450  0.76469528  0.39796222  1
  Al  Al27  1  0.55439782  0.87072228  0.14924692  1
  Al  Al28  1  0.11727316  0.75761082  0.90236551  1
  Al  Al29  1  0.22456253  0.86698610  0.65212148  1
  Al  Al30  1  0.78675664  0.76231137  0.33112867  1
  Al  Al31  1  0.88168676  0.87500436  0.08085699  1
  Al  Al32  1  0.44290249  0.76253390  0.89881657  1
  Al  Al33  1  0.55051746  0.87380654  0.64943052  1
  Gd  Gd34  1  0.21676366  0.20630736  0.15053893  1
  Gd  Gd35  1  0.78891057  0.42350615  0.34342213  1
  N  N36  1  0.22081178  0.20659244  0.37027571  1
  N  N37  1  0.10049007  0.07569901  0.07543688  1
  N  N38  1  0.88067268  0.20716935  0.87984730  1
  N  N39  1  0.78220734  0.08847258  0.64352917  1
  N  N40  1  0.54968232  0.20860084  0.33932937  1
  N  N41  1  0.47428242  0.07868769  0.07982358  1
  N  N42  1  0.22365238  0.20454583  0.84565048  1
  N  N43  1  0.12074371  0.08815276  0.60530507  1
  N  N44  1  0.90146825  0.17256117  0.40622722  1
  N  N45  1  0.78264186  0.09168785  0.14235846  1
  N  N46  1  0.54809593  0.21085223  0.83717437  1
  N  N47  1  0.44924454  0.09262816  0.59349125  1
  N  N48  1  0.22202495  0.53744327  0.33800275  1
  N  N49  1  0.10124719  0.45412799  0.07684360  1
  N  N50  1  0.88088395  0.54533108  0.88103302  1
  N  N51  1  0.78146069  0.42719288  0.62813292  1
  N  N52  1  0.52138543  0.55636051  0.32893582  1
  N  N53  1  0.44069546  0.42602546  0.08590225  1
  N  N54  1  0.22363241  0.54228526  0.83697328  1
  N  N55  1  0.12111246  0.42532334  0.60515399  1
  N  N56  1  0.90238793  0.56079744  0.40652450  1
  N  N57  1  0.77382142  0.42887067  0.11381483  1
  N  N58  1  0.54664630  0.54319814  0.83786963  1
  N  N59  1  0.44638235  0.42803896  0.58634675  1
  N  N60  1  0.22155586  0.87520505  0.33768437  1
  N  N61  1  0.11497147  0.75823624  0.09114718  1
  N  N62  1  0.88297389  0.87480941  0.89379647  1
  N  N63  1  0.78231393  0.76435014  0.64332060  1
  N  N64  1  0.54973309  0.87563557  0.33982039  1
  N  N65  1  0.44085440  0.76549558  0.08592719  1
  N  N66  1  0.22379988  0.86660963  0.83665644  1
  N  N67  1  0.11810446  0.75815553  0.58665799  1
  N  N68  1  0.88517542  0.87499697  0.39014092  1
  N  N69  1  0.78328050  0.75693113  0.14349226  1
  N  N70  1  0.54831684  0.87373094  0.83692627  1
  N  N71  1  0.44614364  0.76017166  0.58621876  1
