# generated using pymatgen
data_GdAl17N18
_symmetry_space_group_name_H-M   'P 1'
_cell_length_a   9.50897848
_cell_length_b   9.51311945
_cell_length_c   10.12980794
_cell_angle_alpha   89.99999766
_cell_angle_beta   89.92923792
_cell_angle_gamma   59.98559299
_symmetry_Int_Tables_number   1
_chemical_formula_structural   GdAl17N18
_chemical_formula_sum   'Gd2 Al34 N36'
_cell_volume   793.46020348
_cell_formula_units_Z   2
loop_
 _symmetry_equiv_pos_site_id
 _symmetry_equiv_pos_as_xyz
  1  'x, y, z'
loop_
 _atom_site_type_symbol
 _atom_site_label
 _atom_site_symmetry_multiplicity
 _atom_site_fract_x
 _atom_site_fract_y
 _atom_site_fract_z
 _atom_site_occupancy
  Al  Al0  1  0.11318868  0.08691286  0.41499742  1
  Al  Al1  1  0.77659342  0.09321242  0.90646215  1
  Al  Al2  1  0.88733842  0.20405490  0.66426217  1
  Al  Al3  1  0.44717656  0.09308718  0.41474793  1
  Al  Al4  1  0.56072661  0.20330527  0.15502803  1
  Al  Al5  1  0.10966603  0.08914814  0.90025741  1
  Al  Al6  1  0.22206391  0.20564351  0.65591120  1
  Al  Al7  1  0.78033761  0.08801974  0.40515250  1
  Al  Al8  1  0.88912118  0.19508962  0.15030355  1
  Al  Al9  1  0.45104781  0.09115156  0.90051448  1
  Al  Al10  1  0.55711182  0.20651317  0.65590481  1
  Al  Al11  1  0.11318869  0.43324937  0.41499741  1
  Al  Al12  1  0.22033511  0.54447402  0.15583764  1
  Al  Al13  1  0.77756894  0.42789099  0.90697851  1
  Al  Al14  1  0.88733843  0.54195761  0.66426217  1
  Al  Al15  1  0.43819926  0.43002561  0.40479549  1
  Al  Al16  1  0.54743682  0.54295705  0.15000706  1
  Al  Al17  1  0.10966603  0.43453675  0.90025742  1
  Al  Al18  1  0.22301183  0.54120265  0.65618054  1
  Al  Al19  1  0.88912120  0.54914012  0.15030355  1
  Al  Al20  1  0.44309705  0.42691809  0.90612312  1
  Al  Al21  1  0.55292574  0.54021259  0.66408705  1
  Al  Al22  1  0.11061681  0.76136704  0.40433107  1
  Al  Al23  1  0.22033510  0.86854177  0.15583764  1
  Al  Al24  1  0.77659342  0.76354510  0.90646215  1
  Al  Al25  1  0.88947798  0.87193648  0.65556066  1
  Al  Al26  1  0.43819924  0.76512605  0.40479549  1
  Al  Al27  1  0.56072663  0.86931905  0.15502803  1
  Al  Al28  1  0.11152067  0.76091511  0.90646945  1
  Al  Al29  1  0.22301182  0.86913643  0.65618054  1
  Al  Al30  1  0.78033761  0.76499358  0.40515251  1
  Al  Al31  1  0.88881828  0.87226633  0.15514680  1
  Al  Al32  1  0.44309705  0.76333578  0.90612313  1
  Al  Al33  1  0.55711182  0.86972593  0.65590481  1
  Gd  Gd34  1  0.22030874  0.20652107  0.15461285  1
  Gd  Gd35  1  0.77678312  0.42828390  0.40041531  1
  N  N36  1  0.22080425  0.20627333  0.37739028  1
  N  N37  1  0.09931934  0.07645998  0.08405421  1
  N  N38  1  0.88642219  0.20477503  0.85116922  1
  N  N39  1  0.77852572  0.09441314  0.59613163  1
  N  N40  1  0.55548536  0.20548014  0.34773972  1
  N  N41  1  0.47342049  0.07996522  0.08688677  1
  N  N42  1  0.22230459  0.20552317  0.85133419  1
  N  N43  1  0.10866353  0.09299151  0.60455222  1
  N  N44  1  0.90622759  0.17341221  0.33736961  1
  N  N45  1  0.77625962  0.09209937  0.09458563  1
  N  N46  1  0.55680796  0.20707517  0.84411739  1
  N  N47  1  0.44781594  0.09276749  0.60314016  1
  N  N48  1  0.22129150  0.53857293  0.34711386  1
  N  N49  1  0.09931936  0.45757158  0.08405422  1
  N  N50  1  0.88642219  0.54215372  0.85116923  1
  N  N51  1  0.77716745  0.42809175  0.62182809  1
  N  N52  1  0.52252867  0.55541113  0.33532185  1
  N  N53  1  0.44246436  0.42531670  0.09528827  1
  N  N54  1  0.22403348  0.54116605  0.84379874  1
  N  N55  1  0.10866354  0.43169587  0.60455222  1
  N  N56  1  0.90622758  0.55371113  0.33736961  1
  N  N57  1  0.77901250  0.42716921  0.10414911  1
  N  N58  1  0.55292709  0.54021192  0.85368556  1
  N  N59  1  0.44533734  0.42845072  0.59617101  1
  N  N60  1  0.22129149  0.87348649  0.34711385  1
  N  N61  1  0.11095166  0.76119963  0.09702565  1
  N  N62  1  0.88948132  0.87193481  0.84587158  1
  N  N63  1  0.77852572  0.76041208  0.59613163  1
  N  N64  1  0.55548536  0.87238543  0.34773972  1
  N  N65  1  0.44246435  0.76556988  0.09528827  1
  N  N66  1  0.22403349  0.86815138  0.84379874  1
  N  N67  1  0.11071479  0.76131806  0.59469983  1
  N  N68  1  0.88931854  0.87201619  0.34561495  1
  N  N69  1  0.77625964  0.76499195  0.09458563  1
  N  N70  1  0.55680796  0.86946780  0.84411739  1
  N  N71  1  0.44533734  0.75956286  0.59617101  1
