# generated using pymatgen
data_GdAl17N18
_symmetry_space_group_name_H-M   'P 1'
_cell_length_a   9.48562234
_cell_length_b   9.50871145
_cell_length_c   10.40760405
_cell_angle_alpha   90.00000275
_cell_angle_beta   89.52599875
_cell_angle_gamma   59.91945063
_symmetry_Int_Tables_number   1
_chemical_formula_structural   GdAl17N18
_chemical_formula_sum   'Gd2 Al34 N36'
_cell_volume   812.26168298
_cell_formula_units_Z   2
loop_
 _symmetry_equiv_pos_site_id
 _symmetry_equiv_pos_as_xyz
  1  'x, y, z'
loop_
 _atom_site_type_symbol
 _atom_site_label
 _atom_site_symmetry_multiplicity
 _atom_site_fract_x
 _atom_site_fract_y
 _atom_site_fract_z
 _atom_site_occupancy
  Al  Al0  1  0.12373648  0.08071139  0.41233895  1
  Al  Al1  1  0.78120291  0.08920723  0.82222874  1
  Al  Al2  1  0.88792296  0.19859680  0.58508649  1
  Al  Al3  1  0.44735165  0.09301930  0.40214217  1
  Al  Al4  1  0.55488708  0.20739385  0.14288998  1
  Al  Al5  1  0.11487748  0.08715403  0.88601978  1
  Al  Al6  1  0.22553532  0.20392746  0.65006914  1
  Al  Al7  1  0.78574276  0.08569206  0.32498142  1
  Al  Al8  1  0.87458198  0.20811794  0.05984515  1
  Al  Al9  1  0.45149601  0.09094713  0.89146182  1
  Al  Al10  1  0.55002495  0.20937289  0.64434822  1
  Al  Al11  1  0.12373649  0.42894234  0.41233896  1
  Al  Al12  1  0.21671508  0.54501562  0.14348726  1
  Al  Al13  1  0.78017603  0.42660709  0.81980768  1
  Al  Al14  1  0.88792292  0.54687047  0.58508648  1
  Al  Al15  1  0.44007050  0.42888862  0.39167157  1
  Al  Al16  1  0.54179316  0.54579857  0.13720509  1
  Al  Al17  1  0.11487746  0.43135875  0.88601977  1
  Al  Al18  1  0.22429169  0.54211701  0.64688157  1
  Al  Al19  1  0.87458199  0.55069029  0.05984516  1
  Al  Al20  1  0.44440651  0.42790655  0.89270096  1
  Al  Al21  1  0.54883999  0.54227512  0.64147227  1
  Al  Al22  1  0.11739641  0.75799691  0.39243826  1
  Al  Al23  1  0.21671508  0.87165956  0.14348727  1
  Al  Al24  1  0.78120287  0.76298010  0.82222875  1
  Al  Al25  1  0.88344980  0.87497019  0.57143628  1
  Al  Al26  1  0.44007050  0.76443112  0.39167157  1
  Al  Al27  1  0.55488707  0.87110934  0.14288997  1
  Al  Al28  1  0.11725161  0.75806931  0.89716613  1
  Al  Al29  1  0.22429170  0.86698150  0.64688156  1
  Al  Al30  1  0.78574276  0.76195538  0.32498141  1
  Al  Al31  1  0.88145633  0.87596695  0.07540353  1
  Al  Al32  1  0.44440650  0.76107717  0.89270095  1
  Al  Al33  1  0.55002492  0.87399242  0.64434822  1
  Gd  Gd34  1  0.21805419  0.20766805  0.14547552  1
  Gd  Gd35  1  0.79307860  0.42015579  0.33296126  1
  N  N36  1  0.21729246  0.20804889  0.36374088  1
  N  N37  1  0.10162634  0.07732733  0.06909607  1
  N  N38  1  0.88018155  0.20860443  0.87446454  1
  N  N39  1  0.78276678  0.08694383  0.63934454  1
  N  N40  1  0.54773316  0.20859941  0.33203438  1
  N  N41  1  0.47615560  0.07861733  0.07231280  1
  N  N42  1  0.22331832  0.20503597  0.83842905  1
  N  N43  1  0.12135990  0.08725512  0.59842044  1
  N  N44  1  0.89866101  0.17274000  0.40389279  1
  N  N45  1  0.78489911  0.09273084  0.13853726  1
  N  N46  1  0.54747272  0.21151719  0.83023386  1
  N  N47  1  0.44892400  0.09223312  0.58637899  1
  N  N48  1  0.22056178  0.53761795  0.33088204  1
  N  N49  1  0.10162634  0.45443659  0.06909606  1
  N  N50  1  0.88018153  0.54460426  0.87446454  1
  N  N51  1  0.78380544  0.42479238  0.62940521  1
  N  N52  1  0.52342986  0.55498019  0.32339672  1
  N  N53  1  0.44206378  0.42637484  0.07917631  1
  N  N54  1  0.22354212  0.54282487  0.83036902  1
  N  N55  1  0.12135988  0.42477520  0.59842044  1
  N  N56  1  0.89866100  0.56198920  0.40389278  1
  N  N57  1  0.77631431  0.42853796  0.11257518  1
  N  N58  1  0.54747776  0.54295624  0.82913706  1
  N  N59  1  0.44642713  0.42694473  0.57888331  1
  N  N60  1  0.22056178  0.87521049  0.33088204  1
  N  N61  1  0.11578838  0.75880094  0.08434400  1
  N  N62  1  0.88171839  0.87583592  0.88984266  1
  N  N63  1  0.78276674  0.76367961  0.63934455  1
  N  N64  1  0.54773316  0.87705769  0.33203437  1
  N  N65  1  0.44206378  0.76495164  0.07917631  1
  N  N66  1  0.22354211  0.86702325  0.83036901  1
  N  N67  1  0.11874894  0.75732062  0.57993709  1
  N  N68  1  0.88350312  0.87494354  0.38582012  1
  N  N69  1  0.78489910  0.75576028  0.13853725  1
  N  N70  1  0.54747267  0.87440037  0.83023386  1
  N  N71  1  0.44642715  0.76001835  0.57888330  1
