# generated using pymatgen
data_GdAl17N18
_symmetry_space_group_name_H-M   'P 1'
_cell_length_a   9.48943484
_cell_length_b   9.53605295
_cell_length_c   10.46764574
_cell_angle_alpha   90.05585981
_cell_angle_beta   90.05813847
_cell_angle_gamma   59.83263915
_symmetry_Int_Tables_number   1
_chemical_formula_structural   GdAl17N18
_chemical_formula_sum   'Gd2 Al34 N36'
_cell_volume   818.94263079
_cell_formula_units_Z   2
loop_
 _symmetry_equiv_pos_site_id
 _symmetry_equiv_pos_as_xyz
  1  'x, y, z'
loop_
 _atom_site_type_symbol
 _atom_site_label
 _atom_site_symmetry_multiplicity
 _atom_site_fract_x
 _atom_site_fract_y
 _atom_site_fract_z
 _atom_site_occupancy
  Al  Al0  1  0.12064302  0.08290236  0.40647951  1
  Al  Al1  1  0.78054072  0.08916146  0.81569245  1
  Al  Al2  1  0.88543676  0.20290217  0.57822916  1
  Al  Al3  1  0.44032164  0.09583921  0.40301456  1
  Al  Al4  1  0.56312094  0.21077964  0.06423940  1
  Al  Al5  1  0.11544900  0.08629237  0.88134581  1
  Al  Al6  1  0.22617597  0.20306443  0.64643507  1
  Al  Al7  1  0.77817585  0.09035639  0.31998606  1
  Al  Al8  1  0.87846969  0.20541844  0.05221875  1
  Al  Al9  1  0.44754772  0.09116658  0.88617948  1
  Al  Al10  1  0.56176545  0.20413093  0.58017746  1
  Al  Al11  1  0.11925193  0.42909312  0.40656948  1
  Al  Al12  1  0.22220637  0.54372371  0.13864282  1
  Al  Al13  1  0.77798119  0.42804335  0.81479027  1
  Al  Al14  1  0.88565739  0.54441594  0.57848275  1
  Al  Al15  1  0.43557825  0.43125646  0.37097486  1
  Al  Al16  1  0.55163749  0.54251446  0.05778814  1
  Al  Al17  1  0.11606499  0.43080603  0.88226011  1
  Al  Al18  1  0.21663839  0.54478961  0.64293322  1
  Al  Al19  1  0.88002697  0.54985201  0.05292910  1
  Al  Al20  1  0.44697493  0.42762787  0.83392957  1
  Al  Al21  1  0.55025179  0.54566284  0.57596458  1
  Al  Al22  1  0.11542306  0.76021303  0.38801929  1
  Al  Al23  1  0.21223225  0.87288850  0.13882830  1
  Al  Al24  1  0.77872060  0.76318901  0.81632607  1
  Al  Al25  1  0.88266510  0.87445397  0.56563276  1
  Al  Al26  1  0.44328624  0.76480737  0.31964077  1
  Al  Al27  1  0.56368060  0.85969555  0.06698315  1
  Al  Al28  1  0.11644558  0.75823568  0.89480174  1
  Al  Al29  1  0.21532256  0.87196295  0.64324002  1
  Al  Al30  1  0.77894407  0.76415214  0.32010347  1
  Al  Al31  1  0.88075124  0.87610246  0.07148900  1
  Al  Al32  1  0.45037911  0.75848261  0.81659786  1
  Al  Al33  1  0.55968380  0.86318061  0.57350275  1
  Gd  Gd34  1  0.21848730  0.20812983  0.14242942  1
  Gd  Gd35  1  0.77776410  0.42652484  0.31602784  1
  N  N36  1  0.21824844  0.20735897  0.35882589  1
  N  N37  1  0.10466865  0.07525862  0.06249684  1
  N  N38  1  0.88236524  0.20728182  0.86679473  1
  N  N39  1  0.78161563  0.08773071  0.63422234  1
  N  N40  1  0.55899770  0.20665635  0.38803187  1
  N  N41  1  0.46823260  0.08266800  0.07251559  1
  N  N42  1  0.22399268  0.20422442  0.83232919  1
  N  N43  1  0.11890680  0.08930230  0.59099068  1
  N  N44  1  0.89404968  0.18088376  0.39572684  1
  N  N45  1  0.77858327  0.09707505  0.13308760  1
  N  N46  1  0.56134011  0.20647796  0.87233717  1
  N  N47  1  0.44578060  0.09177524  0.59054172  1
  N  N48  1  0.21592326  0.53989254  0.32811977  1
  N  N49  1  0.10547500  0.45455818  0.06381700  1
  N  N50  1  0.88373626  0.54302764  0.86700635  1
  N  N51  1  0.77729569  0.42800449  0.62754353  1
  N  N52  1  0.52485483  0.56059031  0.39540214  1
  N  N53  1  0.44543769  0.43004547  0.10218996  1
  N  N54  1  0.21716148  0.54630759  0.82477542  1
  N  N55  1  0.11879434  0.42434108  0.59111541  1
  N  N56  1  0.89377927  0.55753202  0.39529935  1
  N  N57  1  0.78148851  0.42684060  0.09912509  1
  N  N58  1  0.55489718  0.54210641  0.87282140  1
  N  N59  1  0.44603233  0.42678141  0.61790763  1
  N  N60  1  0.21269651  0.87948940  0.32498754  1
  N  N61  1  0.11472582  0.75861485  0.08006767  1
  N  N62  1  0.88157934  0.87517780  0.88462165  1
  N  N63  1  0.77879051  0.76416966  0.63374737  1
  N  N64  1  0.55702648  0.86663002  0.38407008  1
  N  N65  1  0.45088780  0.75703802  0.13202459  1
  N  N66  1  0.21699773  0.86934882  0.82611217  1
  N  N67  1  0.11704971  0.75794479  0.57361187  1
  N  N68  1  0.88138148  0.87582901  0.37933072  1
  N  N69  1  0.77917359  0.75793307  0.13366732  1
  N  N70  1  0.56062431  0.86097228  0.87903861  1
  N  N71  1  0.44892787  0.76062586  0.63400232  1
