# generated using pymatgen
data_GdAl17N18
_symmetry_space_group_name_H-M   'P 1'
_cell_length_a   9.50898055
_cell_length_b   9.51312151
_cell_length_c   10.12981131
_cell_angle_alpha   89.99999617
_cell_angle_beta   89.92924078
_cell_angle_gamma   59.98559218
_symmetry_Int_Tables_number   1
_chemical_formula_structural   GdAl17N18
_chemical_formula_sum   'Gd2 Al34 N36'
_cell_volume   793.46080458
_cell_formula_units_Z   2
loop_
 _symmetry_equiv_pos_site_id
 _symmetry_equiv_pos_as_xyz
  1  'x, y, z'
loop_
 _atom_site_type_symbol
 _atom_site_label
 _atom_site_symmetry_multiplicity
 _atom_site_fract_x
 _atom_site_fract_y
 _atom_site_fract_z
 _atom_site_occupancy
  Al  Al0  1  0.11319180  0.08691286  0.41354150  1
  Al  Al1  1  0.77659658  0.09321264  0.90500582  1
  Al  Al2  1  0.88734159  0.20405517  0.66280640  1
  Al  Al3  1  0.44717995  0.09308728  0.41329156  1
  Al  Al4  1  0.56072986  0.20330564  0.15357220  1
  Al  Al5  1  0.10966927  0.08914851  0.89880139  1
  Al  Al6  1  0.22206721  0.20564365  0.65445476  1
  Al  Al7  1  0.78034069  0.08801994  0.40369707  1
  Al  Al8  1  0.88912430  0.19508975  0.14884813  1
  Al  Al9  1  0.45105071  0.09115190  0.89905926  1
  Al  Al10  1  0.55711488  0.20651320  0.65444903  1
  Al  Al11  1  0.11319180  0.43324983  0.41354150  1
  Al  Al12  1  0.22033827  0.54447434  0.15438139  1
  Al  Al13  1  0.77757218  0.42789116  0.90552365  1
  Al  Al14  1  0.88734160  0.54195775  0.66280640  1
  Al  Al15  1  0.43820241  0.43002588  0.40334027  1
  Al  Al16  1  0.54743985  0.54295733  0.14855137  1
  Al  Al17  1  0.10966927  0.43453671  0.89880140  1
  Al  Al18  1  0.22301499  0.54120270  0.65472476  1
  Al  Al19  1  0.88912433  0.54914045  0.14884812  1
  Al  Al20  1  0.44310025  0.42691828  0.90466682  1
  Al  Al21  1  0.55292905  0.54021272  0.66263121  1
  Al  Al22  1  0.11062003  0.76136722  0.40287666  1
  Al  Al23  1  0.22033825  0.86854188  0.15438139  1
  Al  Al24  1  0.77659658  0.76354528  0.90500582  1
  Al  Al25  1  0.88948097  0.87193677  0.65410490  1
  Al  Al26  1  0.43820239  0.76512622  0.40334027  1
  Al  Al27  1  0.56072988  0.86931901  0.15357219  1
  Al  Al28  1  0.11152376  0.76091536  0.90501297  1
  Al  Al29  1  0.22301498  0.86913679  0.65472477  1
  Al  Al30  1  0.78034069  0.76499387  0.40369707  1
  Al  Al31  1  0.88882148  0.87226652  0.15369124  1
  Al  Al32  1  0.44310025  0.76333596  0.90466682  1
  Al  Al33  1  0.55711488  0.86972642  0.65444903  1
  Gd  Gd34  1  0.22031169  0.20652138  0.15315837  1
  Gd  Gd35  1  0.77678632  0.42828409  0.39896050  1
  N  N36  1  0.22080731  0.20627359  0.37593577  1
  N  N37  1  0.09932253  0.07646048  0.08259882  1
  N  N38  1  0.88642534  0.20477538  0.84971377  1
  N  N39  1  0.77852883  0.09441340  0.59467646  1
  N  N40  1  0.55548858  0.20548048  0.34628439  1
  N  N41  1  0.47342330  0.07996561  0.08543190  1
  N  N42  1  0.22230789  0.20552331  0.84987862  1
  N  N43  1  0.10866662  0.09299168  0.60309683  1
  N  N44  1  0.90623059  0.17341250  0.33591458  1
  N  N45  1  0.77626281  0.09209953  0.09312987  1
  N  N46  1  0.55681099  0.20707522  0.84266182  1
  N  N47  1  0.44781920  0.09276765  0.60168415  1
  N  N48  1  0.22129468  0.53857331  0.34565864  1
  N  N49  1  0.09932256  0.45757146  0.08259884  1
  N  N50  1  0.88642534  0.54215380  0.84971378  1
  N  N51  1  0.77717064  0.42809195  0.62037313  1
  N  N52  1  0.52253206  0.55541123  0.33386688  1
  N  N53  1  0.44246759  0.42531698  0.09383246  1
  N  N54  1  0.22403662  0.54116620  0.84234313  1
  N  N55  1  0.10866662  0.43169621  0.60309683  1
  N  N56  1  0.90623058  0.55371142  0.33591458  1
  N  N57  1  0.77901565  0.42716943  0.10269446  1
  N  N58  1  0.55293049  0.54021201  0.85223006  1
  N  N59  1  0.44534052  0.42845091  0.59471599  1
  N  N60  1  0.22129467  0.87348650  0.34565863  1
  N  N61  1  0.11095464  0.76119993  0.09556989  1
  N  N62  1  0.88948438  0.87193507  0.84441591  1
  N  N63  1  0.77852883  0.76041228  0.59467646  1
  N  N64  1  0.55548858  0.87238545  0.34628439  1
  N  N65  1  0.44246758  0.76556996  0.09383246  1
  N  N66  1  0.22403662  0.86815167  0.84234313  1
  N  N67  1  0.11071797  0.76131826  0.59324510  1
  N  N68  1  0.88932179  0.87201636  0.34415997  1
  N  N69  1  0.77626283  0.76499217  0.09312987  1
  N  N70  1  0.55681099  0.86946829  0.84266182  1
  N  N71  1  0.44534051  0.75956307  0.59471598  1
