# generated using pymatgen
data_GdAl17N18
_symmetry_space_group_name_H-M   'P 1'
_cell_length_a   9.55509001
_cell_length_b   9.54185157
_cell_length_c   10.26955128
_cell_angle_alpha   89.72221595
_cell_angle_beta   89.24824550
_cell_angle_gamma   59.97915639
_symmetry_Int_Tables_number   1
_chemical_formula_structural   GdAl17N18
_chemical_formula_sum   'Gd2 Al34 N36'
_cell_volume   810.62510101
_cell_formula_units_Z   2
loop_
 _symmetry_equiv_pos_site_id
 _symmetry_equiv_pos_as_xyz
  1  'x, y, z'
loop_
 _atom_site_type_symbol
 _atom_site_label
 _atom_site_symmetry_multiplicity
 _atom_site_fract_x
 _atom_site_fract_y
 _atom_site_fract_z
 _atom_site_occupancy
  Al  Al0  1  0.12060077  0.08352317  0.41639991  1
  Al  Al1  1  0.77873657  0.08734353  0.83016609  1
  Al  Al2  1  0.89149508  0.20609672  0.62601444  1
  Al  Al3  1  0.45048286  0.09175331  0.40773487  1
  Al  Al4  1  0.55107370  0.20722547  0.14738762  1
  Al  Al5  1  0.11569125  0.08608817  0.88915276  1
  Al  Al6  1  0.22755703  0.20412835  0.65372040  1
  Al  Al7  1  0.78716501  0.08545159  0.32592409  1
  Al  Al8  1  0.87890419  0.19998557  0.07572683  1
  Al  Al9  1  0.45024342  0.09033266  0.89733212  1
  Al  Al10  1  0.55126591  0.21028550  0.64879132  1
  Al  Al11  1  0.12640795  0.42733828  0.41685397  1
  Al  Al12  1  0.21713204  0.54377735  0.15015487  1
  Al  Al13  1  0.76819287  0.43340387  0.88091789  1
  Al  Al14  1  0.88966104  0.54820835  0.59061455  1
  Al  Al15  1  0.43962263  0.42919571  0.39706182  1
  Al  Al16  1  0.53935249  0.54562498  0.14230401  1
  Al  Al17  1  0.11482482  0.43038323  0.89080855  1
  Al  Al18  1  0.22509490  0.54256346  0.65157126  1
  Al  Al19  1  0.87868130  0.55247812  0.07048088  1
  Al  Al20  1  0.44163176  0.42721537  0.89859307  1
  Al  Al21  1  0.55523159  0.54004297  0.64949936  1
  Al  Al22  1  0.11765978  0.75869979  0.39699847  1
  Al  Al23  1  0.21673868  0.86954455  0.14995142  1
  Al  Al24  1  0.78109457  0.76227502  0.82731709  1
  Al  Al25  1  0.88404999  0.87762981  0.57640803  1
  Al  Al26  1  0.43924365  0.76473414  0.39725090  1
  Al  Al27  1  0.55358603  0.87069113  0.14940152  1
  Al  Al28  1  0.11777602  0.75721099  0.90158159  1
  Al  Al29  1  0.22543871  0.86589803  0.65077495  1
  Al  Al30  1  0.78727419  0.76222370  0.33142480  1
  Al  Al31  1  0.88183906  0.87304126  0.07949224  1
  Al  Al32  1  0.44204987  0.76335632  0.89850336  1
  Al  Al33  1  0.55115701  0.87344899  0.64889116  1
  Gd  Gd34  1  0.21400798  0.20547867  0.15282701  1
  Gd  Gd35  1  0.78190451  0.42664943  0.36357421  1
  N  N36  1  0.22371102  0.20526327  0.37270422  1
  N  N37  1  0.10053310  0.07387303  0.07268897  1
  N  N38  1  0.88422267  0.20627320  0.86693950  1
  N  N39  1  0.78262215  0.08977388  0.64294611  1
  N  N40  1  0.55042802  0.20834623  0.33848352  1
  N  N41  1  0.47036723  0.07943525  0.08063254  1
  N  N42  1  0.22422084  0.20406318  0.84468061  1
  N  N43  1  0.11918668  0.08916650  0.60541022  1
  N  N44  1  0.90927068  0.17086750  0.37744009  1
  N  N45  1  0.77824127  0.08981707  0.13588528  1
  N  N46  1  0.54792470  0.21043004  0.83776632  1
  N  N47  1  0.45064682  0.09233197  0.59391870  1
  N  N48  1  0.22240312  0.53751312  0.33814475  1
  N  N49  1  0.10239272  0.45268703  0.07760019  1
  N  N50  1  0.88192331  0.54576269  0.88127765  1
  N  N51  1  0.77868441  0.43068789  0.60980204  1
  N  N52  1  0.51839792  0.55736915  0.32628770  1
  N  N53  1  0.43964695  0.42624776  0.08548649  1
  N  N54  1  0.22380844  0.54197261  0.83698471  1
  N  N55  1  0.12140449  0.42564760  0.60576612  1
  N  N56  1  0.90614255  0.56090429  0.40420800  1
  N  N57  1  0.76947051  0.42990893  0.09609204  1
  N  N58  1  0.54774530  0.54236516  0.83915570  1
  N  N59  1  0.44681333  0.42867776  0.58678364  1
  N  N60  1  0.22306310  0.87471974  0.33834933  1
  N  N61  1  0.11447305  0.75807667  0.09119162  1
  N  N62  1  0.88422063  0.87267729  0.89239246  1
  N  N63  1  0.78234255  0.76555004  0.64239825  1
  N  N64  1  0.55080273  0.87460004  0.34034989  1
  N  N65  1  0.44024102  0.76568809  0.08577973  1
  N  N66  1  0.22442631  0.86594750  0.83579127  1
  N  N67  1  0.11778038  0.75861565  0.58657172  1
  N  N68  1  0.88499543  0.87574568  0.38917908  1
  N  N69  1  0.78218432  0.75742668  0.14313447  1
  N  N70  1  0.54877749  0.87330479  0.83721286  1
  N  N71  1  0.44653880  0.75998246  0.58663449  1
