# generated using pymatgen
data_GdAl17N18
_symmetry_space_group_name_H-M   'P 1'
_cell_length_a   9.48677345
_cell_length_b   9.51369282
_cell_length_c   10.40916632
_cell_angle_alpha   89.99958222
_cell_angle_beta   89.66263081
_cell_angle_gamma   59.88759459
_symmetry_Int_Tables_number   1
_chemical_formula_structural   GdAl17N18
_chemical_formula_sum   'Gd2 Al34 N36'
_cell_volume   812.66425247
_cell_formula_units_Z   2
loop_
 _symmetry_equiv_pos_site_id
 _symmetry_equiv_pos_as_xyz
  1  'x, y, z'
loop_
 _atom_site_type_symbol
 _atom_site_label
 _atom_site_symmetry_multiplicity
 _atom_site_fract_x
 _atom_site_fract_y
 _atom_site_fract_z
 _atom_site_occupancy
  Al  Al0  1  0.12389627  0.08199780  0.40665225  1
  Al  Al1  1  0.77701759  0.09108261  0.81781974  1
  Al  Al2  1  0.88467717  0.20251080  0.57928250  1
  Al  Al3  1  0.45553336  0.08890776  0.33678810  1
  Al  Al4  1  0.55909790  0.20513875  0.07189070  1
  Al  Al5  1  0.11379383  0.08661566  0.88023877  1
  Al  Al6  1  0.22048323  0.20641662  0.64376762  1
  Al  Al7  1  0.78208403  0.08891597  0.32084946  1
  Al  Al8  1  0.87725187  0.20436403  0.05257528  1
  Al  Al9  1  0.45158126  0.09088532  0.82434576  1
  Al  Al10  1  0.55624393  0.20646137  0.57343613  1
  Al  Al11  1  0.12390722  0.42744461  0.40665128  1
  Al  Al12  1  0.21391968  0.54768013  0.13925655  1
  Al  Al13  1  0.77524057  0.42904832  0.81505972  1
  Al  Al14  1  0.88468688  0.54611903  0.57927945  1
  Al  Al15  1  0.44447265  0.42637691  0.32137015  1
  Al  Al16  1  0.55270648  0.54031258  0.06256170  1
  Al  Al17  1  0.11380049  0.43292722  0.88023725  1
  Al  Al18  1  0.21788851  0.54494532  0.64329349  1
  Al  Al19  1  0.87726056  0.55168742  0.05257399  1
  Al  Al20  1  0.45024494  0.42463857  0.82007863  1
  Al  Al21  1  0.54778404  0.54276929  0.57276499  1
  Al  Al22  1  0.11779327  0.75777521  0.38885276  1
  Al  Al23  1  0.21390989  0.87171459  0.13925683  1
  Al  Al24  1  0.77701930  0.76523278  0.81782029  1
  Al  Al25  1  0.88231176  0.87549978  0.56724431  1
  Al  Al26  1  0.44446623  0.76249827  0.32137184  1
  Al  Al27  1  0.55910167  0.86909575  0.07189306  1
  Al  Al28  1  0.11633330  0.75850206  0.89379186  1
  Al  Al29  1  0.21788690  0.87048564  0.64329158  1
  Al  Al30  1  0.78209383  0.76233390  0.32084877  1
  Al  Al31  1  0.88142087  0.87594099  0.07218826  1
  Al  Al32  1  0.45024274  0.75846813  0.82007772  1
  Al  Al33  1  0.55624667  0.87061741  0.57343573  1
  Gd  Gd34  1  0.20675686  0.21326955  0.13770210  1
  Gd  Gd35  1  0.78125219  0.42605712  0.31929282  1
  N  N36  1  0.22278333  0.20525834  0.35832555  1
  N  N37  1  0.10270234  0.07227880  0.06132460  1
  N  N38  1  0.88006335  0.20818215  0.86654831  1
  N  N39  1  0.77717362  0.09036717  0.63460997  1
  N  N40  1  0.55765325  0.20818007  0.38674994  1
  N  N41  1  0.47431962  0.07952655  0.13820759  1
  N  N42  1  0.21756519  0.20786543  0.83371589  1
  N  N43  1  0.11892764  0.08863336  0.59136128  1
  N  N44  1  0.89713613  0.17933431  0.39600944  1
  N  N45  1  0.77907738  0.09639874  0.13350705  1
  N  N46  1  0.55476732  0.20678104  0.88432501  1
  N  N47  1  0.45284012  0.09025973  0.63312742  1
  N  N48  1  0.21432111  0.54075109  0.32591905  1
  N  N49  1  0.10270762  0.45836160  0.06132674  1
  N  N50  1  0.88007179  0.54504393  0.86655277  1
  N  N51  1  0.77605637  0.42864916  0.62652467  1
  N  N52  1  0.52320313  0.55505238  0.39192981  1
  N  N53  1  0.45190157  0.42523608  0.13239686  1
  N  N54  1  0.21744810  0.54643471  0.82617142  1
  N  N55  1  0.11893650  0.42579358  0.59136607  1
  N  N56  1  0.89715004  0.55682538  0.39600858  1
  N  N57  1  0.78285888  0.42524482  0.10117534  1
  N  N58  1  0.55193641  0.54068969  0.87843605  1
  N  N59  1  0.45165549  0.42305601  0.63454995  1
  N  N60  1  0.21431506  0.87823958  0.32591664  1
  N  N61  1  0.11549351  0.75893053  0.07922882  1
  N  N62  1  0.88118704  0.87605292  0.88476435  1
  N  N63  1  0.77717354  0.76580681  0.63460992  1
  N  N64  1  0.55766112  0.86746301  0.38674569  1
  N  N65  1  0.45189768  0.75623868  0.13239950  1
  N  N66  1  0.21744851  0.86941705  0.82616932  1
  N  N67  1  0.11774938  0.75780494  0.57462692  1
  N  N68  1  0.88312702  0.87508613  0.38010844  1
  N  N69  1  0.77907858  0.75786391  0.13350959  1
  N  N70  1  0.55476923  0.87176192  0.88432726  1
  N  N71  1  0.45165283  0.75865646  0.63454799  1
