# generated using pymatgen
data_GdAl17N18
_symmetry_space_group_name_H-M   'P 1'
_cell_length_a   9.48561981
_cell_length_b   9.50871177
_cell_length_c   10.40761390
_cell_angle_alpha   90.00000136
_cell_angle_beta   89.52599196
_cell_angle_gamma   59.91943911
_symmetry_Int_Tables_number   1
_chemical_formula_structural   GdAl17N18
_chemical_formula_sum   'Gd2 Al34 N36'
_cell_volume   812.26216792
_cell_formula_units_Z   2
loop_
 _symmetry_equiv_pos_site_id
 _symmetry_equiv_pos_as_xyz
  1  'x, y, z'
loop_
 _atom_site_type_symbol
 _atom_site_label
 _atom_site_symmetry_multiplicity
 _atom_site_fract_x
 _atom_site_fract_y
 _atom_site_fract_z
 _atom_site_occupancy
  Al  Al0  1  0.12374866  0.08071233  0.40667196  1
  Al  Al1  1  0.78121501  0.08920743  0.81656036  1
  Al  Al2  1  0.88793609  0.19859828  0.57942088  1
  Al  Al3  1  0.44736272  0.09302072  0.39647222  1
  Al  Al4  1  0.55490122  0.20739429  0.13722312  1
  Al  Al5  1  0.11488895  0.08715501  0.88035115  1
  Al  Al6  1  0.22554932  0.20392742  0.64440255  1
  Al  Al7  1  0.78575395  0.08569415  0.31931828  1
  Al  Al8  1  0.87459667  0.20811641  0.05418175  1
  Al  Al9  1  0.45150913  0.09094753  0.88579619  1
  Al  Al10  1  0.55003796  0.20937273  0.63867788  1
  Al  Al11  1  0.12374867  0.42894313  0.40667197  1
  Al  Al12  1  0.21672960  0.54501491  0.13781868  1
  Al  Al13  1  0.78018844  0.42660784  0.81414638  1
  Al  Al14  1  0.88793605  0.54686975  0.57942087  1
  Al  Al15  1  0.44008243  0.42889066  0.38600594  1
  Al  Al16  1  0.54180694  0.54579863  0.13153478  1
  Al  Al17  1  0.11488893  0.43136021  0.88035114  1
  Al  Al18  1  0.22430444  0.54211812  0.64121394  1
  Al  Al19  1  0.87459669  0.55069103  0.05418176  1
  Al  Al20  1  0.44441844  0.42790630  0.88703325  1
  Al  Al21  1  0.54885366  0.54227524  0.63580985  1
  Al  Al22  1  0.11740986  0.75799714  0.38676967  1
  Al  Al23  1  0.21672960  0.87165966  0.13781868  1
  Al  Al24  1  0.78121497  0.76298171  0.81656037  1
  Al  Al25  1  0.88346359  0.87497024  0.56576645  1
  Al  Al26  1  0.44008243  0.76443107  0.38600594  1
  Al  Al27  1  0.55490121  0.87110867  0.13722311  1
  Al  Al28  1  0.11726276  0.75807069  0.89150094  1
  Al  Al29  1  0.22430445  0.86698154  0.64121394  1
  Al  Al30  1  0.78575394  0.76195601  0.31931826  1
  Al  Al31  1  0.88146944  0.87596734  0.06974135  1
  Al  Al32  1  0.44441842  0.76107942  0.88703324  1
  Al  Al33  1  0.55003794  0.87399347  0.63867788  1
  Gd  Gd34  1  0.21806752  0.20766833  0.13980779  1
  Gd  Gd35  1  0.79308931  0.42015739  0.32729460  1
  N  N36  1  0.21730356  0.20805029  0.35807288  1
  N  N37  1  0.10164102  0.07732687  0.06342785  1
  N  N38  1  0.88019270  0.20860445  0.86880026  1
  N  N39  1  0.78278024  0.08694361  0.63367594  1
  N  N40  1  0.54774474  0.20860135  0.32636784  1
  N  N41  1  0.47617041  0.07861688  0.06664678  1
  N  N42  1  0.22333079  0.20503669  0.83276187  1
  N  N43  1  0.12137326  0.08725552  0.59275398  1
  N  N44  1  0.89867279  0.17274223  0.39822761  1
  N  N45  1  0.78491307  0.09273113  0.13287430  1
  N  N46  1  0.54748449  0.21151760  0.82456419  1
  N  N47  1  0.44893653  0.09223381  0.58070874  1
  N  N48  1  0.22057414  0.53761810  0.32521407  1
  N  N49  1  0.10164103  0.45443628  0.06342784  1
  N  N50  1  0.88019269  0.54460699  0.86880027  1
  N  N51  1  0.78381891  0.42479259  0.62374294  1
  N  N52  1  0.52344093  0.55498161  0.31772746  1
  N  N53  1  0.44207781  0.42637409  0.07350805  1
  N  N54  1  0.22355371  0.54282672  0.82470157  1
  N  N55  1  0.12137323  0.42477537  0.59275398  1
  N  N56  1  0.89867278  0.56198909  0.39822760  1
  N  N57  1  0.77632890  0.42853761  0.10690896  1
  N  N58  1  0.54748995  0.54295710  0.82347314  1
  N  N59  1  0.44644058  0.42694616  0.57321712  1
  N  N60  1  0.22057415  0.87521189  0.32521407  1
  N  N61  1  0.11580192  0.75880112  0.07867820  1
  N  N62  1  0.88172919  0.87583747  0.88417864  1
  N  N63  1  0.78278020  0.76368027  0.63367594  1
  N  N64  1  0.54774474  0.87705808  0.32636785  1
  N  N65  1  0.44207781  0.76495228  0.07350805  1
  N  N66  1  0.22355369  0.86702372  0.82470157  1
  N  N67  1  0.11876236  0.75732087  0.57426819  1
  N  N68  1  0.88351612  0.87494399  0.38015233  1
  N  N69  1  0.78491306  0.75575995  0.13287429  1
  N  N70  1  0.54748444  0.87440211  0.82456419  1
  N  N71  1  0.44644059  0.76001739  0.57321712  1
