# generated using pymatgen
data_GdAl17N18
_symmetry_space_group_name_H-M   'P 1'
_cell_length_a   9.54249352
_cell_length_b   9.53856558
_cell_length_c   10.27364843
_cell_angle_alpha   90.32123566
_cell_angle_beta   89.56635983
_cell_angle_gamma   60.09783280
_symmetry_Int_Tables_number   1
_chemical_formula_structural   GdAl17N18
_chemical_formula_sum   'Gd2 Al34 N36'
_cell_volume   810.56847405
_cell_formula_units_Z   2
loop_
 _symmetry_equiv_pos_site_id
 _symmetry_equiv_pos_as_xyz
  1  'x, y, z'
loop_
 _atom_site_type_symbol
 _atom_site_label
 _atom_site_symmetry_multiplicity
 _atom_site_fract_x
 _atom_site_fract_y
 _atom_site_fract_z
 _atom_site_occupancy
  Al  Al0  1  0.11646299  0.08262642  0.35383187  1
  Al  Al1  1  0.77499734  0.09144857  0.80865673  1
  Al  Al2  1  0.88612312  0.20086313  0.56908046  1
  Al  Al3  1  0.46026195  0.08497054  0.31636310  1
  Al  Al4  1  0.56086217  0.20416286  0.06146592  1
  Al  Al5  1  0.10698386  0.10152373  0.80852017  1
  Al  Al6  1  0.23101639  0.19989721  0.57190488  1
  Al  Al7  1  0.78296052  0.08605390  0.30875534  1
  Al  Al8  1  0.88238490  0.20307069  0.04445636  1
  Al  Al9  1  0.44433745  0.09542963  0.80837303  1
  Al  Al10  1  0.55779051  0.20540088  0.56045585  1
  Al  Al11  1  0.12076420  0.43149032  0.38793032  1
  Al  Al12  1  0.21247156  0.54976400  0.12737022  1
  Al  Al13  1  0.77256337  0.43115467  0.80596967  1
  Al  Al14  1  0.88511048  0.54487078  0.56804427  1
  Al  Al15  1  0.44637489  0.42418002  0.30934144  1
  Al  Al16  1  0.54944349  0.54218910  0.05077465  1
  Al  Al17  1  0.10974523  0.43849418  0.86769623  1
  Al  Al18  1  0.21868346  0.54287165  0.63146531  1
  Al  Al19  1  0.87346805  0.55366186  0.04214988  1
  Al  Al20  1  0.44862409  0.42471993  0.80972516  1
  Al  Al21  1  0.55014668  0.54011319  0.56160807  1
  Al  Al22  1  0.11811279  0.75425191  0.38025528  1
  Al  Al23  1  0.21377216  0.87061530  0.13437412  1
  Al  Al24  1  0.77462352  0.76778027  0.80714441  1
  Al  Al25  1  0.88185900  0.87528426  0.55752350  1
  Al  Al26  1  0.44994930  0.75738945  0.31211599  1
  Al  Al27  1  0.56067126  0.86873982  0.06182177  1
  Al  Al28  1  0.11594576  0.76231674  0.88184690  1
  Al  Al29  1  0.22151250  0.86530944  0.62743300  1
  Al  Al30  1  0.78275894  0.76094129  0.30867086  1
  Al  Al31  1  0.88190110  0.87644831  0.06156709  1
  Al  Al32  1  0.44794278  0.76196018  0.81017885  1
  Al  Al33  1  0.55820053  0.86887906  0.56010346  1
  Gd  Gd34  1  0.22108937  0.20618813  0.08590158  1
  Gd  Gd35  1  0.78620809  0.41900241  0.30525499  1
  N  N36  1  0.23064617  0.19831031  0.36578557  1
  N  N37  1  0.08494650  0.08682944  0.11275182  1
  N  N38  1  0.88382927  0.20658179  0.85631236  1
  N  N39  1  0.77553440  0.09078146  0.62346385  1
  N  N40  1  0.55963404  0.20586601  0.37306201  1
  N  N41  1  0.48167575  0.07591967  0.13318228  1
  N  N42  1  0.22075063  0.20876812  0.85104173  1
  N  N43  1  0.11243604  0.09442920  0.60815398  1
  N  N44  1  0.89982496  0.17381726  0.38757876  1
  N  N45  1  0.77662949  0.09777345  0.12000669  1
  N  N46  1  0.55319665  0.20662207  0.87205519  1
  N  N47  1  0.45109547  0.09041033  0.61915608  1
  N  N48  1  0.21768946  0.53943565  0.31553902  1
  N  N49  1  0.09375897  0.46691141  0.05512602  1
  N  N50  1  0.87846060  0.54719010  0.85320196  1
  N  N51  1  0.77581415  0.42783738  0.61472185  1
  N  N52  1  0.53070038  0.54878711  0.37816596  1
  N  N53  1  0.44887447  0.42567409  0.11840467  1
  N  N54  1  0.21745386  0.54795624  0.81639228  1
  N  N55  1  0.11801822  0.42720760  0.57713050  1
  N  N56  1  0.89711925  0.55502546  0.38104529  1
  N  N57  1  0.77555565  0.42957978  0.08573092  1
  N  N58  1  0.54920081  0.54297840  0.86475436  1
  N  N59  1  0.45093761  0.42217721  0.62152174  1
  N  N60  1  0.22446290  0.86367321  0.32532220  1
  N  N61  1  0.11466892  0.76160952  0.06902382  1
  N  N62  1  0.88206066  0.87630185  0.87220588  1
  N  N63  1  0.77597710  0.76573505  0.62179314  1
  N  N64  1  0.56058443  0.86580443  0.37326464  1
  N  N65  1  0.44931779  0.75915106  0.12028875  1
  N  N66  1  0.21726130  0.87328691  0.81723077  1
  N  N67  1  0.11523429  0.75662236  0.56687984  1
  N  N68  1  0.88554691  0.87251450  0.36776337  1
  N  N69  1  0.77756179  0.75997538  0.12070690  1
  N  N70  1  0.55295186  0.87578136  0.87206448  1
  N  N71  1  0.45187369  0.75833875  0.62085882  1
