# generated using pymatgen
data_Sc2Al7N9
_symmetry_space_group_name_H-M   'P 1'
_cell_length_a   9.73906933
_cell_length_b   9.74033445
_cell_length_c   10.14093551
_cell_angle_alpha   90.04160899
_cell_angle_beta   89.92548319
_cell_angle_gamma   59.84422763
_symmetry_Int_Tables_number   1
_chemical_formula_structural   Sc2Al7N9
_chemical_formula_sum   'Sc8 Al28 N36'
_cell_volume   831.79292132
_cell_formula_units_Z   4
loop_
 _symmetry_equiv_pos_site_id
 _symmetry_equiv_pos_as_xyz
  1  'x, y, z'
loop_
 _atom_site_type_symbol
 _atom_site_label
 _atom_site_symmetry_multiplicity
 _atom_site_fract_x
 _atom_site_fract_y
 _atom_site_fract_z
 _atom_site_occupancy
  Sc  Sc0  1  0.10947052  0.09318054  0.42223551  1
  Sc  Sc1  1  0.22122360  0.21429837  0.15554670  1
  Sc  Sc2  1  0.10879331  0.09701509  0.88716347  1
  Sc  Sc3  1  0.77985208  0.42964709  0.39262870  1
  Sc  Sc4  1  0.55645965  0.53436001  0.65286113  1
  Sc  Sc5  1  0.21928275  0.86801749  0.15146909  1
  Sc  Sc6  1  0.88825438  0.87330590  0.64923444  1
  Sc  Sc7  1  0.56049418  0.87104025  0.15338523  1
  Al  Al8  1  0.77144470  0.09597005  0.91249327  1
  Al  Al9  1  0.87970176  0.21190834  0.66662765  1
  Al  Al10  1  0.44814613  0.09537526  0.41714963  1
  Al  Al11  1  0.55747665  0.20792536  0.15929053  1
  Al  Al12  1  0.22747814  0.21177408  0.66268282  1
  Al  Al13  1  0.77067307  0.09717420  0.40605595  1
  Al  Al14  1  0.88266141  0.20387372  0.15465489  1
  Al  Al15  1  0.45050006  0.09893786  0.90399540  1
  Al  Al16  1  0.55248798  0.20771609  0.65969929  1
  Al  Al17  1  0.11363838  0.43497938  0.41426694  1
  Al  Al18  1  0.21961276  0.53948393  0.15900698  1
  Al  Al19  1  0.77339619  0.43104892  0.91711172  1
  Al  Al20  1  0.89167282  0.53423761  0.66267502  1
  Al  Al21  1  0.43700381  0.42521645  0.40673995  1
  Al  Al22  1  0.55152706  0.53558943  0.16006297  1
  Al  Al23  1  0.11179804  0.43505467  0.90663292  1
  Al  Al24  1  0.22431952  0.53441712  0.66095761  1
  Al  Al25  1  0.89472068  0.54396992  0.15576425  1
  Al  Al26  1  0.44439753  0.42628779  0.91214538  1
  Al  Al27  1  0.11721249  0.75303866  0.40986876  1
  Al  Al28  1  0.78164544  0.75939040  0.90846345  1
  Al  Al29  1  0.44058702  0.76407300  0.41408537  1
  Al  Al30  1  0.11020169  0.75317863  0.91075723  1
  Al  Al31  1  0.22794555  0.86290561  0.66651796  1
  Al  Al32  1  0.77762922  0.76002254  0.41165616  1
  Al  Al33  1  0.88890102  0.87040376  0.16076559  1
  Al  Al34  1  0.45077590  0.75133319  0.90840757  1
  Al  Al35  1  0.55310795  0.87305860  0.66109987  1
  N  N36  1  0.22974378  0.21495661  0.36750790  1
  N  N37  1  0.09347323  0.10616032  0.09752374  1
  N  N38  1  0.86121942  0.21919838  0.85352360  1
  N  N39  1  0.76593117  0.11656819  0.59507298  1
  N  N40  1  0.55340979  0.20439136  0.34932694  1
  N  N41  1  0.45528785  0.10502641  0.08970149  1
  N  N42  1  0.23440405  0.21965060  0.85069050  1
  N  N43  1  0.11035329  0.09310488  0.63858316  1
  N  N44  1  0.88244610  0.19184917  0.34046161  1
  N  N45  1  0.77570678  0.09244616  0.10234318  1
  N  N46  1  0.55714942  0.20776887  0.84884396  1
  N  N47  1  0.44864614  0.09268576  0.60716125  1
  N  N48  1  0.22158741  0.53812350  0.34863887  1
  N  N49  1  0.10412335  0.44643546  0.09273503  1
  N  N50  1  0.88844739  0.53717719  0.85370788  1
  N  N51  1  0.79962155  0.41710968  0.60101802  1
  N  N52  1  0.53419816  0.54742070  0.35394001  1
  N  N53  1  0.44292291  0.42694482  0.10331928  1
  N  N54  1  0.22478970  0.53805992  0.85017740  1
  N  N55  1  0.10939693  0.43199567  0.60484458  1
  N  N56  1  0.90291214  0.55000953  0.34403231  1
  N  N57  1  0.77714937  0.43021401  0.11278940  1
  N  N58  1  0.55783798  0.53380981  0.86162843  1
  N  N59  1  0.43300294  0.41647028  0.59494980  1
  N  N60  1  0.22737397  0.85876102  0.35981714  1
  N  N61  1  0.10051595  0.75106662  0.09886798  1
  N  N62  1  0.88856437  0.87391117  0.85823643  1
  N  N63  1  0.76894246  0.74860993  0.60068802  1
  N  N64  1  0.55436522  0.87301481  0.36417555  1
  N  N65  1  0.45586158  0.74146620  0.09366325  1
  N  N66  1  0.23373487  0.84628687  0.85583472  1
  N  N67  1  0.13175920  0.74807599  0.59881717  1
  N  N68  1  0.88806909  0.87197576  0.35988223  1
  N  N69  1  0.79475768  0.75455580  0.09587889  1
  N  N70  1  0.55633443  0.87137341  0.85480130  1
  N  N71  1  0.43605791  0.77823913  0.60235979  1
