# generated using pymatgen
data_Sc2Al7N9
_symmetry_space_group_name_H-M   'P 1'
_cell_length_a   10.08684466
_cell_length_b   10.09323795
_cell_length_c   9.16480680
_cell_angle_alpha   89.93347430
_cell_angle_beta   89.96883657
_cell_angle_gamma   59.74786854
_symmetry_Int_Tables_number   1
_chemical_formula_structural   Sc2Al7N9
_chemical_formula_sum   'Sc8 Al28 N36'
_cell_volume   805.99155890
_cell_formula_units_Z   4
loop_
 _symmetry_equiv_pos_site_id
 _symmetry_equiv_pos_as_xyz
  1  'x, y, z'
loop_
 _atom_site_type_symbol
 _atom_site_label
 _atom_site_symmetry_multiplicity
 _atom_site_fract_x
 _atom_site_fract_y
 _atom_site_fract_z
 _atom_site_occupancy
  Sc  Sc0  1  0.10882712  0.09526717  0.35328587  1
  Sc  Sc1  1  0.22556759  0.21485415  0.09700850  1
  Sc  Sc2  1  0.10959384  0.09574313  0.84381077  1
  Sc  Sc3  1  0.77636112  0.43235603  0.34475979  1
  Sc  Sc4  1  0.54984597  0.53563806  0.60474146  1
  Sc  Sc5  1  0.22204467  0.86140681  0.09892869  1
  Sc  Sc6  1  0.88585040  0.87511469  0.59990582  1
  Sc  Sc7  1  0.55904179  0.87165749  0.09960282  1
  Al  Al8  1  0.76812936  0.10162243  0.83859112  1
  Al  Al9  1  0.88229465  0.20701998  0.58822771  1
  Al  Al10  1  0.45014285  0.09976435  0.34563133  1
  Al  Al11  1  0.55805265  0.20662048  0.08284966  1
  Al  Al12  1  0.22524541  0.21231822  0.58918682  1
  Al  Al13  1  0.77286055  0.09262523  0.32706730  1
  Al  Al14  1  0.87906562  0.20984388  0.07989626  1
  Al  Al15  1  0.45013240  0.09508113  0.82326614  1
  Al  Al16  1  0.55337462  0.20949291  0.58046968  1
  Al  Al17  1  0.11216155  0.43832442  0.33644855  1
  Al  Al18  1  0.21749982  0.54089843  0.08330657  1
  Al  Al19  1  0.78009423  0.42939783  0.83846663  1
  Al  Al20  1  0.89310904  0.53948879  0.58641210  1
  Al  Al21  1  0.44196816  0.42728571  0.32573965  1
  Al  Al22  1  0.55817106  0.53208834  0.07678467  1
  Al  Al23  1  0.11276398  0.43350616  0.82848585  1
  Al  Al24  1  0.22596749  0.53286036  0.57959642  1
  Al  Al25  1  0.89260018  0.54031168  0.07918587  1
  Al  Al26  1  0.43805294  0.42195762  0.84093887  1
  Al  Al27  1  0.10888928  0.75371179  0.33728547  1
  Al  Al28  1  0.77500651  0.75869573  0.83555750  1
  Al  Al29  1  0.44708666  0.75144550  0.33832071  1
  Al  Al30  1  0.11781434  0.75142412  0.83049513  1
  Al  Al31  1  0.22592484  0.86661429  0.58622037  1
  Al  Al32  1  0.78535669  0.76042320  0.33198664  1
  Al  Al33  1  0.89052291  0.86942779  0.08086654  1
  Al  Al34  1  0.44485445  0.76359069  0.83225133  1
  Al  Al35  1  0.55475858  0.87168719  0.58221521  1
  N  N36  1  0.22956638  0.21973244  0.37063300  1
  N  N37  1  0.09426700  0.10459560  0.10730228  1
  N  N38  1  0.86834406  0.21549752  0.86882890  1
  N  N39  1  0.76331500  0.11490340  0.62985638  1
  N  N40  1  0.55746699  0.21007214  0.37172639  1
  N  N41  1  0.45763234  0.10436430  0.13617156  1
  N  N42  1  0.23387909  0.21557535  0.85470373  1
  N  N43  1  0.11082016  0.09372840  0.60423785  1
  N  N44  1  0.87368846  0.19769592  0.37566383  1
  N  N45  1  0.77765705  0.09315778  0.11488302  1
  N  N46  1  0.55322841  0.20303529  0.87514208  1
  N  N47  1  0.45016013  0.09259039  0.61004589  1
  N  N48  1  0.22698332  0.53647439  0.37050183  1
  N  N49  1  0.10157002  0.44776645  0.12590162  1
  N  N50  1  0.89241070  0.53763082  0.86894017  1
  N  N51  1  0.79641089  0.42125317  0.61827491  1
  N  N52  1  0.53948728  0.53939307  0.37097278  1
  N  N53  1  0.44417871  0.42729364  0.11277273  1
  N  N54  1  0.21969893  0.53899986  0.87529644  1
  N  N55  1  0.11060984  0.43305326  0.61972734  1
  N  N56  1  0.89960269  0.55005317  0.37637820  1
  N  N57  1  0.77792854  0.42986362  0.10596129  1
  N  N58  1  0.55451676  0.53852102  0.86077403  1
  N  N59  1  0.43144266  0.41494702  0.63247804  1
  N  N60  1  0.22892806  0.85280073  0.36550966  1
  N  N61  1  0.09987576  0.75053817  0.12573246  1
  N  N62  1  0.89002671  0.87150623  0.86328207  1
  N  N63  1  0.76767990  0.75273394  0.62576345  1
  N  N64  1  0.55854316  0.86830873  0.36611159  1
  N  N65  1  0.45781599  0.73776603  0.12507970  1
  N  N66  1  0.22993158  0.85341457  0.86198936  1
  N  N67  1  0.12991111  0.74756240  0.61887679  1
  N  N68  1  0.88565069  0.87541015  0.36499117  1
  N  N69  1  0.79557503  0.75253454  0.11805200  1
  N  N70  1  0.55248781  0.87607834  0.86271987  1
  N  N71  1  0.43698117  0.77865476  0.61920300  1
