# generated using pymatgen
data_Sc2Al7N9
_symmetry_space_group_name_H-M   'P 1'
_cell_length_a   10.18446151
_cell_length_b   10.19347329
_cell_length_c   8.87555368
_cell_angle_alpha   90.02023756
_cell_angle_beta   90.01168287
_cell_angle_gamma   59.71064428
_symmetry_Int_Tables_number   1
_chemical_formula_structural   Sc2Al7N9
_chemical_formula_sum   'Sc8 Al28 N36'
_cell_volume   795.63271353
_cell_formula_units_Z   4
loop_
 _symmetry_equiv_pos_site_id
 _symmetry_equiv_pos_as_xyz
  1  'x, y, z'
loop_
 _atom_site_type_symbol
 _atom_site_label
 _atom_site_symmetry_multiplicity
 _atom_site_fract_x
 _atom_site_fract_y
 _atom_site_fract_z
 _atom_site_occupancy
  Sc  Sc0  1  0.10954813  0.09459887  0.35940921  1
  Sc  Sc1  1  0.22487078  0.21634134  0.10670945  1
  Sc  Sc2  1  0.10849068  0.09711706  0.85111987  1
  Sc  Sc3  1  0.78038051  0.43141303  0.34991666  1
  Sc  Sc4  1  0.55257540  0.53451465  0.60694914  1
  Sc  Sc5  1  0.22259938  0.86180946  0.10480798  1
  Sc  Sc6  1  0.88786073  0.87452864  0.60608682  1
  Sc  Sc7  1  0.55995656  0.87111990  0.10579640  1
  Al  Al8  1  0.77082705  0.09737659  0.87004047  1
  Al  Al9  1  0.88126364  0.20998683  0.61913683  1
  Al  Al10  1  0.45008960  0.09645789  0.37543447  1
  Al  Al11  1  0.55836142  0.20747697  0.11880345  1
  Al  Al12  1  0.22649788  0.21148737  0.60969837  1
  Al  Al13  1  0.77056753  0.09631915  0.36327476  1
  Al  Al14  1  0.88080303  0.20546875  0.10997004  1
  Al  Al15  1  0.45037289  0.09796405  0.85748970  1
  Al  Al16  1  0.55305382  0.20836149  0.61934032  1
  Al  Al17  1  0.11287136  0.43738417  0.37657473  1
  Al  Al18  1  0.21947995  0.53877520  0.11661778  1
  Al  Al19  1  0.77530765  0.42998750  0.86649950  1
  Al  Al20  1  0.89033114  0.53669414  0.62427408  1
  Al  Al21  1  0.43776245  0.42524235  0.36308294  1
  Al  Al22  1  0.55449925  0.53276110  0.10774928  1
  Al  Al23  1  0.11192715  0.43466515  0.85961047  1
  Al  Al24  1  0.22488486  0.53544082  0.62217253  1
  Al  Al25  1  0.89525328  0.54323751  0.10878786  1
  Al  Al26  1  0.44326202  0.42469842  0.87199760  1
  Al  Al27  1  0.11486255  0.75210996  0.36596417  1
  Al  Al28  1  0.77982295  0.75966040  0.86260376  1
  Al  Al29  1  0.44348559  0.76009024  0.36776086  1
  Al  Al30  1  0.11115658  0.75356720  0.86528030  1
  Al  Al31  1  0.22491237  0.86615402  0.61138226  1
  Al  Al32  1  0.78049836  0.75906571  0.36784343  1
  Al  Al33  1  0.88849125  0.87052924  0.11170793  1
  Al  Al34  1  0.44859048  0.75446581  0.86004224  1
  Al  Al35  1  0.55378186  0.87260763  0.61309131  1
  N  N36  1  0.23155134  0.21858995  0.36040667  1
  N  N37  1  0.09749410  0.10348433  0.09918662  1
  N  N38  1  0.86746155  0.21460137  0.84506497  1
  N  N39  1  0.76581523  0.11385315  0.58728704  1
  N  N40  1  0.55437043  0.20491063  0.33830890  1
  N  N41  1  0.45695747  0.10370672  0.08134558  1
  N  N42  1  0.23163600  0.21629949  0.83705623  1
  N  N43  1  0.10782815  0.09471774  0.60352958  1
  N  N44  1  0.87611541  0.19832004  0.33486781  1
  N  N45  1  0.77571967  0.09289985  0.09085285  1
  N  N46  1  0.55617568  0.20848232  0.83819590  1
  N  N47  1  0.45052507  0.09279814  0.59743143  1
  N  N48  1  0.22195862  0.53769013  0.33660249  1
  N  N49  1  0.10483931  0.44629106  0.07899948  1
  N  N50  1  0.88822343  0.53858881  0.84476749  1
  N  N51  1  0.79462259  0.42148132  0.59875976  1
  N  N52  1  0.53892030  0.54337527  0.34431729  1
  N  N53  1  0.44311108  0.42582753  0.09296315  1
  N  N54  1  0.22582862  0.53776273  0.84032004  1
  N  N55  1  0.10790446  0.43523623  0.59821771  1
  N  N56  1  0.90274350  0.54787227  0.33406075  1
  N  N57  1  0.77861381  0.42935896  0.09237970  1
  N  N58  1  0.55527701  0.53354093  0.85232030  1
  N  N59  1  0.43273658  0.41682508  0.58505749  1
  N  N60  1  0.22838418  0.85504119  0.35293230  1
  N  N61  1  0.10139711  0.75049642  0.08989673  1
  N  N62  1  0.88779734  0.87441412  0.84944532  1
  N  N63  1  0.77107878  0.75064027  0.59382303  1
  N  N64  1  0.55526565  0.87279963  0.35474951  1
  N  N65  1  0.45618081  0.74171903  0.08795770  1
  N  N66  1  0.22920843  0.85299345  0.84269198  1
  N  N67  1  0.12778249  0.74840937  0.59080650  1
  N  N68  1  0.88738451  0.87259857  0.34403741  1
  N  N69  1  0.79303718  0.75508046  0.08630329  1
  N  N70  1  0.55589458  0.87167800  0.84079855  1
  N  N71  1  0.43814264  0.77518478  0.59625218  1
