# generated using pymatgen
data_Sc2Al7N9
_symmetry_space_group_name_H-M   'P 1'
_cell_length_a   9.74099348
_cell_length_b   9.73956708
_cell_length_c   10.14103941
_cell_angle_alpha   89.90311324
_cell_angle_beta   89.92973885
_cell_angle_gamma   59.83073126
_symmetry_Int_Tables_number   1
_chemical_formula_structural   Sc2Al7N9
_chemical_formula_sum   'Sc8 Al28 N36'
_cell_volume   831.78685972
_cell_formula_units_Z   4
loop_
 _symmetry_equiv_pos_site_id
 _symmetry_equiv_pos_as_xyz
  1  'x, y, z'
loop_
 _atom_site_type_symbol
 _atom_site_label
 _atom_site_symmetry_multiplicity
 _atom_site_fract_x
 _atom_site_fract_y
 _atom_site_fract_z
 _atom_site_occupancy
  Sc  Sc0  1  0.10935748  0.09588364  0.32312107  1
  Sc  Sc1  1  0.22198830  0.21425903  0.05729557  1
  Sc  Sc2  1  0.10941134  0.09488322  0.79364292  1
  Sc  Sc3  1  0.77399129  0.43420463  0.30115516  1
  Sc  Sc4  1  0.55404929  0.53549065  0.57046390  1
  Sc  Sc5  1  0.22076225  0.86637370  0.06194272  1
  Sc  Sc6  1  0.88809930  0.87367641  0.56205730  1
  Sc  Sc7  1  0.56047590  0.87037330  0.06091463  1
  Al  Al8  1  0.76934971  0.10073415  0.80591461  1
  Al  Al9  1  0.88241407  0.20845691  0.55221140  1
  Al  Al10  1  0.45013021  0.09920962  0.30849512  1
  Al  Al11  1  0.55771677  0.20805965  0.05303829  1
  Al  Al12  1  0.22745391  0.21170575  0.55008315  1
  Al  Al13  1  0.77244973  0.09330806  0.29857771  1
  Al  Al14  1  0.88006701  0.20874823  0.04879660  1
  Al  Al15  1  0.44894012  0.09511410  0.79510290  1
  Al  Al16  1  0.55272378  0.20740152  0.55175439  1
  Al  Al17  1  0.11297937  0.43761971  0.30527101  1
  Al  Al18  1  0.21937000  0.53970196  0.05334820  1
  Al  Al19  1  0.78100007  0.42760661  0.80610463  1
  Al  Al20  1  0.89415784  0.53682814  0.55537789  1
  Al  Al21  1  0.44156337  0.42793821  0.30080223  1
  Al  Al22  1  0.55634051  0.53338688  0.04356945  1
  Al  Al23  1  0.11263319  0.43248060  0.79800761  1
  Al  Al24  1  0.22477422  0.53394722  0.55105892  1
  Al  Al25  1  0.89184749  0.54070821  0.04880414  1
  Al  Al26  1  0.43917541  0.42272214  0.80523447  1
  Al  Al27  1  0.10917526  0.75383588  0.30187989  1
  Al  Al28  1  0.77534540  0.75858128  0.80091217  1
  Al  Al29  1  0.44683357  0.75201829  0.30557539  1
  Al  Al30  1  0.11784426  0.75265965  0.80182198  1
  Al  Al31  1  0.22759235  0.86454968  0.54668246  1
  Al  Al32  1  0.78426443  0.76090734  0.30262607  1
  Al  Al33  1  0.88964080  0.86989032  0.05088324  1
  Al  Al34  1  0.44382877  0.76434924  0.79805055  1
  Al  Al35  1  0.55329504  0.87352414  0.55033749  1
  N  N36  1  0.23319057  0.22067712  0.36109368  1
  N  N37  1  0.09060101  0.10726009  0.11016293  1
  N  N38  1  0.87173671  0.21223931  0.86180956  1
  N  N39  1  0.76468882  0.11559837  0.61857206  1
  N  N40  1  0.55710183  0.20780164  0.36216759  1
  N  N41  1  0.45582754  0.10500571  0.12312992  1
  N  N42  1  0.23136551  0.21404358  0.84617976  1
  N  N43  1  0.11231644  0.09315992  0.57862487  1
  N  N44  1  0.86867358  0.20252712  0.36749077  1
  N  N45  1  0.77706563  0.09362823  0.10695447  1
  N  N46  1  0.55338475  0.20410685  0.86366928  1
  N  N47  1  0.44881613  0.09265595  0.60459905  1
  N  N48  1  0.22483661  0.53866710  0.36153170  1
  N  N49  1  0.10103664  0.44760760  0.11713265  1
  N  N50  1  0.89225871  0.53880973  0.85912311  1
  N  N51  1  0.80146639  0.41716058  0.61563419  1
  N  N52  1  0.53994238  0.54096766  0.36314896  1
  N  N53  1  0.44412906  0.42816198  0.10675986  1
  N  N54  1  0.22097982  0.53785230  0.86375804  1
  N  N55  1  0.11161274  0.43095495  0.60950661  1
  N  N56  1  0.89910492  0.54847322  0.36760116  1
  N  N57  1  0.77618250  0.43038203  0.09068965  1
  N  N58  1  0.55337379  0.53906891  0.84700807  1
  N  N59  1  0.43176992  0.41452922  0.61856839  1
  N  N60  1  0.23028896  0.84949833  0.35626823  1
  N  N61  1  0.10064184  0.75094637  0.11387792  1
  N  N62  1  0.88904641  0.87142817  0.85302201  1
  N  N63  1  0.76748674  0.75152852  0.61351947  1
  N  N64  1  0.55660486  0.87031486  0.35597445  1
  N  N65  1  0.45818596  0.73688376  0.11890923  1
  N  N66  1  0.22990657  0.85598740  0.85374712  1
  N  N67  1  0.13210317  0.74819645  0.61296359  1
  N  N68  1  0.88751114  0.87482434  0.35244163  1
  N  N69  1  0.79633522  0.75146229  0.11325825  1
  N  N70  1  0.55392233  0.87421309  0.85032839  1
  N  N71  1  0.43485595  0.78157967  0.61073194  1
