# generated using pymatgen
data_Sc2Al7N9
_symmetry_space_group_name_H-M   'P 1'
_cell_length_a   9.98533627
_cell_length_b   9.99004956
_cell_length_c   9.46684796
_cell_angle_alpha   89.93189544
_cell_angle_beta   89.95391550
_cell_angle_gamma   59.75128286
_symmetry_Int_Tables_number   1
_chemical_formula_structural   Sc2Al7N9
_chemical_formula_sum   'Sc8 Al28 N36'
_cell_volume   815.77828753
_cell_formula_units_Z   4
loop_
 _symmetry_equiv_pos_site_id
 _symmetry_equiv_pos_as_xyz
  1  'x, y, z'
loop_
 _atom_site_type_symbol
 _atom_site_label
 _atom_site_symmetry_multiplicity
 _atom_site_fract_x
 _atom_site_fract_y
 _atom_site_fract_z
 _atom_site_occupancy
  Sc  Sc0  1  0.10852806  0.09596736  0.34927673  1
  Sc  Sc1  1  0.22525518  0.21497090  0.09213495  1
  Sc  Sc2  1  0.11021231  0.09499044  0.83891462  1
  Sc  Sc3  1  0.77471976  0.43324009  0.34090562  1
  Sc  Sc4  1  0.54938527  0.53640410  0.60340526  1
  Sc  Sc5  1  0.22232580  0.86157347  0.09639146  1
  Sc  Sc6  1  0.88652278  0.87439982  0.59806996  1
  Sc  Sc7  1  0.55951010  0.87102758  0.09707211  1
  Al  Al8  1  0.76765440  0.10278570  0.83335549  1
  Al  Al9  1  0.88299038  0.20646147  0.58210725  1
  Al  Al10  1  0.45039455  0.10042522  0.33924156  1
  Al  Al11  1  0.55855077  0.20693354  0.07925246  1
  Al  Al12  1  0.22559928  0.21189678  0.58183844  1
  Al  Al13  1  0.77328883  0.09167698  0.32426214  1
  Al  Al14  1  0.87829310  0.21066662  0.07622439  1
  Al  Al15  1  0.44980476  0.09459517  0.82081920  1
  Al  Al16  1  0.55291001  0.20892301  0.57700542  1
  Al  Al17  1  0.11221206  0.43889717  0.33159333  1
  Al  Al18  1  0.21775106  0.54084420  0.07954484  1
  Al  Al19  1  0.78122784  0.42874709  0.83049394  1
  Al  Al20  1  0.89361899  0.53938678  0.58161095  1
  Al  Al21  1  0.44215732  0.42777037  0.32366858  1
  Al  Al22  1  0.55889341  0.53171509  0.06995001  1
  Al  Al23  1  0.11289649  0.43285026  0.82506534  1
  Al  Al24  1  0.22567058  0.53291666  0.57605367  1
  Al  Al25  1  0.89184644  0.54005617  0.07590355  1
  Al  Al26  1  0.43767760  0.42138780  0.83528047  1
  Al  Al27  1  0.10740896  0.75381961  0.33180952  1
  Al  Al28  1  0.77332621  0.75851252  0.83061989  1
  Al  Al29  1  0.44771687  0.74950822  0.33315771  1
  Al  Al30  1  0.11981276  0.75126738  0.82700946  1
  Al  Al31  1  0.22625580  0.86659052  0.57694436  1
  Al  Al32  1  0.78675395  0.76055505  0.32785995  1
  Al  Al33  1  0.89032732  0.86954107  0.07397948  1
  Al  Al34  1  0.44381262  0.76580082  0.82715113  1
  Al  Al35  1  0.55411086  0.87228537  0.57517845  1
  N  N36  1  0.23044631  0.22028294  0.37356937  1
  N  N37  1  0.09325332  0.10531448  0.11227507  1
  N  N38  1  0.86794119  0.21598053  0.87423693  1
  N  N39  1  0.76299620  0.11615413  0.63361822  1
  N  N40  1  0.55762532  0.20958973  0.37621286  1
  N  N41  1  0.45810080  0.10509433  0.13993361  1
  N  N42  1  0.23374270  0.21553888  0.86172078  1
  N  N43  1  0.11148015  0.09337954  0.60406539  1
  N  N44  1  0.87274879  0.19783605  0.38063118  1
  N  N45  1  0.77816590  0.09248790  0.11997457  1
  N  N46  1  0.55328747  0.20310640  0.87906188  1
  N  N47  1  0.44974079  0.09218131  0.61586794  1
  N  N48  1  0.22640848  0.53714792  0.37494850  1
  N  N49  1  0.10089924  0.44860421  0.13048361  1
  N  N50  1  0.89198412  0.53764481  0.87350643  1
  N  N51  1  0.79799842  0.42019883  0.62202815  1
  N  N52  1  0.53834136  0.53980970  0.37972990  1
  N  N53  1  0.44469095  0.42778349  0.11818056  1
  N  N54  1  0.21982809  0.53870998  0.87918664  1
  N  N55  1  0.11081934  0.43232860  0.62421758  1
  N  N56  1  0.89998186  0.55027941  0.38097193  1
  N  N57  1  0.77705388  0.43007914  0.11210755  1
  N  N58  1  0.55463560  0.53879948  0.86091931  1
  N  N59  1  0.43066388  0.41399148  0.63579920  1
  N  N60  1  0.22902120  0.85197373  0.36747246  1
  N  N61  1  0.09872629  0.75065762  0.12962383  1
  N  N62  1  0.88970240  0.87150840  0.86433357  1
  N  N63  1  0.76610731  0.75227276  0.62972970  1
  N  N64  1  0.55812952  0.86872050  0.36774749  1
  N  N65  1  0.45937437  0.73509088  0.13162127  1
  N  N66  1  0.23078759  0.85301044  0.87032274  1
  N  N67  1  0.13223576  0.74733554  0.62465698  1
  N  N68  1  0.88618260  0.87519041  0.37202915  1
  N  N69  1  0.79691537  0.75225754  0.12384058  1
  N  N70  1  0.55247446  0.87583992  0.86961109  1
  N  N71  1  0.43539297  0.78150179  0.62428088  1
