# generated using pymatgen
data_Sc2Al7N9
_symmetry_space_group_name_H-M   'P 1'
_cell_length_a   10.23556592
_cell_length_b   10.24473131
_cell_length_c   8.72328753
_cell_angle_alpha   89.93810770
_cell_angle_beta   89.98495667
_cell_angle_gamma   59.74444044
_symmetry_Int_Tables_number   1
_chemical_formula_structural   Sc2Al7N9
_chemical_formula_sum   'Sc8 Al28 N36'
_cell_volume   790.13047982
_cell_formula_units_Z   4
loop_
 _symmetry_equiv_pos_site_id
 _symmetry_equiv_pos_as_xyz
  1  'x, y, z'
loop_
 _atom_site_type_symbol
 _atom_site_label
 _atom_site_symmetry_multiplicity
 _atom_site_fract_x
 _atom_site_fract_y
 _atom_site_fract_z
 _atom_site_occupancy
  Sc  Sc0  1  0.10942569  0.09445973  0.35702820  1
  Sc  Sc1  1  0.22532115  0.21477459  0.10202264  1
  Sc  Sc2  1  0.10839428  0.09689909  0.84781191  1
  Sc  Sc3  1  0.77883345  0.43148045  0.34821257  1
  Sc  Sc4  1  0.55109940  0.53532548  0.60610201  1
  Sc  Sc5  1  0.22182192  0.86171003  0.10205646  1
  Sc  Sc6  1  0.88619255  0.87566083  0.60217625  1
  Sc  Sc7  1  0.55944017  0.87143648  0.10250457  1
  Al  Al8  1  0.76967454  0.09957227  0.84854721  1
  Al  Al9  1  0.88150853  0.20834545  0.59980933  1
  Al  Al10  1  0.44994374  0.09828086  0.35347536  1
  Al  Al11  1  0.55759704  0.20739069  0.09106262  1
  Al  Al12  1  0.22606893  0.21281057  0.59900148  1
  Al  Al13  1  0.77177237  0.09441752  0.33604327  1
  Al  Al14  1  0.88027689  0.20800376  0.09076936  1
  Al  Al15  1  0.45009857  0.09625264  0.83317287  1
  Al  Al16  1  0.55348251  0.20881927  0.59013381  1
  Al  Al17  1  0.11257759  0.43703384  0.34743348  1
  Al  Al18  1  0.21896206  0.53988641  0.09163255  1
  Al  Al19  1  0.77822162  0.42961557  0.85168029  1
  Al  Al20  1  0.89257729  0.53841956  0.59845763  1
  Al  Al21  1  0.44077093  0.42651308  0.33526544  1
  Al  Al22  1  0.55604565  0.53264901  0.09310424  1
  Al  Al23  1  0.11212411  0.43422091  0.83870136  1
  Al  Al24  1  0.22499476  0.53391116  0.59088051  1
  Al  Al25  1  0.89316200  0.54129381  0.08871462  1
  Al  Al26  1  0.43988389  0.42328030  0.84905518  1
  Al  Al27  1  0.11195013  0.75309849  0.34767388  1
  Al  Al28  1  0.77837996  0.75882348  0.84567770  1
  Al  Al29  1  0.44529216  0.75638623  0.35311946  1
  Al  Al30  1  0.11409823  0.75253900  0.84208988  1
  Al  Al31  1  0.22579004  0.86571294  0.60136189  1
  Al  Al32  1  0.78211522  0.76024876  0.34628402  1
  Al  Al33  1  0.88994946  0.86947399  0.09608772  1
  Al  Al34  1  0.44681500  0.75844127  0.84794712  1
  Al  Al35  1  0.55437119  0.87216744  0.59837459  1
  N  N36  1  0.22953739  0.21855180  0.36681757  1
  N  N37  1  0.09595544  0.10350433  0.10333147  1
  N  N38  1  0.86929605  0.21442183  0.85943740  1
  N  N39  1  0.76490856  0.11264077  0.61848006  1
  N  N40  1  0.55653484  0.20931437  0.36243423  1
  N  N41  1  0.45668696  0.10299041  0.12236882  1
  N  N42  1  0.23320369  0.21561597  0.84494689  1
  N  N43  1  0.10928402  0.09451571  0.60409877  1
  N  N44  1  0.87498654  0.19862426  0.36220950  1
  N  N45  1  0.77636684  0.09422074  0.10607632  1
  N  N46  1  0.55378057  0.20438510  0.86512166  1
  N  N47  1  0.45030011  0.09340412  0.60365520  1
  N  N48  1  0.22616545  0.53645549  0.36146078  1
  N  N49  1  0.10322079  0.44604372  0.11313929  1
  N  N50  1  0.89189095  0.53807258  0.85901815  1
  N  N51  1  0.79399214  0.42236260  0.61282627  1
  N  N52  1  0.54052906  0.54077778  0.35260629  1
  N  N53  1  0.44293215  0.42641677  0.10535589  1
  N  N54  1  0.22111086  0.53871464  0.86451271  1
  N  N55  1  0.11010689  0.43358458  0.61113223  1
  N  N56  1  0.89941076  0.54849735  0.36427446  1
  N  N57  1  0.77920556  0.42953049  0.09613415  1
  N  N58  1  0.55464586  0.53622586  0.86064451  1
  N  N59  1  0.43334262  0.41694608  0.62030178  1
  N  N60  1  0.22865935  0.85406602  0.36205902  1
  N  N61  1  0.10208141  0.75033220  0.11374451  1
  N  N62  1  0.88964831  0.87223065  0.86158512  1
  N  N63  1  0.77048961  0.75324870  0.61343909  1
  N  N64  1  0.55773090  0.86931397  0.36363585  1
  N  N65  1  0.45545914  0.74221638  0.10610045  1
  N  N66  1  0.22895880  0.85411200  0.84824524  1
  N  N67  1  0.12644157  0.74867423  0.60821621  1
  N  N68  1  0.88575551  0.87485147  0.35059841  1
  N  N69  1  0.79325848  0.75316931  0.10619111  1
  N  N70  1  0.55358603  0.87507264  0.84834889  1
  N  N71  1  0.43880790  0.77461088  0.60742623  1
