# generated using pymatgen
data_Sc2Al7N9
_symmetry_space_group_name_H-M   'P 1'
_cell_length_a   9.75629661
_cell_length_b   9.75559999
_cell_length_c   10.10250203
_cell_angle_alpha   89.90939866
_cell_angle_beta   89.93186933
_cell_angle_gamma   59.81272208
_symmetry_Int_Tables_number   1
_chemical_formula_structural   Sc2Al7N9
_chemical_formula_sum   'Sc8 Al28 N36'
_cell_volume   831.14213526
_cell_formula_units_Z   4
loop_
 _symmetry_equiv_pos_site_id
 _symmetry_equiv_pos_as_xyz
  1  'x, y, z'
loop_
 _atom_site_type_symbol
 _atom_site_label
 _atom_site_symmetry_multiplicity
 _atom_site_fract_x
 _atom_site_fract_y
 _atom_site_fract_z
 _atom_site_occupancy
  Sc  Sc0  1  0.10922126  0.09611008  0.34380500  1
  Sc  Sc1  1  0.22242047  0.21426833  0.07884265  1
  Sc  Sc2  1  0.10968173  0.09463788  0.81619802  1
  Sc  Sc3  1  0.77355053  0.43434224  0.32353197  1
  Sc  Sc4  1  0.55323695  0.53581007  0.59280625  1
  Sc  Sc5  1  0.22106866  0.86571613  0.08411023  1
  Sc  Sc6  1  0.88798291  0.87361739  0.58448903  1
  Sc  Sc7  1  0.56044922  0.87026170  0.08317566  1
  Al  Al8  1  0.76915080  0.10110999  0.82683809  1
  Al  Al9  1  0.88247366  0.20826747  0.57331370  1
  Al  Al10  1  0.45015313  0.09939587  0.32965062  1
  Al  Al11  1  0.55798731  0.20793966  0.07409186  1
  Al  Al12  1  0.22726172  0.21170454  0.57139810  1
  Al  Al13  1  0.77260878  0.09295640  0.31970706  1
  Al  Al14  1  0.87996599  0.20889070  0.07001694  1
  Al  Al15  1  0.44905081  0.09498628  0.81629096  1
  Al  Al16  1  0.55261890  0.20742940  0.57266876  1
  Al  Al17  1  0.11290455  0.43772124  0.32616809  1
  Al  Al18  1  0.21928924  0.53971654  0.07437550  1
  Al  Al19  1  0.78118920  0.42756799  0.82653060  1
  Al  Al20  1  0.89401510  0.53705670  0.57622889  1
  Al  Al21  1  0.44154724  0.42798204  0.32179322  1
  Al  Al22  1  0.55674396  0.53298096  0.06435386  1
  Al  Al23  1  0.11256025  0.43249662  0.81911878  1
  Al  Al24  1  0.22470209  0.53383853  0.57195577  1
  Al  Al25  1  0.89178770  0.54052294  0.07004812  1
  Al  Al26  1  0.43893337  0.42242712  0.82636639  1
  Al  Al27  1  0.10872718  0.75385998  0.32318740  1
  Al  Al28  1  0.77493973  0.75847784  0.82218787  1
  Al  Al29  1  0.44689276  0.75156461  0.32678961  1
  Al  Al30  1  0.11832658  0.75241797  0.82281913  1
  Al  Al31  1  0.22736059  0.86489000  0.56761401  1
  Al  Al32  1  0.78461372  0.76087657  0.32364145  1
  Al  Al33  1  0.88970050  0.86980445  0.07125434  1
  Al  Al34  1  0.44368884  0.76472570  0.81943923  1
  Al  Al35  1  0.55316210  0.87353587  0.57103414  1
  N  N36  1  0.23303832  0.22067721  0.38145935  1
  N  N37  1  0.09093505  0.10709850  0.12977429  1
  N  N38  1  0.87136765  0.21263359  0.88225801  1
  N  N39  1  0.76440565  0.11590689  0.63902856  1
  N  N40  1  0.55714219  0.20786998  0.38265125  1
  N  N41  1  0.45618909  0.10510343  0.14376050  1
  N  N42  1  0.23157149  0.21420979  0.86697437  1
  N  N43  1  0.11216702  0.09322939  0.60005295  1
  N  N44  1  0.86901292  0.20204890  0.38782265  1
  N  N45  1  0.77737071  0.09331090  0.12742227  1
  N  N46  1  0.55344241  0.20400359  0.88427378  1
  N  N47  1  0.44885484  0.09255298  0.62506862  1
  N  N48  1  0.22480197  0.53859038  0.38196111  1
  N  N49  1  0.10103835  0.44768140  0.13752994  1
  N  N50  1  0.89210921  0.53864677  0.87971236  1
  N  N51  1  0.80115778  0.41741270  0.63528458  1
  N  N52  1  0.53935665  0.54100743  0.38467503  1
  N  N53  1  0.44428107  0.42811329  0.12716797  1
  N  N54  1  0.22087796  0.53782965  0.88434636  1
  N  N55  1  0.11137393  0.43110980  0.63006333  1
  N  N56  1  0.89919692  0.54859743  0.38793956  1
  N  N57  1  0.77622512  0.43024332  0.11214777  1
  N  N58  1  0.55351072  0.53893273  0.86690753  1
  N  N59  1  0.43140414  0.41425285  0.63923523  1
  N  N60  1  0.22998308  0.84983041  0.37617316  1
  N  N61  1  0.10027671  0.75084329  0.13449516  1
  N  N62  1  0.88908353  0.87140692  0.87275955  1
  N  N63  1  0.76704348  0.75150195  0.63416913  1
  N  N64  1  0.55662345  0.87019687  0.37601360  1
  N  N65  1  0.45868081  0.73609881  0.13953533  1
  N  N66  1  0.23011239  0.85550620  0.87509359  1
  N  N67  1  0.13250075  0.74804128  0.63335202  1
  N  N68  1  0.88736786  0.87478865  0.37395724  1
  N  N69  1  0.79663274  0.75147145  0.13356507  1
  N  N70  1  0.55376986  0.87431764  0.87171767  1
  N  N71  1  0.43449305  0.78216041  0.63136087  1
