# generated using pymatgen
data_Sc2Al7N9
_symmetry_space_group_name_H-M   'P 1'
_cell_length_a   9.94905005
_cell_length_b   9.95311677
_cell_length_c   9.57244816
_cell_angle_alpha   89.93046170
_cell_angle_beta   89.94862402
_cell_angle_gamma   59.75515250
_symmetry_Int_Tables_number   1
_chemical_formula_structural   Sc2Al7N9
_chemical_formula_sum   'Sc8 Al28 N36'
_cell_volume   818.87425788
_cell_formula_units_Z   4
loop_
 _symmetry_equiv_pos_site_id
 _symmetry_equiv_pos_as_xyz
  1  'x, y, z'
loop_
 _atom_site_type_symbol
 _atom_site_label
 _atom_site_symmetry_multiplicity
 _atom_site_fract_x
 _atom_site_fract_y
 _atom_site_fract_z
 _atom_site_occupancy
  Sc  Sc0  1  0.10850239  0.09616347  0.34780796  1
  Sc  Sc1  1  0.22505466  0.21497492  0.09024487  1
  Sc  Sc2  1  0.11034297  0.09478915  0.83641823  1
  Sc  Sc3  1  0.77422302  0.43354781  0.33910868  1
  Sc  Sc4  1  0.54943003  0.53662640  0.60263931  1
  Sc  Sc5  1  0.22236133  0.86178982  0.09521862  1
  Sc  Sc6  1  0.88680054  0.87416671  0.59702432  1
  Sc  Sc7  1  0.55970526  0.87080303  0.09576932  1
  Al  Al8  1  0.76764167  0.10300348  0.83184365  1
  Al  Al9  1  0.88316620  0.20642913  0.58028418  1
  Al  Al10  1  0.45045501  0.10051059  0.33718317  1
  Al  Al11  1  0.55868232  0.20711717  0.07820922  1
  Al  Al12  1  0.22580460  0.21177432  0.57957923  1
  Al  Al13  1  0.77334436  0.09150899  0.32350667  1
  Al  Al14  1  0.87821377  0.21074310  0.07523267  1
  Al  Al15  1  0.44966900  0.09454126  0.82021718  1
  Al  Al16  1  0.55274930  0.20864382  0.57608279  1
  Al  Al17  1  0.11228603  0.43895121  0.33026647  1
  Al  Al18  1  0.21795594  0.54072888  0.07845631  1
  Al  Al19  1  0.78149379  0.42850024  0.82856836  1
  Al  Al20  1  0.89376374  0.53920303  0.58032057  1
  Al  Al21  1  0.44212292  0.42789604  0.32327806  1
  Al  Al22  1  0.55895410  0.53162550  0.06834977  1
  Al  Al23  1  0.11287944  0.43268032  0.82407327  1
  Al  Al24  1  0.22549222  0.53299553  0.57514143  1
  Al  Al25  1  0.89165005  0.54002249  0.07497060  1
  Al  Al26  1  0.43768592  0.42130903  0.83345353  1
  Al  Al27  1  0.10714467  0.75383387  0.33018175  1
  Al  Al28  1  0.77304844  0.75843786  0.82909612  1
  Al  Al29  1  0.44778574  0.74922984  0.33181345  1
  Al  Al30  1  0.12021271  0.75128457  0.82613080  1
  Al  Al31  1  0.22637824  0.86653008  0.57451233  1
  Al  Al32  1  0.78692761  0.76061378  0.32690083  1
  Al  Al33  1  0.89022403  0.86958882  0.07246140  1
  Al  Al34  1  0.44358310  0.76619441  0.82581444  1
  Al  Al35  1  0.55382695  0.87257305  0.57363572  1
  N  N36  1  0.23084282  0.22041397  0.37471757  1
  N  N37  1  0.09291799  0.10557852  0.11460236  1
  N  N38  1  0.86801627  0.21595221  0.87594250  1
  N  N39  1  0.76300473  0.11647657  0.63466674  1
  N  N40  1  0.55761673  0.20932971  0.37757029  1
  N  N41  1  0.45814716  0.10528574  0.14080682  1
  N  N42  1  0.23357796  0.21549771  0.86369235  1
  N  N43  1  0.11164223  0.09332352  0.60396709  1
  N  N44  1  0.87236904  0.19807923  0.38202229  1
  N  N45  1  0.77824839  0.09236625  0.12154099  1
  N  N46  1  0.55333985  0.20323161  0.88018711  1
  N  N47  1  0.44955577  0.09212881  0.61784137  1
  N  N48  1  0.22613301  0.53740828  0.37633978  1
  N  N49  1  0.10076775  0.44875318  0.13183661  1
  N  N50  1  0.89184228  0.53769276  0.87486039  1
  N  N51  1  0.79851410  0.41980666  0.62356270  1
  N  N52  1  0.53803197  0.54006413  0.38193356  1
  N  N53  1  0.44477255  0.42790544  0.11997724  1
  N  N54  1  0.21996740  0.53856089  0.88028113  1
  N  N55  1  0.11087907  0.43206784  0.62555257  1
  N  N56  1  0.90006509  0.55021461  0.38232079  1
  N  N57  1  0.77681247  0.43011785  0.11353885  1
  N  N58  1  0.55461063  0.53879410  0.86124312  1
  N  N59  1  0.43050390  0.41376213  0.63659735  1
  N  N60  1  0.22905887  0.85171656  0.36832849  1
  N  N61  1  0.09853779  0.75066768  0.13067435  1
  N  N62  1  0.88958528  0.87152471  0.86498295  1
  N  N63  1  0.76577729  0.75210097  0.63076960  1
  N  N64  1  0.55790076  0.86895118  0.36859643  1
  N  N65  1  0.45976130  0.73445562  0.13337969  1
  N  N66  1  0.23097790  0.85300832  0.87246547  1
  N  N67  1  0.13286660  0.74731460  0.62641296  1
  N  N68  1  0.88638984  0.87508987  0.37369213  1
  N  N69  1  0.79723723  0.75214760  0.12567094  1
  N  N70  1  0.55257024  0.87567072  0.87120662  1
  N  N71  1  0.43490250  0.78228241  0.62579958  1
