# generated using pymatgen
data_Sc2Al7N9
_symmetry_space_group_name_H-M   'P 1'
_cell_length_a   9.99109809
_cell_length_b   9.99702792
_cell_length_c   9.45316464
_cell_angle_alpha   90.02953059
_cell_angle_beta   90.01057748
_cell_angle_gamma   59.71963627
_symmetry_Int_Tables_number   1
_chemical_formula_structural   Sc2Al7N9
_chemical_formula_sum   'Sc8 Al28 N36'
_cell_volume   815.37621349
_cell_formula_units_Z   4
loop_
 _symmetry_equiv_pos_site_id
 _symmetry_equiv_pos_as_xyz
  1  'x, y, z'
loop_
 _atom_site_type_symbol
 _atom_site_label
 _atom_site_symmetry_multiplicity
 _atom_site_fract_x
 _atom_site_fract_y
 _atom_site_fract_z
 _atom_site_occupancy
  Sc  Sc0  1  0.11096419  0.09274987  0.36917905  1
  Sc  Sc1  1  0.22466257  0.21626298  0.11578076  1
  Sc  Sc2  1  0.10752313  0.09881655  0.85625492  1
  Sc  Sc3  1  0.78238222  0.42988150  0.35391456  1
  Sc  Sc4  1  0.55504612  0.53373960  0.60939392  1
  Sc  Sc5  1  0.22245658  0.86257083  0.10878941  1
  Sc  Sc6  1  0.88836103  0.87356550  0.60829348  1
  Sc  Sc7  1  0.56020779  0.87080281  0.11080345  1
  Al  Al8  1  0.77179162  0.09530277  0.87810657  1
  Al  Al9  1  0.88014044  0.21223091  0.63069828  1
  Al  Al10  1  0.44968977  0.09495607  0.38413706  1
  Al  Al11  1  0.55893338  0.20703853  0.12706375  1
  Al  Al12  1  0.22608401  0.21132056  0.62268441  1
  Al  Al13  1  0.76900939  0.09860389  0.37503201  1
  Al  Al14  1  0.88124276  0.20312594  0.12071419  1
  Al  Al15  1  0.45055673  0.09989921  0.86852823  1
  Al  Al16  1  0.55247093  0.20840874  0.62831915  1
  Al  Al17  1  0.11342163  0.43685273  0.38390367  1
  Al  Al18  1  0.21897178  0.53954820  0.12580723  1
  Al  Al19  1  0.77214934  0.43158407  0.88299441  1
  Al  Al20  1  0.88954684  0.53518980  0.63149449  1
  Al  Al21  1  0.43624401  0.42395760  0.37361148  1
  Al  Al22  1  0.55189780  0.53393586  0.12857818  1
  Al  Al23  1  0.11136555  0.43571631  0.87022415  1
  Al  Al24  1  0.22495594  0.53496224  0.63020250  1
  Al  Al25  1  0.89624616  0.54523714  0.12121473  1
  Al  Al26  1  0.44503521  0.42613314  0.87980284  1
  Al  Al27  1  0.11918069  0.75171407  0.37640784  1
  Al  Al28  1  0.78281310  0.75970988  0.87327946  1
  Al  Al29  1  0.44084323  0.76492399  0.38015799  1
  Al  Al30  1  0.10795173  0.75363866  0.87620432  1
  Al  Al31  1  0.22568059  0.86590232  0.63047711  1
  Al  Al32  1  0.77660431  0.75938416  0.37867778  1
  Al  Al33  1  0.88852864  0.87053462  0.12994691  1
  Al  Al34  1  0.45148598  0.74898441  0.87202968  1
  Al  Al35  1  0.55321313  0.87288566  0.62939757  1
  N  N36  1  0.23172295  0.21815315  0.34782153  1
  N  N37  1  0.09613668  0.10504845  0.08929902  1
  N  N38  1  0.86403153  0.21779953  0.83485542  1
  N  N39  1  0.76468266  0.11704418  0.57670579  1
  N  N40  1  0.55382116  0.20404411  0.32855923  1
  N  N41  1  0.45760426  0.10512311  0.06876341  1
  N  N42  1  0.23243059  0.21811214  0.83087222  1
  N  N43  1  0.10898243  0.09365257  0.60516224  1
  N  N44  1  0.87749727  0.19449206  0.32154709  1
  N  N45  1  0.77652026  0.09086546  0.08062597  1
  N  N46  1  0.55691372  0.20885121  0.82865413  1
  N  N47  1  0.45005096  0.09201574  0.58818146  1
  N  N48  1  0.22162772  0.53799013  0.32718465  1
  N  N49  1  0.10425022  0.44773658  0.06976483  1
  N  N50  1  0.88710887  0.53756163  0.83441867  1
  N  N51  1  0.79838518  0.41898180  0.57971886  1
  N  N52  1  0.53628825  0.54548372  0.33973739  1
  N  N53  1  0.44366658  0.42646455  0.08361965  1
  N  N54  1  0.22568383  0.53813620  0.83061404  1
  N  N55  1  0.10787973  0.43461879  0.58729824  1
  N  N56  1  0.90395294  0.55023476  0.32324918  1
  N  N57  1  0.77696694  0.42995101  0.09224517  1
  N  N58  1  0.55734959  0.53221381  0.83573089  1
  N  N59  1  0.43159065  0.41543256  0.57447449  1
  N  N60  1  0.22929776  0.85477412  0.33545014  1
  N  N61  1  0.09874730  0.75083525  0.07881288  1
  N  N62  1  0.88801417  0.87425513  0.83288523  1
  N  N63  1  0.76808897  0.74939608  0.58205975  1
  N  N64  1  0.55410712  0.87329613  0.33957110  1
  N  N65  1  0.45864711  0.73769755  0.07306637  1
  N  N66  1  0.23041933  0.85064390  0.83906280  1
  N  N67  1  0.13227346  0.74769822  0.57931724  1
  N  N68  1  0.88726674  0.87241791  0.34221585  1
  N  N69  1  0.79542818  0.75559089  0.07512162  1
  N  N70  1  0.55632888  0.87120352  0.83688568  1
  N  N71  1  0.43585953  0.77915942  0.58439493  1
