# generated using pymatgen
data_Sc2Al7N9
_symmetry_space_group_name_H-M   'P 1'
_cell_length_a   10.11847207
_cell_length_b   10.12539460
_cell_length_c   9.06966266
_cell_angle_alpha   89.93329356
_cell_angle_beta   89.97289716
_cell_angle_gamma   59.74746052
_symmetry_Int_Tables_number   1
_chemical_formula_structural   Sc2Al7N9
_chemical_formula_sum   'Sc8 Al28 N36'
_cell_volume   802.67096671
_cell_formula_units_Z   4
loop_
 _symmetry_equiv_pos_site_id
 _symmetry_equiv_pos_as_xyz
  1  'x, y, z'
loop_
 _atom_site_type_symbol
 _atom_site_label
 _atom_site_symmetry_multiplicity
 _atom_site_fract_x
 _atom_site_fract_y
 _atom_site_fract_z
 _atom_site_occupancy
  Sc  Sc0  1  0.10896375  0.09502921  0.35435496  1
  Sc  Sc1  1  0.22559651  0.21481593  0.09835301  1
  Sc  Sc2  1  0.10933957  0.09603139  0.84488547  1
  Sc  Sc3  1  0.77692899  0.43209683  0.34570104  1
  Sc  Sc4  1  0.55009265  0.53543991  0.60502010  1
  Sc  Sc5  1  0.22193141  0.86144299  0.09961358  1
  Sc  Sc6  1  0.88572790  0.87532155  0.60030859  1
  Sc  Sc7  1  0.55897331  0.87179707  0.10018878  1
  Al  Al8  1  0.76839050  0.10116683  0.84050087  1
  Al  Al9  1  0.88207571  0.20727911  0.59043984  1
  Al  Al10  1  0.45007277  0.09946119  0.34759331  1
  Al  Al11  1  0.55789189  0.20663123  0.08419807  1
  Al  Al12  1  0.22524381  0.21244945  0.59150897  1
  Al  Al13  1  0.77264911  0.09302201  0.32827233  1
  Al  Al14  1  0.87937987  0.20947555  0.08148694  1
  Al  Al15  1  0.45017153  0.09533819  0.82447091  1
  Al  Al16  1  0.55347982  0.20954753  0.58191260  1
  Al  Al17  1  0.11219604  0.43806606  0.33830410  1
  Al  Al18  1  0.21757216  0.54080914  0.08469931  1
  Al  Al19  1  0.77967169  0.42954907  0.84146375  1
  Al  Al20  1  0.89295499  0.53939091  0.58833807  1
  Al  Al21  1  0.44180612  0.42710706  0.32683932  1
  Al  Al22  1  0.55782212  0.53218944  0.07977128  1
  Al  Al23  1  0.11268009  0.43370837  0.82989088  1
  Al  Al24  1  0.22594737  0.53292671  0.58113309  1
  Al  Al25  1  0.89282850  0.54043771  0.08052906  1
  Al  Al26  1  0.43830552  0.42221418  0.84275135  1
  Al  Al27  1  0.10952451  0.75363348  0.33926258  1
  Al  Al28  1  0.77573565  0.75873129  0.83733109  1
  Al  Al29  1  0.44677309  0.75236685  0.34054327  1
  Al  Al30  1  0.11701665  0.75154900  0.83206857  1
  Al  Al31  1  0.22584712  0.86654742  0.58972345  1
  Al  Al32  1  0.78471102  0.76038794  0.33391250  1
  Al  Al33  1  0.89051943  0.86940624  0.08381472  1
  Al  Al34  1  0.44527270  0.76259854  0.83457233  1
  Al  Al35  1  0.55484583  0.87162115  0.58531049  1
  N  N36  1  0.22940220  0.21950947  0.36977904  1
  N  N37  1  0.09460046  0.10437588  0.10616597  1
  N  N38  1  0.86856570  0.21527134  0.86697118  1
  N  N39  1  0.76352506  0.11444559  0.62826761  1
  N  N40  1  0.55735120  0.21010413  0.37009761  1
  N  N41  1  0.45743188  0.10409694  0.13435765  1
  N  N42  1  0.23382836  0.21558777  0.85238990  1
  N  N43  1  0.11055891  0.09389089  0.60427400  1
  N  N44  1  0.87396441  0.19778215  0.37361469  1
  N  N45  1  0.77742010  0.09343226  0.11309932  1
  N  N46  1  0.55325683  0.20313967  0.87358920  1
  N  N47  1  0.45023056  0.09278682  0.60833305  1
  N  N48  1  0.22704635  0.53632253  0.36892861  1
  N  N49  1  0.10185224  0.44742674  0.12408245  1
  N  N50  1  0.89248223  0.53765310  0.86722248  1
  N  N51  1  0.79588173  0.42155379  0.61712836  1
  N  N52  1  0.53984084  0.53942674  0.36742024  1
  N  N53  1  0.44393753  0.42710025  0.11106621  1
  N  N54  1  0.21978584  0.53902772  0.87370440  1
  N  N55  1  0.11054215  0.43322407  0.61811400  1
  N  N56  1  0.89949299  0.54985386  0.37458276  1
  N  N57  1  0.77823992  0.42977429  0.10367828  1
  N  N58  1  0.55448177  0.53826099  0.86085382  1
  N  N59  1  0.43177485  0.41532497  0.63090531  1
  N  N60  1  0.22888939  0.85308301  0.36486310  1
  N  N61  1  0.10036076  0.75047059  0.12404693  1
  N  N62  1  0.89008674  0.87154843  0.86304949  1
  N  N63  1  0.76830372  0.75286530  0.62402446  1
  N  N64  1  0.55855644  0.86831105  0.36569951  1
  N  N65  1  0.45725438  0.73877944  0.12221218  1
  N  N66  1  0.22963331  0.85359474  0.85887095  1
  N  N67  1  0.12910977  0.74770230  0.61680520  1
  N  N68  1  0.88553787  0.87542711  0.36212250  1
  N  N69  1  0.79507513  0.75261675  0.11598012  1
  N  N70  1  0.55259356  0.87604756  0.85985589  1
  N  N71  1  0.43747057  0.77766731  0.61724286  1
