# generated using pymatgen
data_Mg2PN3
_symmetry_space_group_name_H-M   'P 1'
_cell_length_a   4.76866071
_cell_length_b   5.69381226
_cell_length_c   9.78832651
_cell_angle_alpha   89.99999215
_cell_angle_beta   89.99999355
_cell_angle_gamma   91.03283212
_symmetry_Int_Tables_number   1
_chemical_formula_structural   Mg2PN3
_chemical_formula_sum   'Mg8 P4 N12'
_cell_volume   265.72807967
_cell_formula_units_Z   4
loop_
 _symmetry_equiv_pos_site_id
 _symmetry_equiv_pos_as_xyz
  1  'x, y, z'
loop_
 _atom_site_type_symbol
 _atom_site_label
 _atom_site_symmetry_multiplicity
 _atom_site_fract_x
 _atom_site_fract_y
 _atom_site_fract_z
 _atom_site_occupancy
  Mg  Mg0  1  0.03935790  0.35040106  0.16146632  1
  Mg  Mg1  1  0.03935794  0.35040107  0.83853310  1
  Mg  Mg2  1  0.53445678  0.68150924  0.16410545  1
  Mg  Mg3  1  0.53445681  0.68150926  0.83589403  1
  Mg  Mg4  1  0.02933941  0.84656220  0.66452766  1
  Mg  Mg5  1  0.02933935  0.84656225  0.33547178  1
  Mg  Mg6  1  0.55650727  0.18235729  0.66394816  1
  Mg  Mg7  1  0.55650720  0.18235730  0.33605128  1
  P  P8  1  0.01681178  0.85312114  0.99999961  1
  P  P9  1  0.52058697  0.17710909  0.99999957  1
  P  P10  1  0.08108784  0.34666490  0.50000004  1
  P  P11  1  0.50719082  0.67794823  0.49999985  1
  N  N12  1  0.16622865  0.12559192  -0.00000027  1
  N  N13  1  0.66424999  0.90544574  -0.00000027  1
  N  N14  1  0.08840594  0.71198738  0.85967187  1
  N  N15  1  0.08840599  0.71198727  0.14032772  1
  N  N16  1  0.59363073  0.31956881  0.85968976  1
  N  N17  1  0.59363082  0.31956892  0.14030980  1
  N  N18  1  0.08546075  0.21016252  0.35652915  1
  N  N19  1  0.08546122  0.21016273  0.64347003  1
  N  N20  1  0.58321629  0.82101717  0.35892712  1
  N  N21  1  0.58321622  0.82101706  0.64107223  1
  N  N22  1  0.14323661  0.63618017  0.49999974  1
  N  N23  1  0.59761519  0.40004083  0.49999974  1
