# generated using pymatgen
data_Mg2PN3
_symmetry_space_group_name_H-M   'P 1'
_cell_length_a   4.76904764
_cell_length_b   5.70204528
_cell_length_c   9.81089916
_cell_angle_alpha   90.00003156
_cell_angle_beta   90.00000193
_cell_angle_gamma   91.26466560
_symmetry_Int_Tables_number   1
_chemical_formula_structural   Mg2PN3
_chemical_formula_sum   'Mg8 P4 N12'
_cell_volume   266.72598738
_cell_formula_units_Z   4
loop_
 _symmetry_equiv_pos_site_id
 _symmetry_equiv_pos_as_xyz
  1  'x, y, z'
loop_
 _atom_site_type_symbol
 _atom_site_label
 _atom_site_symmetry_multiplicity
 _atom_site_fract_x
 _atom_site_fract_y
 _atom_site_fract_z
 _atom_site_occupancy
  Mg  Mg0  1  0.04940683  0.34975845  0.16279607  1
  Mg  Mg1  1  0.04940682  0.34975852  0.83720324  1
  Mg  Mg2  1  0.54056595  0.68067343  0.16235031  1
  Mg  Mg3  1  0.54056593  0.68067341  0.83764902  1
  Mg  Mg4  1  0.04737253  0.84866941  0.66523572  1
  Mg  Mg5  1  0.04737247  0.84866943  0.33476383  1
  Mg  Mg6  1  0.59604914  0.18201366  0.66421048  1
  Mg  Mg7  1  0.59604915  0.18201375  0.33578911  1
  P  P8  1  0.02025572  0.85350246  0.99999879  1
  P  P9  1  0.52388825  0.17753462  0.99999895  1
  P  P10  1  0.14343210  0.34560058  0.50000045  1
  P  P11  1  0.48614040  0.68606541  0.50000227  1
  N  N12  1  0.16974042  0.12551561  0.99999988  1
  N  N13  1  0.66775647  0.90653537  0.99999991  1
  N  N14  1  0.09034935  0.71199108  0.86013843  1
  N  N15  1  0.09034968  0.71199043  0.13986205  1
  N  N16  1  0.59600301  0.31979147  0.85979961  1
  N  N17  1  0.59600331  0.31979200  0.14020060  1
  N  N18  1  0.05749813  0.21186787  0.35881970  1
  N  N19  1  0.05749846  0.21186841  0.64117913  1
  N  N20  1  0.56883846  0.81777690  0.35812278  1
  N  N21  1  0.56883701  0.81777506  0.64187426  1
  N  N22  1  0.10792672  0.64027156  0.49999944  1
  N  N23  1  0.50645214  0.38912465  0.49999944  1
