# generated using pymatgen
data_Mg2PN3
_symmetry_space_group_name_H-M   'P 1'
_cell_length_a   4.76873416
_cell_length_b   5.69534681
_cell_length_c   9.78954008
_cell_angle_alpha   90.00000082
_cell_angle_beta   89.99999648
_cell_angle_gamma   91.08067408
_symmetry_Int_Tables_number   1
_chemical_formula_structural   Mg2PN3
_chemical_formula_sum   'Mg8 P4 N12'
_cell_volume   265.83265070
_cell_formula_units_Z   4
loop_
 _symmetry_equiv_pos_site_id
 _symmetry_equiv_pos_as_xyz
  1  'x, y, z'
loop_
 _atom_site_type_symbol
 _atom_site_label
 _atom_site_symmetry_multiplicity
 _atom_site_fract_x
 _atom_site_fract_y
 _atom_site_fract_z
 _atom_site_occupancy
  Mg  Mg0  1  0.03940953  0.35043530  0.16147500  1
  Mg  Mg1  1  0.03940954  0.35043528  0.83852454  1
  Mg  Mg2  1  0.53438566  0.68148130  0.16408399  1
  Mg  Mg3  1  0.53438569  0.68148135  0.83591559  1
  Mg  Mg4  1  0.02887292  0.84655324  0.66450247  1
  Mg  Mg5  1  0.02887288  0.84655329  0.33549689  1
  Mg  Mg6  1  0.55879119  0.18214806  0.66426908  1
  Mg  Mg7  1  0.55879101  0.18214809  0.33573028  1
  P  P8  1  0.01679013  0.85312214  0.00000045  1
  P  P9  1  0.52056053  0.17710209  0.00000054  1
  P  P10  1  0.11237230  0.34515293  0.49999796  1
  P  P11  1  0.50426974  0.67947124  0.49999903  1
  N  N12  1  0.16621881  0.12558557  0.99999958  1
  N  N13  1  0.66420991  0.90548667  0.99999959  1
  N  N14  1  0.08831837  0.71201751  0.85968627  1
  N  N15  1  0.08831810  0.71201804  0.14031250  1
  N  N16  1  0.59363640  0.31960013  0.85972871  1
  N  N17  1  0.59363610  0.31959952  0.14026986  1
  N  N18  1  0.08298734  0.21028582  0.35645889  1
  N  N19  1  0.08298690  0.21028443  0.64354231  1
  N  N20  1  0.58284643  0.82087154  0.35891964  1
  N  N21  1  0.58284670  0.82087208  0.64108047  1
  N  N22  1  0.13859283  0.63842019  0.49999992  1
  N  N23  1  0.57624943  0.39810774  0.49999990  1
