# generated using pymatgen
data_Mg2PN3
_symmetry_space_group_name_H-M   'P 1'
_cell_length_a   4.76788595
_cell_length_b   5.67594781
_cell_length_c   9.75692802
_cell_angle_alpha   89.99999998
_cell_angle_beta   90.00000003
_cell_angle_gamma   89.99999998
_symmetry_Int_Tables_number   1
_chemical_formula_structural   Mg2PN3
_chemical_formula_sum   'Mg8 P4 N12'
_cell_volume   264.04463809
_cell_formula_units_Z   4
loop_
 _symmetry_equiv_pos_site_id
 _symmetry_equiv_pos_as_xyz
  1  'x, y, z'
loop_
 _atom_site_type_symbol
 _atom_site_label
 _atom_site_symmetry_multiplicity
 _atom_site_fract_x
 _atom_site_fract_y
 _atom_site_fract_z
 _atom_site_occupancy
  Mg  Mg0  1  0.08668936  0.34938040  0.16333587  1
  Mg  Mg1  1  0.08668937  0.34938040  0.83666325  1
  Mg  Mg2  1  0.58668936  0.68138843  0.16333587  1
  Mg  Mg3  1  0.58668937  0.68138843  0.83666325  1
  Mg  Mg4  1  0.08668937  0.84938040  0.66333588  1
  Mg  Mg5  1  0.08668936  0.84938040  0.33666327  1
  Mg  Mg6  1  0.58668937  0.18138843  0.66333589  1
  Mg  Mg7  1  0.58668936  0.18138843  0.33666326  1
  P  P8  1  0.10386988  0.85328714  0.99999944  1
  P  P9  1  0.60386989  0.17748169  0.99999944  1
  P  P10  1  0.10386988  0.35328714  0.49999969  1
  P  P11  1  0.60386989  0.67748169  0.49999969  1
  N  N12  1  0.95733107  0.12591507  0.99999962  1
  N  N13  1  0.45733107  0.90485376  0.99999962  1
  N  N14  1  0.03128492  0.71180964  0.85902986  1
  N  N15  1  0.03128488  0.71180951  0.14096947  1
  N  N16  1  0.53128492  0.31895920  0.85902986  1
  N  N17  1  0.53128488  0.31895932  0.14096946  1
  N  N18  1  0.03128487  0.21180951  0.35902966  1
  N  N19  1  0.03128492  0.21180964  0.64096928  1
  N  N20  1  0.53128488  0.81895933  0.35902967  1
  N  N21  1  0.53128492  0.81895920  0.64096927  1
  N  N22  1  0.95733107  0.62591507  0.49999951  1
  N  N23  1  0.45733107  0.40485376  0.49999951  1
