# generated using pymatgen
data_Mg2PN3
_symmetry_space_group_name_H-M   'P 1'
_cell_length_a   4.76987438
_cell_length_b   5.69245217
_cell_length_c   9.80668011
_cell_angle_alpha   90.00000554
_cell_angle_beta   90.00000960
_cell_angle_gamma   91.65445277
_symmetry_Int_Tables_number   1
_chemical_formula_structural   Mg2PN3
_chemical_formula_sum   'Mg8 P4 N12'
_cell_volume   266.16273924
_cell_formula_units_Z   4
loop_
 _symmetry_equiv_pos_site_id
 _symmetry_equiv_pos_as_xyz
  1  'x, y, z'
loop_
 _atom_site_type_symbol
 _atom_site_label
 _atom_site_symmetry_multiplicity
 _atom_site_fract_x
 _atom_site_fract_y
 _atom_site_fract_z
 _atom_site_occupancy
  Mg  Mg0  1  0.04698326  0.35035655  0.16227191  1
  Mg  Mg1  1  0.04698328  0.35035655  0.83772755  1
  Mg  Mg2  1  0.53567802  0.68087084  0.16312506  1
  Mg  Mg3  1  0.53567803  0.68087083  0.83687441  1
  Mg  Mg4  1  0.03122327  0.84803949  0.66483696  1
  Mg  Mg5  1  0.03122321  0.84803948  0.33516256  1
  Mg  Mg6  1  0.59359064  0.18075878  0.66477314  1
  Mg  Mg7  1  0.59359042  0.18075878  0.33522629  1
  P  P8  1  0.01791450  0.85370149  0.99999976  1
  P  P9  1  0.52275136  0.17736422  0.99999976  1
  P  P10  1  0.15135209  0.34419687  0.49999969  1
  P  P11  1  0.48669735  0.68612552  0.49999970  1
  N  N12  1  0.16821440  0.12636657  -0.00000032  1
  N  N13  1  0.66546419  0.90589790  -0.00000033  1
  N  N14  1  0.08875689  0.71298636  0.85988728  1
  N  N15  1  0.08875679  0.71298648  0.14011208  1
  N  N16  1  0.59581867  0.31975461  0.85977247  1
  N  N17  1  0.59581861  0.31975449  0.14022681  1
  N  N18  1  0.06119780  0.21348215  0.35843691  1
  N  N19  1  0.06119768  0.21348201  0.64156271  1
  N  N20  1  0.58007414  0.81598825  0.35869671  1
  N  N21  1  0.58007413  0.81598830  0.64130281  1
  N  N22  1  0.12538832  0.64362280  0.49999979  1
  N  N23  1  0.51333143  0.38748422  0.49999976  1
