# generated using pymatgen
data_Mg2PN3
_symmetry_space_group_name_H-M   'P 1'
_cell_length_a   4.76843107
_cell_length_b   5.68777028
_cell_length_c   9.78155439
_cell_angle_alpha   90.00005971
_cell_angle_beta   89.99996745
_cell_angle_gamma   90.86636029
_symmetry_Int_Tables_number   1
_chemical_formula_structural   Mg2PN3
_chemical_formula_sum   'Mg8 P4 N12'
_cell_volume   265.26245230
_cell_formula_units_Z   4
loop_
 _symmetry_equiv_pos_site_id
 _symmetry_equiv_pos_as_xyz
  1  'x, y, z'
loop_
 _atom_site_type_symbol
 _atom_site_label
 _atom_site_symmetry_multiplicity
 _atom_site_fract_x
 _atom_site_fract_y
 _atom_site_fract_z
 _atom_site_occupancy
  Mg  Mg0  1  0.09457999  0.34904779  0.16391218  1
  Mg  Mg1  1  0.09457993  0.34904796  0.83608709  1
  Mg  Mg2  1  0.61191566  0.68306701  0.16421576  1
  Mg  Mg3  1  0.61191563  0.68306712  0.83578366  1
  Mg  Mg4  1  0.10854198  0.84935094  0.66381592  1
  Mg  Mg5  1  0.10854203  0.84935101  0.33618352  1
  Mg  Mg6  1  0.60431481  0.18086778  0.66202197  1
  Mg  Mg7  1  0.60431482  0.18086790  0.33797770  1
  P  P8  1  0.13176937  0.85368582  -0.00000139  1
  P  P9  1  0.61621113  0.17929152  -0.00000141  1
  P  P10  1  0.12292403  0.35346826  0.50000106  1
  P  P11  1  0.62608327  0.67754370  0.50000104  1
  N  N12  1  0.99961624  0.12883242  0.99999991  1
  N  N13  1  0.48968384  0.90050118  0.99999988  1
  N  N14  1  0.05826262  0.71109549  0.85909314  1
  N  N15  1  0.05826215  0.71109448  0.14090747  1
  N  N16  1  0.55581658  0.31924075  0.85802058  1
  N  N17  1  0.55581614  0.31924145  0.14197989  1
  N  N18  1  0.04999550  0.21124349  0.35953779  1
  N  N19  1  0.04999609  0.21124443  0.64046053  1
  N  N20  1  0.55438303  0.81877462  0.35953245  1
  N  N21  1  0.55438354  0.81877349  0.64046561  1
  N  N22  1  0.97881252  0.62541691  0.49999956  1
  N  N23  1  0.47703757  0.40511801  0.49999957  1
