# generated using pymatgen
data_Mg2PN3
_symmetry_space_group_name_H-M   'P 1'
_cell_length_a   4.76888189
_cell_length_b   5.70266947
_cell_length_c   9.81083345
_cell_angle_alpha   90.00000944
_cell_angle_beta   89.99999942
_cell_angle_gamma   91.17098807
_symmetry_Int_Tables_number   1
_chemical_formula_structural   Mg2PN3
_chemical_formula_sum   'Mg8 P4 N12'
_cell_volume   266.75339901
_cell_formula_units_Z   4
loop_
 _symmetry_equiv_pos_site_id
 _symmetry_equiv_pos_as_xyz
  1  'x, y, z'
loop_
 _atom_site_type_symbol
 _atom_site_label
 _atom_site_symmetry_multiplicity
 _atom_site_fract_x
 _atom_site_fract_y
 _atom_site_fract_z
 _atom_site_occupancy
  Mg  Mg0  1  0.04955931  0.34941835  0.16321585  1
  Mg  Mg1  1  0.04955930  0.34941836  0.83678361  1
  Mg  Mg2  1  0.54143920  0.68045001  0.16171933  1
  Mg  Mg3  1  0.54143917  0.68045001  0.83828011  1
  Mg  Mg4  1  0.05575905  0.84769554  0.66430992  1
  Mg  Mg5  1  0.05575905  0.84769555  0.33568956  1
  Mg  Mg6  1  0.59580166  0.18308232  0.66422926  1
  Mg  Mg7  1  0.59580168  0.18308235  0.33577021  1
  P  P8  1  0.02074392  0.85359850  -0.00000026  1
  P  P9  1  0.52378169  0.17768893  -0.00000026  1
  P  P10  1  0.13711913  0.34931584  0.49999970  1
  P  P11  1  0.50975520  0.68600139  0.49999982  1
  N  N12  1  0.16984045  0.12553640  0.99999978  1
  N  N13  1  0.66804353  0.90669792  0.99999978  1
  N  N14  1  0.09072994  0.71193865  0.86010719  1
  N  N15  1  0.09072994  0.71193863  0.13989234  1
  N  N16  1  0.59590342  0.31996813  0.85984309  1
  N  N17  1  0.59590344  0.31996816  0.14015645  1
  N  N18  1  0.05793402  0.21003596  0.35895346  1
  N  N19  1  0.05793406  0.21003603  0.64104593  1
  N  N20  1  0.56551292  0.81919699  0.35721635  1
  N  N21  1  0.56551264  0.81919692  0.64278296  1
  N  N22  1  0.08038704  0.63509120  0.49999964  1
  N  N23  1  0.50280868  0.39173141  0.49999966  1
