# generated using pymatgen
data_Mg2PN3
_symmetry_space_group_name_H-M   'P 1'
_cell_length_a   4.76870660
_cell_length_b   5.70034193
_cell_length_c   9.80989544
_cell_angle_alpha   90.00001034
_cell_angle_beta   89.99999679
_cell_angle_gamma   91.06297521
_symmetry_Int_Tables_number   1
_chemical_formula_structural   Mg2PN3
_chemical_formula_sum   'Mg8 P4 N12'
_cell_volume   266.61902975
_cell_formula_units_Z   4
loop_
 _symmetry_equiv_pos_site_id
 _symmetry_equiv_pos_as_xyz
  1  'x, y, z'
loop_
 _atom_site_type_symbol
 _atom_site_label
 _atom_site_symmetry_multiplicity
 _atom_site_fract_x
 _atom_site_fract_y
 _atom_site_fract_z
 _atom_site_occupancy
  Mg  Mg0  1  0.04947741  0.34929307  0.16335488  1
  Mg  Mg1  1  0.04947739  0.34929308  0.83664459  1
  Mg  Mg2  1  0.54168780  0.68043515  0.16153500  1
  Mg  Mg3  1  0.54168779  0.68043516  0.83846446  1
  Mg  Mg4  1  0.06224236  0.84734170  0.66371573  1
  Mg  Mg5  1  0.06224240  0.84734170  0.33628373  1
  Mg  Mg6  1  0.59487681  0.18337496  0.66425588  1
  Mg  Mg7  1  0.59487682  0.18337497  0.33574357  1
  P  P8  1  0.02085923  0.85364869  -0.00000015  1
  P  P9  1  0.52363282  0.17775979  -0.00000017  1
  P  P10  1  0.13037776  0.35291582  0.49999963  1
  P  P11  1  0.57315143  0.68286683  0.49999950  1
  N  N12  1  0.16981724  0.12555731  0.99999975  1
  N  N13  1  0.66808686  0.90670431  0.99999975  1
  N  N14  1  0.09083933  0.71192339  0.86006760  1
  N  N15  1  0.09083928  0.71192346  0.13993179  1
  N  N16  1  0.59575584  0.32004416  0.85984913  1
  N  N17  1  0.59575582  0.32004412  0.14015029  1
  N  N18  1  0.05754904  0.20939492  0.35901508  1
  N  N19  1  0.05754904  0.20939492  0.64098439  1
  N  N20  1  0.56040565  0.82006064  0.35701145  1
  N  N21  1  0.56040594  0.82006080  0.64298820  1
  N  N22  1  0.03258712  0.62944549  0.49999968  1
  N  N23  1  0.49357729  0.39659911  0.49999971  1
