# generated using pymatgen
data_Mg2PN3
_symmetry_space_group_name_H-M   'P 1'
_cell_length_a   4.76788595
_cell_length_b   5.67594797
_cell_length_c   9.75692681
_cell_angle_alpha   89.99999998
_cell_angle_beta   89.99999999
_cell_angle_gamma   90.00000019
_symmetry_Int_Tables_number   1
_chemical_formula_structural   Mg2PN3
_chemical_formula_sum   'Mg8 P4 N12'
_cell_volume   264.04461274
_cell_formula_units_Z   4
loop_
 _symmetry_equiv_pos_site_id
 _symmetry_equiv_pos_as_xyz
  1  'x, y, z'
loop_
 _atom_site_type_symbol
 _atom_site_label
 _atom_site_symmetry_multiplicity
 _atom_site_fract_x
 _atom_site_fract_y
 _atom_site_fract_z
 _atom_site_occupancy
  Mg  Mg0  1  0.07913800  0.34938085  0.16333585  1
  Mg  Mg1  1  0.07913800  0.34938085  0.83666322  1
  Mg  Mg2  1  0.57913800  0.68138878  0.16333586  1
  Mg  Mg3  1  0.57913800  0.68138879  0.83666321  1
  Mg  Mg4  1  0.07913800  0.84938085  0.66333580  1
  Mg  Mg5  1  0.07913800  0.84938086  0.33666317  1
  Mg  Mg6  1  0.57913800  0.18138879  0.66333581  1
  Mg  Mg7  1  0.57913800  0.18138878  0.33666316  1
  P  P8  1  0.09631881  0.85328759  1.00000000  1
  P  P9  1  0.59631881  0.17748204  1.00000000  1
  P  P10  1  0.09631881  0.35328759  0.49999902  1
  P  P11  1  0.59631881  0.67748204  0.49999902  1
  N  N12  1  0.94978001  0.12591552  0.99999943  1
  N  N13  1  0.44978001  0.90485411  0.99999943  1
  N  N14  1  0.02373361  0.71180976  0.85902944  1
  N  N15  1  0.02373380  0.71181013  0.14096911  1
  N  N16  1  0.52373361  0.31895987  0.85902945  1
  N  N17  1  0.52373380  0.31895950  0.14096910  1
  N  N18  1  0.02373380  0.21181013  0.35902992  1
  N  N19  1  0.02373361  0.21180976  0.64096958  1
  N  N20  1  0.52373380  0.81895950  0.35902992  1
  N  N21  1  0.52373361  0.81895987  0.64096957  1
  N  N22  1  0.94978001  0.62591552  0.49999959  1
  N  N23  1  0.44978001  0.40485411  0.49999959  1
