# generated using pymatgen
data_Mg2PN3
_symmetry_space_group_name_H-M   'P 1'
_cell_length_a   4.76879909
_cell_length_b   5.70173010
_cell_length_c   9.81053006
_cell_angle_alpha   90.00000812
_cell_angle_beta   89.99999861
_cell_angle_gamma   91.12126400
_symmetry_Int_Tables_number   1
_chemical_formula_structural   Mg2PN3
_chemical_formula_sum   'Mg8 P4 N12'
_cell_volume   266.70121017
_cell_formula_units_Z   4
loop_
 _symmetry_equiv_pos_site_id
 _symmetry_equiv_pos_as_xyz
  1  'x, y, z'
loop_
 _atom_site_type_symbol
 _atom_site_label
 _atom_site_symmetry_multiplicity
 _atom_site_fract_x
 _atom_site_fract_y
 _atom_site_fract_z
 _atom_site_occupancy
  Mg  Mg0  1  0.04955370  0.34929027  0.16337574  1
  Mg  Mg1  1  0.04955370  0.34929027  0.83662373  1
  Mg  Mg2  1  0.54156130  0.68035236  0.16148409  1
  Mg  Mg3  1  0.54156129  0.68035236  0.83851537  1
  Mg  Mg4  1  0.05926825  0.84712095  0.66370789  1
  Mg  Mg5  1  0.05926828  0.84712096  0.33629156  1
  Mg  Mg6  1  0.59542733  0.18352696  0.66428206  1
  Mg  Mg7  1  0.59542735  0.18352695  0.33571738  1
  P  P8  1  0.02085394  0.85366185  0.99999983  1
  P  P9  1  0.52368147  0.17775686  0.99999982  1
  P  P10  1  0.13309655  0.35197697  0.49999964  1
  P  P11  1  0.54059731  0.68515626  0.49999955  1
  N  N12  1  0.16984369  0.12555519  0.99999974  1
  N  N13  1  0.66807351  0.90671497  0.99999974  1
  N  N14  1  0.09079039  0.71194487  0.86007069  1
  N  N15  1  0.09079035  0.71194492  0.13992870  1
  N  N16  1  0.59584511  0.32003970  0.85986236  1
  N  N17  1  0.59584510  0.32003967  0.14013706  1
  N  N18  1  0.05806083  0.20928245  0.35897542  1
  N  N19  1  0.05806083  0.20928244  0.64102407  1
  N  N20  1  0.56294348  0.82000937  0.35678328  1
  N  N21  1  0.56294353  0.82000948  0.64321631  1
  N  N22  1  0.05574398  0.63127019  0.49999971  1
  N  N23  1  0.49896718  0.39400730  0.49999972  1
