# generated using pymatgen
data_Mg2PN3
_symmetry_space_group_name_H-M   'P 1'
_cell_length_a   4.76819074
_cell_length_b   5.69096750
_cell_length_c   9.79936154
_cell_angle_alpha   90.00000069
_cell_angle_beta   90.00000060
_cell_angle_gamma   90.64782904
_symmetry_Int_Tables_number   1
_chemical_formula_structural   Mg2PN3
_chemical_formula_sum   'Mg8 P4 N12'
_cell_volume   265.89473928
_cell_formula_units_Z   4
loop_
 _symmetry_equiv_pos_site_id
 _symmetry_equiv_pos_as_xyz
  1  'x, y, z'
loop_
 _atom_site_type_symbol
 _atom_site_label
 _atom_site_symmetry_multiplicity
 _atom_site_fract_x
 _atom_site_fract_y
 _atom_site_fract_z
 _atom_site_occupancy
  Mg  Mg0  1  0.05038352  0.34929585  0.16332222  1
  Mg  Mg1  1  0.05038352  0.34929583  0.83667728  1
  Mg  Mg2  1  0.56187606  0.68140576  0.16382249  1
  Mg  Mg3  1  0.56187604  0.68140575  0.83617700  1
  Mg  Mg4  1  0.09818081  0.84968362  0.66260404  1
  Mg  Mg5  1  0.09818081  0.84968362  0.33739539  1
  Mg  Mg6  1  0.59448127  0.18115881  0.66282755  1
  Mg  Mg7  1  0.59448127  0.18115879  0.33717186  1
  P  P8  1  0.02070417  0.85359068  1.00000019  1
  P  P9  1  0.51921253  0.17740652  1.00000002  1
  P  P10  1  0.11958696  0.35315144  0.49999942  1
  P  P11  1  0.62147092  0.67720983  0.49999939  1
  N  N12  1  0.16448386  0.12655028  0.99999967  1
  N  N13  1  0.66263021  0.90553880  0.99999967  1
  N  N14  1  0.08738216  0.71218248  0.85903032  1
  N  N15  1  0.08738201  0.71218285  0.14096868  1
  N  N16  1  0.58997039  0.31915984  0.85921520  1
  N  N17  1  0.58997028  0.31915962  0.14078398  1
  N  N18  1  0.04816555  0.21115426  0.35957760  1
  N  N19  1  0.04816543  0.21115404  0.64042214  1
  N  N20  1  0.55058768  0.81892941  0.35985146  1
  N  N21  1  0.55058755  0.81892966  0.64014832  1
  N  N22  1  0.97428870  0.62455373  0.49999978  1
  N  N23  1  0.47332676  0.40529208  0.49999977  1
