# generated using pymatgen
data_Mg2PN3
_symmetry_space_group_name_H-M   'P 1'
_cell_length_a   4.76856842
_cell_length_b   5.69751007
_cell_length_c   9.80768436
_cell_angle_alpha   90.00000925
_cell_angle_beta   89.99999503
_cell_angle_gamma   90.96936889
_symmetry_Int_Tables_number   1
_chemical_formula_structural   Mg2PN3
_chemical_formula_sum   'Mg8 P4 N12'
_cell_volume   266.42651277
_cell_formula_units_Z   4
loop_
 _symmetry_equiv_pos_site_id
 _symmetry_equiv_pos_as_xyz
  1  'x, y, z'
loop_
 _atom_site_type_symbol
 _atom_site_label
 _atom_site_symmetry_multiplicity
 _atom_site_fract_x
 _atom_site_fract_y
 _atom_site_fract_z
 _atom_site_occupancy
  Mg  Mg0  1  0.04923773  0.34804833  0.16405413  1
  Mg  Mg1  1  0.04923772  0.34804835  0.83594523  1
  Mg  Mg2  1  0.57606808  0.68262608  0.16401663  1
  Mg  Mg3  1  0.57606812  0.68262606  0.83598272  1
  Mg  Mg4  1  0.10103391  0.85009348  0.66183358  1
  Mg  Mg5  1  0.10103392  0.85009345  0.33816599  1
  Mg  Mg6  1  0.59390591  0.18139224  0.66319348  1
  Mg  Mg7  1  0.59390592  0.18139227  0.33680609  1
  P  P8  1  0.03789292  0.85121017  0.99999792  1
  P  P9  1  0.51506837  0.17750192  0.99999885  1
  P  P10  1  0.11956182  0.35305110  0.50000065  1
  P  P11  1  0.62229210  0.67715823  0.50000072  1
  N  N12  1  0.15567424  0.13076445  0.99999993  1
  N  N13  1  0.63817764  0.90269103  0.99999994  1
  N  N14  1  0.08397010  0.71141869  0.85783658  1
  N  N15  1  0.08397050  0.71141729  0.14216462  1
  N  N16  1  0.58650755  0.32049855  0.85912668  1
  N  N17  1  0.58650789  0.32049924  0.14087362  1
  N  N18  1  0.04758470  0.21079216  0.35979547  1
  N  N19  1  0.04758507  0.21079284  0.64020307  1
  N  N20  1  0.55202628  0.81888049  0.36005330  1
  N  N21  1  0.55202665  0.81887976  0.63994515  1
  N  N22  1  0.97500847  0.62415168  0.49999955  1
  N  N23  1  0.47341287  0.40520571  0.49999957  1
