# generated using pymatgen
data_Mg2PN3
_symmetry_space_group_name_H-M   'P 1'
_cell_length_a   4.76857078
_cell_length_b   5.69175879
_cell_length_c   9.78624976
_cell_angle_alpha   90.00001721
_cell_angle_beta   89.99999453
_cell_angle_gamma   90.97104307
_symmetry_Int_Tables_number   1
_chemical_formula_structural   Mg2PN3
_chemical_formula_sum   'Mg8 P4 N12'
_cell_volume   265.57588703
_cell_formula_units_Z   4
loop_
 _symmetry_equiv_pos_site_id
 _symmetry_equiv_pos_as_xyz
  1  'x, y, z'
loop_
 _atom_site_type_symbol
 _atom_site_label
 _atom_site_symmetry_multiplicity
 _atom_site_fract_x
 _atom_site_fract_y
 _atom_site_fract_z
 _atom_site_occupancy
  Mg  Mg0  1  0.08949753  0.34858401  0.16389349  1
  Mg  Mg1  1  0.08949750  0.34858409  0.83610602  1
  Mg  Mg2  1  0.61313641  0.68387290  0.16447247  1
  Mg  Mg3  1  0.61313640  0.68387296  0.83552701  1
  Mg  Mg4  1  0.10862787  0.84928288  0.66403397  1
  Mg  Mg5  1  0.10862786  0.84928291  0.33596545  1
  Mg  Mg6  1  0.60390451  0.18051394  0.66160277  1
  Mg  Mg7  1  0.60390451  0.18051398  0.33839668  1
  P  P8  1  0.13384689  0.85336606  0.99999994  1
  P  P9  1  0.59014738  0.18195993  1.00000026  1
  P  P10  1  0.12262945  0.35359607  0.49999931  1
  P  P11  1  0.62625890  0.67760571  0.49999918  1
  N  N12  1  0.02414348  0.12989529  -0.00000032  1
  N  N13  1  0.49516120  0.89712398  -0.00000031  1
  N  N14  1  0.05934468  0.71011386  0.85899459  1
  N  N15  1  0.05934478  0.71011402  0.14100470  1
  N  N16  1  0.55614737  0.32019880  0.85703561  1
  N  N17  1  0.55614758  0.32019838  0.14296333  1
  N  N18  1  0.04961264  0.21122026  0.35964663  1
  N  N19  1  0.04961251  0.21121996  0.64035325  1
  N  N20  1  0.55461814  0.81878738  0.35963433  1
  N  N21  1  0.55461790  0.81878783  0.64036558  1
  N  N22  1  0.97886240  0.62537017  0.49999975  1
  N  N23  1  0.47693059  0.40516818  0.49999978  1
