# generated using pymatgen
data_Mg2PN3
_symmetry_space_group_name_H-M   'P 1'
_cell_length_a   4.76887805
_cell_length_b   5.70250824
_cell_length_c   9.81090511
_cell_angle_alpha   89.99999681
_cell_angle_beta   90.00000090
_cell_angle_gamma   91.16873365
_symmetry_Int_Tables_number   1
_chemical_formula_structural   Mg2PN3
_chemical_formula_sum   'Mg8 P4 N12'
_cell_volume   266.74780544
_cell_formula_units_Z   4
loop_
 _symmetry_equiv_pos_site_id
 _symmetry_equiv_pos_as_xyz
  1  'x, y, z'
loop_
 _atom_site_type_symbol
 _atom_site_label
 _atom_site_symmetry_multiplicity
 _atom_site_fract_x
 _atom_site_fract_y
 _atom_site_fract_z
 _atom_site_occupancy
  Mg  Mg0  1  0.04743175  0.34766833  0.16424181  1
  Mg  Mg1  1  0.04743175  0.34766832  0.83575768  1
  Mg  Mg2  1  0.58723940  0.68311911  0.16425386  1
  Mg  Mg3  1  0.58723941  0.68311910  0.83574563  1
  Mg  Mg4  1  0.10175901  0.85033753  0.66169912  1
  Mg  Mg5  1  0.10175901  0.85033754  0.33830030  1
  Mg  Mg6  1  0.59363497  0.18135049  0.66322887  1
  Mg  Mg7  1  0.59363497  0.18135048  0.33677054  1
  P  P8  1  0.13096924  0.84483761  0.00000054  1
  P  P9  1  0.50632727  0.18116658  0.00000007  1
  P  P10  1  0.11940673  0.35308053  0.49999938  1
  P  P11  1  0.62242425  0.67715821  0.49999935  1
  N  N12  1  0.14051577  0.13890643  0.99999962  1
  N  N13  1  0.56459478  0.89596985  0.99999962  1
  N  N14  1  0.07760790  0.71153619  0.85716577  1
  N  N15  1  0.07760810  0.71153685  0.14283285  1
  N  N16  1  0.58515562  0.32077626  0.85895403  1
  N  N17  1  0.58515545  0.32077595  0.14104507  1
  N  N18  1  0.04726898  0.21080387  0.35984604  1
  N  N19  1  0.04726884  0.21080358  0.64015380  1
  N  N20  1  0.55242228  0.81881448  0.36010398  1
  N  N21  1  0.55242213  0.81881478  0.63989589  1
  N  N22  1  0.97513824  0.62408329  0.49999982  1
  N  N23  1  0.47334261  0.40521820  0.49999981  1
