# generated using pymatgen
data_Mg2PN3
_symmetry_space_group_name_H-M   'P 1'
_cell_length_a   4.76788596
_cell_length_b   5.67595284
_cell_length_c   9.75696453
_cell_angle_alpha   89.99999863
_cell_angle_beta   89.99999991
_cell_angle_gamma   90.00394170
_symmetry_Int_Tables_number   1
_chemical_formula_structural   Mg2PN3
_chemical_formula_sum   'Mg8 P4 N12'
_cell_volume   264.04586019
_cell_formula_units_Z   4
loop_
 _symmetry_equiv_pos_site_id
 _symmetry_equiv_pos_as_xyz
  1  'x, y, z'
loop_
 _atom_site_type_symbol
 _atom_site_label
 _atom_site_symmetry_multiplicity
 _atom_site_fract_x
 _atom_site_fract_y
 _atom_site_fract_z
 _atom_site_occupancy
  Mg  Mg0  1  0.04145986  0.34939029  0.16333544  1
  Mg  Mg1  1  0.04145985  0.34939032  0.83666396  1
  Mg  Mg2  1  0.54145642  0.68139863  0.16333596  1
  Mg  Mg3  1  0.54145642  0.68139860  0.83666345  1
  Mg  Mg4  1  0.04144866  0.84938954  0.66333639  1
  Mg  Mg5  1  0.04144866  0.84938951  0.33666332  1
  Mg  Mg6  1  0.54145573  0.18139767  0.66333688  1
  Mg  Mg7  1  0.54145574  0.18139770  0.33666283  1
  P  P8  1  0.02427337  0.85329817  0.99999834  1
  P  P9  1  0.52428140  0.17749290  0.99999834  1
  P  P10  1  0.02426149  0.35329758  0.50000122  1
  P  P11  1  0.52426651  0.67749115  0.50000122  1
  N  N12  1  0.17081870  0.12592749  -0.00000001  1
  N  N13  1  0.67081468  0.90486731  -0.00000001  1
  N  N14  1  0.09685602  0.71182258  0.85903138  1
  N  N15  1  0.09685655  0.71182152  0.14096956  1
  N  N16  1  0.59686590  0.31897121  0.85903051  1
  N  N17  1  0.59686643  0.31897226  0.14097041  1
  N  N18  1  0.09684740  0.21182139  0.35902984  1
  N  N19  1  0.09684687  0.21182244  0.64096835  1
  N  N20  1  0.59685324  0.81897017  0.35902905  1
  N  N21  1  0.59685272  0.81896911  0.64096913  1
  N  N22  1  0.17080278  0.62592821  0.49999957  1
  N  N23  1  0.67080061  0.40486498  0.49999957  1
