# generated using pymatgen
data_Mg2PN3
_symmetry_space_group_name_H-M   'P 1'
_cell_length_a   4.76788596
_cell_length_b   5.67595263
_cell_length_c   9.75696268
_cell_angle_alpha   89.99999733
_cell_angle_beta   89.99999975
_cell_angle_gamma   90.00373270
_symmetry_Int_Tables_number   1
_chemical_formula_structural   Mg2PN3
_chemical_formula_sum   'Mg8 P4 N12'
_cell_volume   264.04580054
_cell_formula_units_Z   4
loop_
 _symmetry_equiv_pos_site_id
 _symmetry_equiv_pos_as_xyz
  1  'x, y, z'
loop_
 _atom_site_type_symbol
 _atom_site_label
 _atom_site_symmetry_multiplicity
 _atom_site_fract_x
 _atom_site_fract_y
 _atom_site_fract_z
 _atom_site_occupancy
  Mg  Mg0  1  0.10182731  0.34937119  0.16333664  1
  Mg  Mg1  1  0.10182731  0.34937120  0.83666269  1
  Mg  Mg2  1  0.60183408  0.68137938  0.16333620  1
  Mg  Mg3  1  0.60183408  0.68137937  0.83666315  1
  Mg  Mg4  1  0.10182703  0.84937035  0.66333596  1
  Mg  Mg5  1  0.10182702  0.84937034  0.33666340  1
  Mg  Mg6  1  0.60182394  0.18137861  0.66333544  1
  Mg  Mg7  1  0.60182393  0.18137862  0.33666393  1
  P  P8  1  0.11901583  0.85327779  -0.00000040  1
  P  P9  1  0.61902054  0.17747135  -0.00000040  1
  P  P10  1  0.11900230  0.35327619  0.49999975  1
  P  P11  1  0.61900990  0.67747077  0.49999975  1
  N  N12  1  0.97248174  0.12590409  0.99999965  1
  N  N13  1  0.47247961  0.90484081  0.99999965  1
  N  N14  1  0.04642960  0.71179928  0.85902965  1
  N  N15  1  0.04642960  0.71179928  0.14096971  1
  N  N16  1  0.54643518  0.31894712  0.85903037  1
  N  N17  1  0.54643518  0.31894711  0.14096897  1
  N  N18  1  0.04641764  0.21179738  0.35902974  1
  N  N19  1  0.04641764  0.21179737  0.64096962  1
  N  N20  1  0.54642694  0.81894699  0.35903056  1
  N  N21  1  0.54642695  0.81894698  0.64096879  1
  N  N22  1  0.97246886  0.62590190  0.49999971  1
  N  N23  1  0.47246509  0.40484152  0.49999970  1
