# generated using pymatgen
data_Mg2PN3
_symmetry_space_group_name_H-M   'P 1'
_cell_length_a   4.76796543
_cell_length_b   5.67777903
_cell_length_c   9.76295479
_cell_angle_alpha   89.99993639
_cell_angle_beta   89.99999941
_cell_angle_gamma   90.33083098
_symmetry_Int_Tables_number   1
_chemical_formula_structural   Mg2PN3
_chemical_formula_sum   'Mg8 P4 N12'
_cell_volume   264.29297705
_cell_formula_units_Z   4
loop_
 _symmetry_equiv_pos_site_id
 _symmetry_equiv_pos_as_xyz
  1  'x, y, z'
loop_
 _atom_site_type_symbol
 _atom_site_label
 _atom_site_symmetry_multiplicity
 _atom_site_fract_x
 _atom_site_fract_y
 _atom_site_fract_z
 _atom_site_occupancy
  Mg  Mg0  1  0.03562429  0.34935411  0.16316089  1
  Mg  Mg1  1  0.03562429  0.34935426  0.83683834  1
  Mg  Mg2  1  0.53471496  0.68133664  0.16336934  1
  Mg  Mg3  1  0.53471502  0.68133677  0.83663020  1
  Mg  Mg4  1  0.03389817  0.84914990  0.66344429  1
  Mg  Mg5  1  0.03389812  0.84915005  0.33655509  1
  Mg  Mg6  1  0.53625060  0.18127910  0.66347175  1
  Mg  Mg7  1  0.53625061  0.18127926  0.33652791  1
  P  P8  1  0.01737229  0.85328408  0.99999907  1
  P  P9  1  0.51826035  0.17747509  0.99999897  1
  P  P10  1  0.01642052  0.35319771  0.50000053  1
  P  P11  1  0.51612843  0.67729031  0.50000040  1
  N  N12  1  0.16463125  0.12594573  0.99999986  1
  N  N13  1  0.66413513  0.90506142  0.99999983  1
  N  N14  1  0.08968156  0.71193332  0.85913694  1
  N  N15  1  0.08968180  0.71193263  0.14086336  1
  N  N16  1  0.59086432  0.31912033  0.85909806  1
  N  N17  1  0.59086461  0.31912074  0.14090193  1
  N  N18  1  0.08884778  0.21197829  0.35901584  1
  N  N19  1  0.08884747  0.21197870  0.64098304  1
  N  N20  1  0.58888979  0.81885445  0.35903370  1
  N  N21  1  0.58888954  0.81885374  0.64096492  1
  N  N22  1  0.16221257  0.62634837  0.49999962  1
  N  N23  1  0.66199520  0.40464099  0.49999960  1
