# generated using pymatgen
data_Mg2PN3
_symmetry_space_group_name_H-M   'P 1'
_cell_length_a   4.76980417
_cell_length_b   5.69292303
_cell_length_c   9.80753215
_cell_angle_alpha   90.00001992
_cell_angle_beta   89.99995634
_cell_angle_gamma   91.62499154
_symmetry_Int_Tables_number   1
_chemical_formula_structural   Mg2PN3
_chemical_formula_sum   'Mg8 P4 N12'
_cell_volume   266.20788232
_cell_formula_units_Z   4
loop_
 _symmetry_equiv_pos_site_id
 _symmetry_equiv_pos_as_xyz
  1  'x, y, z'
loop_
 _atom_site_type_symbol
 _atom_site_label
 _atom_site_symmetry_multiplicity
 _atom_site_fract_x
 _atom_site_fract_y
 _atom_site_fract_z
 _atom_site_occupancy
  Mg  Mg0  1  0.04880319  0.34987536  0.16466468  1
  Mg  Mg1  1  0.04880315  0.34987537  0.83533462  1
  Mg  Mg2  1  0.61120496  0.68265107  0.16491705  1
  Mg  Mg3  1  0.61120495  0.68265089  0.83508198  1
  Mg  Mg4  1  0.10697525  0.84990505  0.66309527  1
  Mg  Mg5  1  0.10697519  0.84990490  0.33690456  1
  Mg  Mg6  1  0.59568130  0.18047381  0.66228342  1
  Mg  Mg7  1  0.59568133  0.18047377  0.33771619  1
  P  P8  1  0.15712088  0.84464848  -0.00000310  1
  P  P9  1  0.49254119  0.18654656  -0.00000354  1
  P  P10  1  0.12013459  0.35341681  0.50000250  1
  P  P11  1  0.62491176  0.67711992  0.50000207  1
  N  N12  1  0.13069634  0.14332939  1.00000024  1
  N  N13  1  0.51869931  0.88719520  1.00000026  1
  N  N14  1  0.06393490  0.71471796  0.85869239  1
  N  N15  1  0.06393346  0.71471614  0.14130965  1
  N  N16  1  0.58287060  0.31724473  0.85848992  1
  N  N17  1  0.58287231  0.31724705  0.14151266  1
  N  N18  1  0.04721146  0.21104985  0.35976188  1
  N  N19  1  0.04721263  0.21105200  0.64023479  1
  N  N20  1  0.55415321  0.81788683  0.35990712  1
  N  N21  1  0.55415392  0.81788522  0.64009018  1
  N  N22  1  0.97734028  0.62484929  0.49999934  1
  N  N23  1  0.47464231  0.40451790  0.49999934  1
