# generated using pymatgen
data_Mg2PN3
_symmetry_space_group_name_H-M   'P 1'
_cell_length_a   4.76788595
_cell_length_b   5.67594819
_cell_length_c   9.75692944
_cell_angle_alpha   89.99999997
_cell_angle_beta   89.99999996
_cell_angle_gamma   90.00004233
_symmetry_Int_Tables_number   1
_chemical_formula_structural   Mg2PN3
_chemical_formula_sum   'Mg8 P4 N12'
_cell_volume   264.04469428
_cell_formula_units_Z   4
loop_
 _symmetry_equiv_pos_site_id
 _symmetry_equiv_pos_as_xyz
  1  'x, y, z'
loop_
 _atom_site_type_symbol
 _atom_site_label
 _atom_site_symmetry_multiplicity
 _atom_site_fract_x
 _atom_site_fract_y
 _atom_site_fract_z
 _atom_site_occupancy
  Mg  Mg0  1  0.04900462  0.34938396  0.16333616  1
  Mg  Mg1  1  0.04900462  0.34938396  0.83666354  1
  Mg  Mg2  1  0.54900462  0.68139206  0.16333616  1
  Mg  Mg3  1  0.54900461  0.68139206  0.83666354  1
  Mg  Mg4  1  0.04900455  0.84938396  0.66333613  1
  Mg  Mg5  1  0.04900456  0.84938396  0.33666351  1
  Mg  Mg6  1  0.54900457  0.18139205  0.66333613  1
  Mg  Mg7  1  0.54900458  0.18139205  0.33666351  1
  P  P8  1  0.03182352  0.85329074  1.00000010  1
  P  P9  1  0.53182360  0.17748532  1.00000010  1
  P  P10  1  0.03182343  0.35329074  0.49999957  1
  P  P11  1  0.53182350  0.67748531  0.49999957  1
  N  N12  1  0.17836257  0.12591860  0.99999979  1
  N  N13  1  0.67836253  0.90485752  0.99999979  1
  N  N14  1  0.10440858  0.71181303  0.85902990  1
  N  N15  1  0.10440847  0.71181323  0.14096952  1
  N  N16  1  0.60440866  0.31896304  0.85902988  1
  N  N17  1  0.60440856  0.31896284  0.14096953  1
  N  N18  1  0.10440841  0.21181322  0.35903015  1
  N  N19  1  0.10440850  0.21181302  0.64096977  1
  N  N20  1  0.60440848  0.81896282  0.35903014  1
  N  N21  1  0.60440858  0.81896302  0.64096979  1
  N  N22  1  0.17836247  0.62591860  0.49999988  1
  N  N23  1  0.67836244  0.40485750  0.49999988  1
