# generated using pymatgen
data_Sc13Al23N36
_symmetry_space_group_name_H-M   'P 1'
_cell_length_a   10.04487470
_cell_length_b   10.08424792
_cell_length_c   10.06186807
_cell_angle_alpha   90.07441675
_cell_angle_beta   90.16058535
_cell_angle_gamma   59.97554898
_symmetry_Int_Tables_number   1
_chemical_formula_structural   Sc13Al23N36
_chemical_formula_sum   'Sc13 Al23 N36'
_cell_volume   882.44678046
_cell_formula_units_Z   1
loop_
 _symmetry_equiv_pos_site_id
 _symmetry_equiv_pos_as_xyz
  1  'x, y, z'
loop_
 _atom_site_type_symbol
 _atom_site_label
 _atom_site_symmetry_multiplicity
 _atom_site_fract_x
 _atom_site_fract_y
 _atom_site_fract_z
 _atom_site_occupancy
  Al  Al0  1  0.10574431  0.08904168  0.31176773  1
  Al  Al1  1  0.21829013  0.20907109  0.12812433  1
  Al  Al2  1  0.77727455  0.09931679  0.81185495  1
  Al  Al3  1  0.89557015  0.20490834  0.57188144  1
  Al  Al4  1  0.54462030  0.21983016  0.14166376  1
  Al  Al5  1  0.22998621  0.20756965  0.64230052  1
  Al  Al6  1  0.87381936  0.20943875  0.06922290  1
  Al  Al7  1  0.54785224  0.21778554  0.62756346  1
  Al  Al8  1  0.22669157  0.53673393  0.13388419  1
  Al  Al9  1  0.43394396  0.44063736  0.38444000  1
  Al  Al10  1  0.55320967  0.54066268  0.07225680  1
  Al  Al11  1  0.23138761  0.53884789  0.63059403  1
  Al  Al12  1  0.88193500  0.54122060  0.06363658  1
  Al  Al13  1  0.44216826  0.43330291  0.88261663  1
  Al  Al14  1  0.55573556  0.53902368  0.56997300  1
  Al  Al15  1  0.11204061  0.75879908  0.37839802  1
  Al  Al16  1  0.76981624  0.76684295  0.82154455  1
  Al  Al17  1  0.89305858  0.86996542  0.63110651  1
  Al  Al18  1  0.44381487  0.75624173  0.32364955  1
  Al  Al19  1  0.56062803  0.85652335  0.07227110  1
  Al  Al20  1  0.12120816  0.75339202  0.87544751  1
  Al  Al21  1  0.45007222  0.75339735  0.82167308  1
  Al  Al22  1  0.55608413  0.86853786  0.57832646  1
  Sc  Sc23  1  0.43664298  0.09356267  0.36951739  1
  Sc  Sc24  1  0.10876282  0.09408183  0.84810820  1
  Sc  Sc25  1  0.77717673  0.09450645  0.35150090  1
  Sc  Sc26  1  0.46044741  0.09275966  0.87335272  1
  Sc  Sc27  1  0.12256427  0.42425027  0.37164905  1
  Sc  Sc28  1  0.76356607  0.42640870  0.83464585  1
  Sc  Sc29  1  0.89001956  0.53522413  0.60101746  1
  Sc  Sc30  1  0.12167454  0.43776239  0.87228983  1
  Sc  Sc31  1  0.77562553  0.42475098  0.32406258  1
  Sc  Sc32  1  0.22974178  0.86161986  0.09117137  1
  Sc  Sc33  1  0.22560333  0.87626788  0.58621234  1
  Sc  Sc34  1  0.77617485  0.75514581  0.33359558  1
  Sc  Sc35  1  0.88389017  0.87600131  0.09941106  1
  N  N36  1  0.21032331  0.19649902  0.31772825  1
  N  N37  1  0.09439927  0.10815468  0.10766264  1
  N  N38  1  0.87455969  0.19447573  0.88290790  1
  N  N39  1  0.78281700  0.09207247  0.60863517  1
  N  N40  1  0.53059855  0.23550177  0.33208666  1
  N  N41  1  0.44802004  0.09000343  0.09768571  1
  N  N42  1  0.23146531  0.20871325  0.83441402  1
  N  N43  1  0.10387114  0.11347164  0.62890897  1
  N  N44  1  0.91014327  0.19488266  0.38383233  1
  N  N45  1  0.76127235  0.11901753  0.12902010  1
  N  N46  1  0.56118248  0.22699254  0.81797745  1
  N  N47  1  0.44702056  0.09373536  0.59840414  1
  N  N48  1  0.23122269  0.55444972  0.32087122  1
  N  N49  1  0.11007330  0.42939452  0.09369753  1
  N  N50  1  0.87989375  0.55559561  0.86230357  1
  N  N51  1  0.76490603  0.41387761  0.62047014  1
  N  N52  1  0.53982286  0.55099111  0.37866876  1
  N  N53  1  0.43847362  0.42527355  0.07635647  1
  N  N54  1  0.23875175  0.55079424  0.81630513  1
  N  N55  1  0.13780182  0.41733146  0.59512858  1
  N  N56  1  0.88944132  0.53254227  0.39135878  1
  N  N57  1  0.77618531  0.42823015  0.10299670  1
  N  N58  1  0.53499234  0.55385232  0.88426879  1
  N  N59  1  0.44114352  0.43052280  0.57614265  1
  N  N60  1  0.22124828  0.87260961  0.35247886  1
  N  N61  1  0.12040654  0.73448874  0.06267327  1
  N  N62  1  0.89018118  0.87494964  0.83700517  1
  N  N63  1  0.76596448  0.78115583  0.62752340  1
  N  N64  1  0.54410394  0.85715551  0.39004627  1
  N  N65  1  0.46582803  0.74598437  0.13479584  1
  N  N66  1  0.23533890  0.85622199  0.85950122  1
  N  N67  1  0.10209418  0.75150978  0.57355977  1
  N  N68  1  0.90957538  0.85999290  0.32027501  1
  N  N69  1  0.76997701  0.74665880  0.11878451  1
  N  N70  1  0.56374528  0.85035072  0.88086116  1
  N  N71  1  0.46716378  0.74712021  0.63337416  1
