# generated using pymatgen
data_Sc13Al23N36
_symmetry_space_group_name_H-M   'P 1'
_cell_length_a   10.13106348
_cell_length_b   10.17573620
_cell_length_c   9.80703653
_cell_angle_alpha   90.41492408
_cell_angle_beta   89.97289011
_cell_angle_gamma   59.77428395
_symmetry_Int_Tables_number   1
_chemical_formula_structural   Sc13Al23N36
_chemical_formula_sum   'Sc13 Al23 N36'
_cell_volume   873.53576566
_cell_formula_units_Z   1
loop_
 _symmetry_equiv_pos_site_id
 _symmetry_equiv_pos_as_xyz
  1  'x, y, z'
loop_
 _atom_site_type_symbol
 _atom_site_label
 _atom_site_symmetry_multiplicity
 _atom_site_fract_x
 _atom_site_fract_y
 _atom_site_fract_z
 _atom_site_occupancy
  Al  Al0  1  0.11707624  0.09006499  0.39263905  1
  Al  Al1  1  0.21208004  0.20615898  0.12976573  1
  Al  Al2  1  0.77205657  0.09980063  0.81675533  1
  Al  Al3  1  0.88717913  0.20645622  0.58162177  1
  Al  Al4  1  0.54604826  0.22062957  0.13953281  1
  Al  Al5  1  0.23362195  0.20596073  0.63476196  1
  Al  Al6  1  0.87877986  0.20778646  0.06622155  1
  Al  Al7  1  0.54798372  0.21623776  0.62294698  1
  Al  Al8  1  0.22613217  0.54046216  0.13414445  1
  Al  Al9  1  0.43754868  0.44236597  0.38004163  1
  Al  Al10  1  0.54809907  0.54106294  0.10354808  1
  Al  Al11  1  0.23028312  0.53708096  0.62977587  1
  Al  Al12  1  0.88363813  0.54327906  0.06847575  1
  Al  Al13  1  0.44214661  0.43345193  0.88438720  1
  Al  Al14  1  0.55560767  0.53325164  0.61410016  1
  Al  Al15  1  0.11121115  0.75889073  0.38296623  1
  Al  Al16  1  0.76909203  0.76798483  0.82373646  1
  Al  Al17  1  0.89041078  0.87008786  0.63126717  1
  Al  Al18  1  0.44447056  0.75564840  0.32507723  1
  Al  Al19  1  0.55791029  0.85984453  0.07498070  1
  Al  Al20  1  0.12318179  0.75289752  0.87572382  1
  Al  Al21  1  0.44890765  0.75535917  0.82946450  1
  Al  Al22  1  0.55547406  0.86872714  0.57803370  1
  Sc  Sc23  1  0.44102186  0.09030439  0.35839873  1
  Sc  Sc24  1  0.11075634  0.09290480  0.85406929  1
  Sc  Sc25  1  0.77910248  0.09503808  0.35186718  1
  Sc  Sc26  1  0.45759619  0.09300570  0.86927341  1
  Sc  Sc27  1  0.12334333  0.42447405  0.36569899  1
  Sc  Sc28  1  0.76599014  0.42954810  0.85033611  1
  Sc  Sc29  1  0.89185679  0.53420517  0.60512445  1
  Sc  Sc30  1  0.12351728  0.43420618  0.87080802  1
  Sc  Sc31  1  0.77999689  0.42190151  0.32837355  1
  Sc  Sc32  1  0.21493451  0.87758002  0.11822786  1
  Sc  Sc33  1  0.22991500  0.86117882  0.60752199  1
  Sc  Sc34  1  0.77885773  0.75567384  0.34107810  1
  Sc  Sc35  1  0.88250750  0.87550841  0.09636318  1
  N  N36  1  0.20999735  0.19195557  0.32405476  1
  N  N37  1  0.09716949  0.11381428  0.07811415  1
  N  N38  1  0.87467841  0.19452540  0.87047754  1
  N  N39  1  0.78059571  0.09076742  0.60880756  1
  N  N40  1  0.53287923  0.23425370  0.33589688  1
  N  N41  1  0.44683897  0.09244084  0.10179621  1
  N  N42  1  0.23023322  0.20659604  0.82818747  1
  N  N43  1  0.11212648  0.10812726  0.60033244  1
  N  N44  1  0.90677387  0.19570291  0.38748308  1
  N  N45  1  0.76283961  0.11931477  0.12234978  1
  N  N46  1  0.55734987  0.22705790  0.81959890  1
  N  N47  1  0.44997177  0.09231159  0.59670705  1
  N  N48  1  0.23104161  0.55522857  0.32600602  1
  N  N49  1  0.11091372  0.42988643  0.09999910  1
  N  N50  1  0.88297890  0.55776289  0.86116827  1
  N  N51  1  0.76672859  0.41498909  0.62366876  1
  N  N52  1  0.54057742  0.54360089  0.33230876  1
  N  N53  1  0.43783457  0.42662636  0.07918214  1
  N  N54  1  0.23821220  0.54837622  0.82065108  1
  N  N55  1  0.13959268  0.41596183  0.59516467  1
  N  N56  1  0.89224211  0.53195699  0.38988438  1
  N  N57  1  0.77841997  0.42844221  0.09748588  1
  N  N58  1  0.53371469  0.55102673  0.86968486  1
  N  N59  1  0.44321755  0.43431515  0.57664561  1
  N  N60  1  0.22197310  0.87102097  0.35982047  1
  N  N61  1  0.12121597  0.73991296  0.06689250  1
  N  N62  1  0.88575288  0.87633109  0.84152686  1
  N  N63  1  0.76592489  0.78096340  0.62319562  1
  N  N64  1  0.54465628  0.85590985  0.38568281  1
  N  N65  1  0.45359532  0.75839863  0.12621992  1
  N  N66  1  0.23080575  0.85585665  0.83896389  1
  N  N67  1  0.09949831  0.74853491  0.57991674  1
  N  N68  1  0.91001139  0.86119206  0.32362155  1
  N  N69  1  0.76755822  0.74902145  0.11968916  1
  N  N70  1  0.56259452  0.85206646  0.87901171  1
  N  N71  1  0.47143613  0.74493160  0.63159199  1
