# generated using pymatgen
data_Sc13Al23N36
_symmetry_space_group_name_H-M   'P 1'
_cell_length_a   10.12654684
_cell_length_b   10.16689030
_cell_length_c   9.78146936
_cell_angle_alpha   90.10442230
_cell_angle_beta   90.19560731
_cell_angle_gamma   59.96514779
_symmetry_Int_Tables_number   1
_chemical_formula_structural   Sc13Al23N36
_chemical_formula_sum   'Sc13 Al23 N36'
_cell_volume   871.82452255
_cell_formula_units_Z   1
loop_
 _symmetry_equiv_pos_site_id
 _symmetry_equiv_pos_as_xyz
  1  'x, y, z'
loop_
 _atom_site_type_symbol
 _atom_site_label
 _atom_site_symmetry_multiplicity
 _atom_site_fract_x
 _atom_site_fract_y
 _atom_site_fract_z
 _atom_site_occupancy
  Al  Al0  1  0.10693796  0.09005128  0.31156842  1
  Al  Al1  1  0.21879442  0.20855161  0.09827771  1
  Al  Al2  1  0.77469207  0.09965389  0.81413150  1
  Al  Al3  1  0.89525084  0.20578263  0.57422156  1
  Al  Al4  1  0.54865751  0.21975340  0.13868276  1
  Al  Al5  1  0.22760462  0.20487971  0.60546242  1
  Al  Al6  1  0.87453654  0.20923964  0.07064635  1
  Al  Al7  1  0.54663818  0.21834541  0.62229238  1
  Al  Al8  1  0.22732347  0.53927684  0.13033130  1
  Al  Al9  1  0.43408077  0.44087611  0.38135784  1
  Al  Al10  1  0.55283426  0.54112433  0.07478237  1
  Al  Al11  1  0.23156933  0.53820411  0.62828954  1
  Al  Al12  1  0.88327008  0.54243395  0.06562135  1
  Al  Al13  1  0.44278264  0.43245529  0.88008564  1
  Al  Al14  1  0.55449456  0.53925770  0.57094878  1
  Al  Al15  1  0.11284039  0.75933380  0.37772560  1
  Al  Al16  1  0.76955485  0.76710649  0.82170765  1
  Al  Al17  1  0.89151662  0.87075879  0.62744324  1
  Al  Al18  1  0.44355328  0.75636776  0.32496568  1
  Al  Al19  1  0.56255738  0.85624163  0.07315468  1
  Al  Al20  1  0.12126936  0.75306446  0.87142086  1
  Al  Al21  1  0.45043250  0.75233012  0.82233420  1
  Al  Al22  1  0.55338554  0.87052068  0.57747699  1
  Sc  Sc23  1  0.44081726  0.08926628  0.34454799  1
  Sc  Sc24  1  0.10838777  0.09445855  0.85101132  1
  Sc  Sc25  1  0.77881237  0.09411333  0.35412360  1
  Sc  Sc26  1  0.45859826  0.09061745  0.86235279  1
  Sc  Sc27  1  0.11900474  0.42621475  0.35160466  1
  Sc  Sc28  1  0.76385102  0.42698363  0.83760248  1
  Sc  Sc29  1  0.89056282  0.53529356  0.60144696  1
  Sc  Sc30  1  0.12109369  0.43506699  0.86201806  1
  Sc  Sc31  1  0.77526330  0.42452130  0.32856555  1
  Sc  Sc32  1  0.22907968  0.86185556  0.09500253  1
  Sc  Sc33  1  0.22507228  0.87462894  0.59392815  1
  Sc  Sc34  1  0.77696089  0.75683826  0.33932196  1
  Sc  Sc35  1  0.88394709  0.87602697  0.09664095  1
  N  N36  1  0.21106797  0.19490627  0.32798624  1
  N  N37  1  0.09362131  0.10700424  0.10781822  1
  N  N38  1  0.87451560  0.19478626  0.87808299  1
  N  N39  1  0.78249089  0.09227310  0.60641568  1
  N  N40  1  0.53365989  0.23469396  0.33672063  1
  N  N41  1  0.45638403  0.08551843  0.10494224  1
  N  N42  1  0.22843870  0.20525487  0.88724418  1
  N  N43  1  0.10533344  0.11613047  0.62853446  1
  N  N44  1  0.91107017  0.19418545  0.38156605  1
  N  N45  1  0.76241010  0.11815722  0.12532672  1
  N  N46  1  0.56025239  0.22586383  0.81937597  1
  N  N47  1  0.44444431  0.09307173  0.60649768  1
  N  N48  1  0.23133564  0.55537963  0.32330257  1
  N  N49  1  0.10733318  0.43515637  0.10116600  1
  N  N50  1  0.88013601  0.55594071  0.85807697  1
  N  N51  1  0.76481552  0.41526390  0.61562738  1
  N  N52  1  0.53864090  0.55061333  0.37378503  1
  N  N53  1  0.43993324  0.42613594  0.07892560  1
  N  N54  1  0.23865882  0.54910384  0.81973586  1
  N  N55  1  0.13781024  0.41574779  0.60338691  1
  N  N56  1  0.89033226  0.53255789  0.38715370  1
  N  N57  1  0.77677041  0.42855719  0.10057388  1
  N  N58  1  0.53478082  0.55241376  0.88025341  1
  N  N59  1  0.44091659  0.43189057  0.57838090  1
  N  N60  1  0.22122996  0.87226488  0.35065394  1
  N  N61  1  0.12037727  0.73756582  0.06386520  1
  N  N62  1  0.88755964  0.87562183  0.83818606  1
  N  N63  1  0.76544303  0.78211346  0.62050474  1
  N  N64  1  0.54360816  0.85802815  0.38545130  1
  N  N65  1  0.46507250  0.74739359  0.13040253  1
  N  N66  1  0.23384691  0.85606925  0.85050773  1
  N  N67  1  0.10225556  0.75133735  0.57792013  1
  N  N68  1  0.90963812  0.86075929  0.32443705  1
  N  N69  1  0.77101748  0.74742080  0.11700965  1
  N  N70  1  0.56347256  0.84999659  0.87687105  1
  N  N71  1  0.46652377  0.74731941  0.62887207  1
