# generated using pymatgen
data_Sc13Al23N36
_symmetry_space_group_name_H-M   'P 1'
_cell_length_a   10.03504240
_cell_length_b   10.08414066
_cell_length_c   10.04058044
_cell_angle_alpha   89.85407112
_cell_angle_beta   90.25146881
_cell_angle_gamma   60.00977848
_symmetry_Int_Tables_number   1
_chemical_formula_structural   Sc13Al23N36
_chemical_formula_sum   'Sc13 Al23 N36'
_cell_volume   879.99388391
_cell_formula_units_Z   1
loop_
 _symmetry_equiv_pos_site_id
 _symmetry_equiv_pos_as_xyz
  1  'x, y, z'
loop_
 _atom_site_type_symbol
 _atom_site_label
 _atom_site_symmetry_multiplicity
 _atom_site_fract_x
 _atom_site_fract_y
 _atom_site_fract_z
 _atom_site_occupancy
  Al  Al0  1  0.10872159  0.09361403  0.31952453  1
  Al  Al1  1  0.21980270  0.20915875  0.07493847  1
  Al  Al2  1  0.77294289  0.10092770  0.81555781  1
  Al  Al3  1  0.88978735  0.20620920  0.57120381  1
  Al  Al4  1  0.55639405  0.21191063  0.06567487  1
  Al  Al5  1  0.22416971  0.20351078  0.56920285  1
  Al  Al6  1  0.88050563  0.20982459  0.07058164  1
  Al  Al7  1  0.54961360  0.20990522  0.57546677  1
  Al  Al8  1  0.23192502  0.53717881  0.13138791  1
  Al  Al9  1  0.43417377  0.44041397  0.38862062  1
  Al  Al10  1  0.55214583  0.54210516  0.06864728  1
  Al  Al11  1  0.22878778  0.54044317  0.62975141  1
  Al  Al12  1  0.88576984  0.54127911  0.06156693  1
  Al  Al13  1  0.43989247  0.43763326  0.87408152  1
  Al  Al14  1  0.55600611  0.53968129  0.57412103  1
  Al  Al15  1  0.11147594  0.75817506  0.37626401  1
  Al  Al16  1  0.76997006  0.76618776  0.82050046  1
  Al  Al17  1  0.89105746  0.87239491  0.63315257  1
  Al  Al18  1  0.44390817  0.75620887  0.32343412  1
  Al  Al19  1  0.56050507  0.85818477  0.06692900  1
  Al  Al20  1  0.12122532  0.75416482  0.87730011  1
  Al  Al21  1  0.44956679  0.75418657  0.81899832  1
  Al  Al22  1  0.55368373  0.87243613  0.57291087  1
  Sc  Sc23  1  0.44334804  0.09105733  0.32523100  1
  Sc  Sc24  1  0.10846495  0.09333553  0.83325647  1
  Sc  Sc25  1  0.77692571  0.09603046  0.33720261  1
  Sc  Sc26  1  0.45199827  0.08860761  0.83267842  1
  Sc  Sc27  1  0.11484490  0.42615021  0.33740916  1
  Sc  Sc28  1  0.76770855  0.42558117  0.83656810  1
  Sc  Sc29  1  0.88902392  0.53687655  0.59361556  1
  Sc  Sc30  1  0.12049306  0.43153377  0.84320171  1
  Sc  Sc31  1  0.77143317  0.42625308  0.32155253  1
  Sc  Sc32  1  0.22837218  0.86836319  0.09325755  1
  Sc  Sc33  1  0.22606891  0.87303624  0.58210416  1
  Sc  Sc34  1  0.77482326  0.75757151  0.33006930  1
  Sc  Sc35  1  0.88591452  0.87382470  0.09402875  1
  N  N36  1  0.21461072  0.19223397  0.37809246  1
  N  N37  1  0.09749729  0.11508671  0.12437382  1
  N  N38  1  0.87896334  0.19156957  0.88366828  1
  N  N39  1  0.77768570  0.09566338  0.61780223  1
  N  N40  1  0.53993622  0.22507729  0.38399301  1
  N  N41  1  0.45100306  0.08880592  0.10587816  1
  N  N42  1  0.22530944  0.20351056  0.88893740  1
  N  N43  1  0.10303192  0.11250283  0.62304416  1
  N  N44  1  0.90675718  0.19692427  0.38312890  1
  N  N45  1  0.76227960  0.12001053  0.12435365  1
  N  N46  1  0.56378470  0.21680179  0.86801231  1
  N  N47  1  0.44415859  0.09207133  0.61434264  1
  N  N48  1  0.23339046  0.55175494  0.32240590  1
  N  N49  1  0.11056468  0.43049079  0.10708004  1
  N  N50  1  0.88111558  0.55626384  0.86350291  1
  N  N51  1  0.76639048  0.41475832  0.62157576  1
  N  N52  1  0.53845307  0.55141385  0.38158981  1
  N  N53  1  0.44043160  0.42927304  0.07801747  1
  N  N54  1  0.23483712  0.55336637  0.81770520  1
  N  N55  1  0.13515580  0.41555039  0.61247790  1
  N  N56  1  0.88754396  0.53339468  0.38565962  1
  N  N57  1  0.77661466  0.42947296  0.09986142  1
  N  N58  1  0.53674631  0.55345724  0.87899318  1
  N  N59  1  0.44115715  0.43355993  0.58904497  1
  N  N60  1  0.22165595  0.87200936  0.35240645  1
  N  N61  1  0.12315994  0.73717685  0.06512448  1
  N  N62  1  0.89019861  0.87399535  0.83926852  1
  N  N63  1  0.76473556  0.78267314  0.62534668  1
  N  N64  1  0.54218257  0.86226165  0.38567376  1
  N  N65  1  0.46589215  0.74682379  0.13309190  1
  N  N66  1  0.23525661  0.85708590  0.85867648  1
  N  N67  1  0.09899847  0.75256773  0.57204441  1
  N  N68  1  0.90970013  0.85991558  0.31622443  1
  N  N69  1  0.77019199  0.74741777  0.11510066  1
  N  N70  1  0.56316852  0.85068512  0.87784299  1
  N  N71  1  0.46642802  0.74935809  0.63031681  1
