# generated using pymatgen
data_Sc13Al23N36
_symmetry_space_group_name_H-M   'P 1'
_cell_length_a   10.04531477
_cell_length_b   10.09019368
_cell_length_c   10.00149090
_cell_angle_alpha   89.85067876
_cell_angle_beta   90.25650889
_cell_angle_gamma   60.02130504
_symmetry_Int_Tables_number   1
_chemical_formula_structural   Sc13Al23N36
_chemical_formula_sum   'Sc13 Al23 N36'
_cell_volume   878.09293548
_cell_formula_units_Z   1
loop_
 _symmetry_equiv_pos_site_id
 _symmetry_equiv_pos_as_xyz
  1  'x, y, z'
loop_
 _atom_site_type_symbol
 _atom_site_label
 _atom_site_symmetry_multiplicity
 _atom_site_fract_x
 _atom_site_fract_y
 _atom_site_fract_z
 _atom_site_occupancy
  Al  Al0  1  0.10876753  0.09360037  0.31954661  1
  Al  Al1  1  0.22003897  0.20903267  0.07534296  1
  Al  Al2  1  0.77341431  0.10058890  0.81577510  1
  Al  Al3  1  0.89002576  0.20624861  0.57155017  1
  Al  Al4  1  0.55553961  0.21513495  0.06516364  1
  Al  Al5  1  0.22453269  0.20309160  0.56952056  1
  Al  Al6  1  0.88051803  0.20967648  0.07089164  1
  Al  Al7  1  0.54973030  0.21014359  0.57667125  1
  Al  Al8  1  0.23236833  0.53693569  0.13124484  1
  Al  Al9  1  0.43543715  0.43984280  0.38062117  1
  Al  Al10  1  0.55018252  0.54040655  0.06798735  1
  Al  Al11  1  0.22698096  0.54112042  0.62811312  1
  Al  Al12  1  0.88560983  0.54141062  0.06204913  1
  Al  Al13  1  0.44294111  0.43624900  0.85311141  1
  Al  Al14  1  0.55624755  0.53906548  0.57495650  1
  Al  Al15  1  0.11076843  0.75910993  0.37639680  1
  Al  Al16  1  0.76997150  0.76630342  0.82073369  1
  Al  Al17  1  0.89083667  0.87261189  0.63286140  1
  Al  Al18  1  0.44383292  0.75614019  0.32372857  1
  Al  Al19  1  0.56062348  0.85762199  0.06757151  1
  Al  Al20  1  0.12118622  0.75424267  0.87753942  1
  Al  Al21  1  0.44967213  0.75405992  0.81932859  1
  Al  Al22  1  0.55353275  0.87248228  0.57326493  1
  Sc  Sc23  1  0.44358710  0.09130422  0.32536365  1
  Sc  Sc24  1  0.10857491  0.09323549  0.83403194  1
  Sc  Sc25  1  0.77662340  0.09648108  0.33772095  1
  Sc  Sc26  1  0.45221966  0.08820246  0.83406729  1
  Sc  Sc27  1  0.11447559  0.42606145  0.33848899  1
  Sc  Sc28  1  0.76835940  0.42561957  0.83778559  1
  Sc  Sc29  1  0.88892051  0.53672503  0.59436357  1
  Sc  Sc30  1  0.12064516  0.43168597  0.84454532  1
  Sc  Sc31  1  0.77094949  0.42654661  0.32138862  1
  Sc  Sc32  1  0.22861857  0.86795398  0.09391548  1
  Sc  Sc33  1  0.22617120  0.87296783  0.58305350  1
  Sc  Sc34  1  0.77484732  0.75778122  0.33095618  1
  Sc  Sc35  1  0.88556403  0.87415548  0.09394920  1
  N  N36  1  0.21507755  0.19176585  0.37758592  1
  N  N37  1  0.09762695  0.11487821  0.12377257  1
  N  N38  1  0.87907380  0.19153471  0.88327528  1
  N  N39  1  0.77799783  0.09548182  0.61748779  1
  N  N40  1  0.53940680  0.22621565  0.38559161  1
  N  N41  1  0.45117070  0.08899091  0.10533942  1
  N  N42  1  0.22543512  0.20345002  0.88851890  1
  N  N43  1  0.10316817  0.11243508  0.62298581  1
  N  N44  1  0.90671762  0.19723159  0.38263810  1
  N  N45  1  0.76208166  0.12002705  0.12403296  1
  N  N46  1  0.56382302  0.21734600  0.86719741  1
  N  N47  1  0.44431690  0.09193236  0.61469569  1
  N  N48  1  0.23162248  0.55250130  0.32450913  1
  N  N49  1  0.11061046  0.43054086  0.10676897  1
  N  N50  1  0.88136384  0.55642650  0.86300754  1
  N  N51  1  0.76673930  0.41460229  0.62178065  1
  N  N52  1  0.53773128  0.55132892  0.38287794  1
  N  N53  1  0.44230198  0.42877401  0.08732467  1
  N  N54  1  0.23283538  0.55434997  0.81740448  1
  N  N55  1  0.13510957  0.41540123  0.61110275  1
  N  N56  1  0.88702035  0.53336320  0.38543354  1
  N  N57  1  0.77637459  0.42954450  0.09899473  1
  N  N58  1  0.53644953  0.55259978  0.87783902  1
  N  N59  1  0.44359778  0.43213056  0.59959960  1
  N  N60  1  0.22160873  0.87202450  0.35217977  1
  N  N61  1  0.12293261  0.73740230  0.06592849  1
  N  N62  1  0.88982296  0.87423195  0.83974208  1
  N  N63  1  0.76477998  0.78276501  0.62478212  1
  N  N64  1  0.54199086  0.86240831  0.38524873  1
  N  N65  1  0.46616193  0.74580280  0.13274292  1
  N  N66  1  0.23534672  0.85682733  0.85818485  1
  N  N67  1  0.09867651  0.75324969  0.57237949  1
  N  N68  1  0.90899814  0.86072497  0.31696850  1
  N  N69  1  0.77025195  0.74745492  0.11523722  1
  N  N70  1  0.56335454  0.85017359  0.87778825  1
  N  N71  1  0.46654471  0.74918263  0.63010361  1
