# generated using pymatgen
data_Sc13Al23N36
_symmetry_space_group_name_H-M   'P 1'
_cell_length_a   10.03500613
_cell_length_b   10.06711925
_cell_length_c   10.02900412
_cell_angle_alpha   89.86799698
_cell_angle_beta   90.21639840
_cell_angle_gamma   60.05089788
_symmetry_Int_Tables_number   1
_chemical_formula_structural   Sc13Al23N36
_chemical_formula_sum   'Sc13 Al23 N36'
_cell_volume   877.86075738
_cell_formula_units_Z   1
loop_
 _symmetry_equiv_pos_site_id
 _symmetry_equiv_pos_as_xyz
  1  'x, y, z'
loop_
 _atom_site_type_symbol
 _atom_site_label
 _atom_site_symmetry_multiplicity
 _atom_site_fract_x
 _atom_site_fract_y
 _atom_site_fract_z
 _atom_site_occupancy
  Al  Al0  1  0.10912935  0.09321114  0.31983661  1
  Al  Al1  1  0.22059765  0.20870372  0.07540375  1
  Al  Al2  1  0.77172510  0.10219056  0.81707240  1
  Al  Al3  1  0.88980121  0.20632823  0.57207295  1
  Al  Al4  1  0.55544582  0.21762595  0.06689652  1
  Al  Al5  1  0.22523916  0.20240014  0.56956701  1
  Al  Al6  1  0.88097914  0.20998456  0.07096154  1
  Al  Al7  1  0.54805740  0.21427431  0.57339322  1
  Al  Al8  1  0.22603281  0.53977143  0.13125568  1
  Al  Al9  1  0.44333685  0.43556156  0.32481392  1
  Al  Al10  1  0.54997186  0.53949001  0.06963847  1
  Al  Al11  1  0.22652457  0.54109631  0.62615714  1
  Al  Al12  1  0.88550850  0.54137372  0.06169597  1
  Al  Al13  1  0.44800057  0.43444714  0.81720414  1
  Al  Al14  1  0.55456296  0.53528578  0.57064916  1
  Al  Al15  1  0.11043098  0.75931828  0.37728425  1
  Al  Al16  1  0.76968554  0.76631989  0.82111042  1
  Al  Al17  1  0.89017724  0.87336337  0.63400030  1
  Al  Al18  1  0.44373681  0.75573201  0.32431235  1
  Al  Al19  1  0.56042183  0.85790867  0.06767089  1
  Al  Al20  1  0.12118078  0.75417011  0.87738703  1
  Al  Al21  1  0.44956710  0.75200725  0.82013356  1
  Al  Al22  1  0.55375601  0.87167376  0.57412426  1
  Sc  Sc23  1  0.44411853  0.09118407  0.32639540  1
  Sc  Sc24  1  0.10853542  0.09346713  0.83358274  1
  Sc  Sc25  1  0.77679439  0.09664577  0.33833481  1
  Sc  Sc26  1  0.45298949  0.08894776  0.83447077  1
  Sc  Sc27  1  0.11513587  0.42597158  0.34123222  1
  Sc  Sc28  1  0.76624313  0.42674584  0.83808399  1
  Sc  Sc29  1  0.88811610  0.53683192  0.59466393  1
  Sc  Sc30  1  0.12085158  0.43139742  0.84405027  1
  Sc  Sc31  1  0.77210945  0.42627461  0.32161109  1
  Sc  Sc32  1  0.22902971  0.86827366  0.09344242  1
  Sc  Sc33  1  0.22682280  0.87268452  0.58297796  1
  Sc  Sc34  1  0.77476292  0.75776539  0.33045845  1
  Sc  Sc35  1  0.88507539  0.87507847  0.09417161  1
  N  N36  1  0.21588564  0.19079111  0.37822155  1
  N  N37  1  0.09774314  0.11507246  0.12449290  1
  N  N38  1  0.87888753  0.19241599  0.88371409  1
  N  N39  1  0.77672390  0.09638373  0.61849089  1
  N  N40  1  0.53772487  0.23049542  0.38564673  1
  N  N41  1  0.45125402  0.08966288  0.10664068  1
  N  N42  1  0.22642724  0.20258262  0.88897876  1
  N  N43  1  0.10319734  0.11246584  0.62335655  1
  N  N44  1  0.90721430  0.19704057  0.38359630  1
  N  N45  1  0.76258847  0.12054442  0.12514254  1
  N  N46  1  0.56163849  0.22190103  0.87336816  1
  N  N47  1  0.44498793  0.09251913  0.61494006  1
  N  N48  1  0.22790938  0.55439097  0.32505688  1
  N  N49  1  0.11058600  0.43032600  0.10637371  1
  N  N50  1  0.88106843  0.55611811  0.86336334  1
  N  N51  1  0.76565271  0.41497020  0.62188217  1
  N  N52  1  0.53620958  0.54875063  0.38166723  1
  N  N53  1  0.44883008  0.42665033  0.12571712  1
  N  N54  1  0.23163552  0.55446107  0.81840441  1
  N  N55  1  0.13521549  0.41527131  0.60994381  1
  N  N56  1  0.88690800  0.53369611  0.38632705  1
  N  N57  1  0.77651140  0.42986035  0.09962993  1
  N  N58  1  0.53267175  0.54985468  0.88261293  1
  N  N59  1  0.44963938  0.42793718  0.62394076  1
  N  N60  1  0.22171959  0.87190614  0.35286273  1
  N  N61  1  0.12260068  0.73815625  0.06508494  1
  N  N62  1  0.88870903  0.87530585  0.84037167  1
  N  N63  1  0.76467855  0.78267121  0.62596520  1
  N  N64  1  0.54218341  0.86178043  0.38650340  1
  N  N65  1  0.46628020  0.74583617  0.13367855  1
  N  N66  1  0.23525407  0.85706903  0.85863894  1
  N  N67  1  0.09840165  0.75375243  0.57280623  1
  N  N68  1  0.90871903  0.86111026  0.31698327  1
  N  N69  1  0.77018439  0.74767889  0.11530249  1
  N  N70  1  0.56275937  0.84981746  0.87818922  1
  N  N71  1  0.46738258  0.74618817  0.63071079  1
