# generated using pymatgen
data_Sc13Al23N36
_symmetry_space_group_name_H-M   'P 1'
_cell_length_a   10.08875494
_cell_length_b   10.14589908
_cell_length_c   9.94696910
_cell_angle_alpha   90.45956166
_cell_angle_beta   89.88054095
_cell_angle_gamma   59.77489274
_symmetry_Int_Tables_number   1
_chemical_formula_structural   Sc13Al23N36
_chemical_formula_sum   'Sc13 Al23 N36'
_cell_volume   879.70090398
_cell_formula_units_Z   1
loop_
 _symmetry_equiv_pos_site_id
 _symmetry_equiv_pos_as_xyz
  1  'x, y, z'
loop_
 _atom_site_type_symbol
 _atom_site_label
 _atom_site_symmetry_multiplicity
 _atom_site_fract_x
 _atom_site_fract_y
 _atom_site_fract_z
 _atom_site_occupancy
  Al  Al0  1  0.11805116  0.09017716  0.39525115  1
  Al  Al1  1  0.21163448  0.20676131  0.13142112  1
  Al  Al2  1  0.77230314  0.09985114  0.81537025  1
  Al  Al3  1  0.88714844  0.20658636  0.58058292  1
  Al  Al4  1  0.54529366  0.22206815  0.13876537  1
  Al  Al5  1  0.23437315  0.20541767  0.63526731  1
  Al  Al6  1  0.87758272  0.20877161  0.06577311  1
  Al  Al7  1  0.54755570  0.21595851  0.62535789  1
  Al  Al8  1  0.22635930  0.54129526  0.13399752  1
  Al  Al9  1  0.43847033  0.44249252  0.38357984  1
  Al  Al10  1  0.54801393  0.53835336  0.12822902  1
  Al  Al11  1  0.23036022  0.53644173  0.63148353  1
  Al  Al12  1  0.88279345  0.54353984  0.06769784  1
  Al  Al13  1  0.44257379  0.43440935  0.88327266  1
  Al  Al14  1  0.55327768  0.53184446  0.63701937  1
  Al  Al15  1  0.11103229  0.75843031  0.38387588  1
  Al  Al16  1  0.76850255  0.76780015  0.82326704  1
  Al  Al17  1  0.89065403  0.86949357  0.63332546  1
  Al  Al18  1  0.44446746  0.75659647  0.32764812  1
  Al  Al19  1  0.55707609  0.85826797  0.07428332  1
  Al  Al20  1  0.12308977  0.75313809  0.87679342  1
  Al  Al21  1  0.44739542  0.75776962  0.82342852  1
  Al  Al22  1  0.55614806  0.86922416  0.57501854  1
  Sc  Sc23  1  0.44111614  0.09124323  0.35912184  1
  Sc  Sc24  1  0.11107189  0.09201623  0.85603480  1
  Sc  Sc25  1  0.77847618  0.09533994  0.34933047  1
  Sc  Sc26  1  0.45713889  0.09263928  0.87277834  1
  Sc  Sc27  1  0.12610988  0.42410709  0.36864118  1
  Sc  Sc28  1  0.76669760  0.42932583  0.85116274  1
  Sc  Sc29  1  0.89167387  0.53444689  0.60431221  1
  Sc  Sc30  1  0.12369253  0.43324631  0.87294444  1
  Sc  Sc31  1  0.78319806  0.42066675  0.33235492  1
  Sc  Sc32  1  0.21343858  0.87851128  0.12370382  1
  Sc  Sc33  1  0.22894367  0.86168440  0.60717686  1
  Sc  Sc34  1  0.78043426  0.75471212  0.33679938  1
  Sc  Sc35  1  0.88209650  0.87608699  0.09553312  1
  N  N36  1  0.20937606  0.19215566  0.32248032  1
  N  N37  1  0.09738459  0.11404471  0.07692408  1
  N  N38  1  0.87374809  0.19471945  0.87334802  1
  N  N39  1  0.78118582  0.09048093  0.61062886  1
  N  N40  1  0.53118683  0.23625042  0.33162481  1
  N  N41  1  0.44595801  0.09328681  0.10032654  1
  N  N42  1  0.23072388  0.20572055  0.82544230  1
  N  N43  1  0.11251870  0.10839264  0.59865483  1
  N  N44  1  0.90690800  0.19473931  0.38905441  1
  N  N45  1  0.76298794  0.11972668  0.12383523  1
  N  N46  1  0.55637371  0.22635874  0.81930576  1
  N  N47  1  0.45029122  0.09308117  0.59277865  1
  N  N48  1  0.23267953  0.55560127  0.32342929  1
  N  N49  1  0.11143668  0.42986700  0.09879072  1
  N  N50  1  0.88278881  0.55803418  0.86376070  1
  N  N51  1  0.76883337  0.41432206  0.62416454  1
  N  N52  1  0.54128448  0.54188531  0.32562921  1
  N  N53  1  0.44017035  0.42957208  0.07524341  1
  N  N54  1  0.23686118  0.54837027  0.82018567  1
  N  N55  1  0.14043244  0.41512454  0.59371067  1
  N  N56  1  0.89388322  0.53243602  0.39161514  1
  N  N57  1  0.77541583  0.42999292  0.09837851  1
  N  N58  1  0.53253347  0.54735467  0.83542187  1
  N  N59  1  0.44382447  0.43351165  0.57548037  1
  N  N60  1  0.22209568  0.87115561  0.36048114  1
  N  N61  1  0.12167255  0.74049763  0.06531313  1
  N  N62  1  0.88591363  0.87627772  0.84150184  1
  N  N63  1  0.76505540  0.78132042  0.62657278  1
  N  N64  1  0.54683013  0.85588728  0.38486262  1
  N  N65  1  0.45302739  0.75711616  0.12815734  1
  N  N66  1  0.22993100  0.85554305  0.83487346  1
  N  N67  1  0.09886848  0.74709094  0.57761752  1
  N  N68  1  0.91110510  0.86122133  0.32012424  1
  N  N69  1  0.76702563  0.74906502  0.11986509  1
  N  N70  1  0.56184836  0.85060504  0.88112944  1
  N  N71  1  0.46988271  0.74867630  0.62732172  1
