# generated using pymatgen
data_Sc13Al23N36
_symmetry_space_group_name_H-M   'P 1'
_cell_length_a   10.12104477
_cell_length_b   10.16268400
_cell_length_c   9.78928744
_cell_angle_alpha   90.13596103
_cell_angle_beta   90.23459362
_cell_angle_gamma   59.96837344
_symmetry_Int_Tables_number   1
_chemical_formula_structural   Sc13Al23N36
_chemical_formula_sum   'Sc13 Al23 N36'
_cell_volume   871.71258484
_cell_formula_units_Z   1
loop_
 _symmetry_equiv_pos_site_id
 _symmetry_equiv_pos_as_xyz
  1  'x, y, z'
loop_
 _atom_site_type_symbol
 _atom_site_label
 _atom_site_symmetry_multiplicity
 _atom_site_fract_x
 _atom_site_fract_y
 _atom_site_fract_z
 _atom_site_occupancy
  Al  Al0  1  0.10754792  0.09053552  0.31437224  1
  Al  Al1  1  0.21940276  0.20878650  0.09001437  1
  Al  Al2  1  0.77493174  0.09957418  0.81453066  1
  Al  Al3  1  0.89492672  0.20564438  0.57415876  1
  Al  Al4  1  0.54869863  0.22011062  0.13856521  1
  Al  Al5  1  0.22564906  0.20383937  0.58228258  1
  Al  Al6  1  0.87548941  0.20925301  0.07146732  1
  Al  Al7  1  0.54640295  0.21805955  0.62228270  1
  Al  Al8  1  0.22773869  0.53933884  0.13017148  1
  Al  Al9  1  0.43410345  0.44086647  0.38166034  1
  Al  Al10  1  0.55278677  0.54124181  0.07460528  1
  Al  Al11  1  0.23134048  0.53798377  0.62811018  1
  Al  Al12  1  0.88358932  0.54219249  0.06543165  1
  Al  Al13  1  0.44275725  0.43241155  0.88009420  1
  Al  Al14  1  0.55453449  0.53924759  0.57112486  1
  Al  Al15  1  0.11291816  0.75939660  0.37780193  1
  Al  Al16  1  0.76966340  0.76704426  0.82177181  1
  Al  Al17  1  0.89151504  0.87073721  0.62769734  1
  Al  Al18  1  0.44347677  0.75622802  0.32506148  1
  Al  Al19  1  0.56211825  0.85650773  0.07292133  1
  Al  Al20  1  0.12125496  0.75311296  0.87158368  1
  Al  Al21  1  0.45039256  0.75238085  0.82230556  1
  Al  Al22  1  0.55327922  0.87091808  0.57728050  1
  Sc  Sc23  1  0.44253006  0.08825269  0.34264454  1
  Sc  Sc24  1  0.10910036  0.09518292  0.84783611  1
  Sc  Sc25  1  0.77883304  0.09394100  0.35414530  1
  Sc  Sc26  1  0.45683046  0.09088304  0.85732699  1
  Sc  Sc27  1  0.11784896  0.42795269  0.34906697  1
  Sc  Sc28  1  0.76413371  0.42666201  0.83775151  1
  Sc  Sc29  1  0.89065077  0.53520216  0.60093143  1
  Sc  Sc30  1  0.12162781  0.43332697  0.85736763  1
  Sc  Sc31  1  0.77481271  0.42460386  0.32843643  1
  Sc  Sc32  1  0.22870166  0.86299224  0.09522750  1
  Sc  Sc33  1  0.22511047  0.87436185  0.59373939  1
  Sc  Sc34  1  0.77689293  0.75683023  0.33908439  1
  Sc  Sc35  1  0.88402905  0.87587460  0.09660934  1
  N  N36  1  0.21124107  0.19376082  0.35395652  1
  N  N37  1  0.09526823  0.10927579  0.11253506  1
  N  N38  1  0.87576411  0.19401824  0.87908772  1
  N  N39  1  0.78237226  0.09226839  0.60672120  1
  N  N40  1  0.53388593  0.23486678  0.33642605  1
  N  N41  1  0.45426374  0.08623717  0.10726043  1
  N  N42  1  0.22822827  0.20506331  0.89226410  1
  N  N43  1  0.10497901  0.11581820  0.62809141  1
  N  N44  1  0.91024979  0.19449830  0.38154529  1
  N  N45  1  0.76272006  0.11802665  0.12519229  1
  N  N46  1  0.56024245  0.22568109  0.81970062  1
  N  N47  1  0.44435685  0.09301727  0.60713747  1
  N  N48  1  0.23162082  0.55562277  0.32315451  1
  N  N49  1  0.10792730  0.43384365  0.10387870  1
  N  N50  1  0.88049842  0.55574292  0.85866447  1
  N  N51  1  0.76480347  0.41514200  0.61605326  1
  N  N52  1  0.53857948  0.55066093  0.37403763  1
  N  N53  1  0.44005064  0.42618939  0.07875337  1
  N  N54  1  0.23855429  0.54903967  0.81991365  1
  N  N55  1  0.13736516  0.41582369  0.60460094  1
  N  N56  1  0.88995125  0.53269378  0.38690919  1
  N  N57  1  0.77673970  0.42866599  0.10062965  1
  N  N58  1  0.53488552  0.55242023  0.88026866  1
  N  N59  1  0.44092196  0.43179879  0.57845476  1
  N  N60  1  0.22133355  0.87209747  0.35092849  1
  N  N61  1  0.12059523  0.73773817  0.06394215  1
  N  N62  1  0.88771410  0.87552474  0.83834709  1
  N  N63  1  0.76549606  0.78198918  0.62079154  1
  N  N64  1  0.54387428  0.85769077  0.38539638  1
  N  N65  1  0.46470496  0.74755748  0.13046068  1
  N  N66  1  0.23367320  0.85661057  0.85098787  1
  N  N67  1  0.10220067  0.75132682  0.57789711  1
  N  N68  1  0.90974624  0.86053368  0.32422716  1
  N  N69  1  0.77085079  0.74750289  0.11684278  1
  N  N70  1  0.56331438  0.85044331  0.87710299  1
  N  N71  1  0.46663253  0.74732388  0.62903228  1
