# generated using pymatgen
data_Sc13Al23N36
_symmetry_space_group_name_H-M   'P 1'
_cell_length_a   9.94023138
_cell_length_b   9.97241787
_cell_length_c   10.18091085
_cell_angle_alpha   89.89115533
_cell_angle_beta   89.82191497
_cell_angle_gamma   59.97455622
_symmetry_Int_Tables_number   1
_chemical_formula_structural   Sc13Al23N36
_chemical_formula_sum   'Sc13 Al23 N36'
_cell_volume   873.77716528
_cell_formula_units_Z   1
loop_
 _symmetry_equiv_pos_site_id
 _symmetry_equiv_pos_as_xyz
  1  'x, y, z'
loop_
 _atom_site_type_symbol
 _atom_site_label
 _atom_site_symmetry_multiplicity
 _atom_site_fract_x
 _atom_site_fract_y
 _atom_site_fract_z
 _atom_site_occupancy
  Al  Al0  1  0.11001962  0.09535538  0.29688047  1
  Al  Al1  1  0.22071083  0.20870067  0.05071824  1
  Al  Al2  1  0.77512527  0.09531796  0.79252901  1
  Al  Al3  1  0.88854536  0.20648591  0.54997609  1
  Al  Al4  1  0.55609912  0.21550361  0.04744508  1
  Al  Al5  1  0.22452029  0.20356512  0.54540550  1
  Al  Al6  1  0.88331306  0.20795346  0.04843745  1
  Al  Al7  1  0.54760642  0.21568693  0.55396973  1
  Al  Al8  1  0.22864936  0.53748631  0.04916796  1
  Al  Al9  1  0.43911486  0.43878700  0.30249619  1
  Al  Al10  1  0.55118693  0.53998193  0.04854931  1
  Al  Al11  1  0.22910211  0.53724102  0.54979282  1
  Al  Al12  1  0.88733313  0.54186609  0.03750061  1
  Al  Al13  1  0.44268596  0.43627367  0.80120579  1
  Al  Al14  1  0.55189488  0.53617873  0.55085627  1
  Al  Al15  1  0.11756774  0.75691407  0.30159869  1
  Al  Al16  1  0.77286535  0.76814857  0.79498130  1
  Al  Al17  1  0.88979545  0.87132087  0.55675314  1
  Al  Al18  1  0.44484051  0.75668539  0.30054706  1
  Al  Al19  1  0.56164863  0.85964513  0.04547683  1
  Al  Al20  1  0.11363561  0.75707093  0.79769340  1
  Al  Al21  1  0.44755139  0.75257905  0.79976458  1
  Al  Al22  1  0.55272259  0.87187915  0.55327529  1
  Sc  Sc23  1  0.44491213  0.09230360  0.30479864  1
  Sc  Sc24  1  0.11017449  0.09013880  0.80663057  1
  Sc  Sc25  1  0.77724182  0.09780845  0.31825263  1
  Sc  Sc26  1  0.45385458  0.08905167  0.81052789  1
  Sc  Sc27  1  0.11733097  0.42933784  0.30401390  1
  Sc  Sc28  1  0.76747345  0.42561530  0.81558408  1
  Sc  Sc29  1  0.88777387  0.53691519  0.56782989  1
  Sc  Sc30  1  0.12214111  0.42997709  0.80778517  1
  Sc  Sc31  1  0.77228399  0.42762551  0.29706202  1
  Sc  Sc32  1  0.22824472  0.86706518  0.06394064  1
  Sc  Sc33  1  0.22422189  0.86913976  0.54930308  1
  Sc  Sc34  1  0.77650284  0.75939651  0.30864220  1
  Sc  Sc35  1  0.88516967  0.87572254  0.04915677  1
  N  N36  1  0.21491782  0.19571474  0.35740272  1
  N  N37  1  0.09892324  0.11476107  0.10569877  1
  N  N38  1  0.88061734  0.18885248  0.86399402  1
  N  N39  1  0.77609079  0.09591893  0.59893005  1
  N  N40  1  0.53838571  0.23264263  0.36791045  1
  N  N41  1  0.45069872  0.09064364  0.08771583  1
  N  N42  1  0.22507243  0.20236451  0.86758248  1
  N  N43  1  0.10413390  0.10967421  0.59975714  1
  N  N44  1  0.90667513  0.19929199  0.36383646  1
  N  N45  1  0.76628575  0.11447468  0.10925159  1
  N  N46  1  0.56315023  0.22115013  0.85687301  1
  N  N47  1  0.44400437  0.09379082  0.59434636  1
  N  N48  1  0.23220777  0.55151789  0.36354327  1
  N  N49  1  0.11125968  0.43061698  0.08656043  1
  N  N50  1  0.88210019  0.55664653  0.84406134  1
  N  N51  1  0.76417640  0.41607348  0.60245556  1
  N  N52  1  0.53624609  0.54955927  0.36259734  1
  N  N53  1  0.44390710  0.42935093  0.11089225  1
  N  N54  1  0.23355325  0.55049364  0.86344553  1
  N  N55  1  0.13548992  0.41597015  0.59439423  1
  N  N56  1  0.88976063  0.53365275  0.36272940  1
  N  N57  1  0.77722291  0.42937166  0.07852457  1
  N  N58  1  0.53311809  0.54960366  0.86418807  1
  N  N59  1  0.44204740  0.43181192  0.61268726  1
  N  N60  1  0.22230317  0.87376802  0.33240257  1
  N  N61  1  0.11667707  0.74179872  0.11501697  1
  N  N62  1  0.88497622  0.87553304  0.83988575  1
  N  N63  1  0.76470561  0.78297960  0.60572585  1
  N  N64  1  0.54357741  0.86159309  0.36754775  1
  N  N65  1  0.46714940  0.74717306  0.11342164  1
  N  N66  1  0.23133713  0.85322949  0.84792230  1
  N  N67  1  0.10459309  0.74918620  0.61110198  1
  N  N68  1  0.90992538  0.86084342  0.36639051  1
  N  N69  1  0.77317327  0.75060807  0.09849014  1
  N  N70  1  0.56343489  0.84961980  0.85837851  1
  N  N71  1  0.46273275  0.74882344  0.61223735  1
