# generated using pymatgen
data_Sc13Al23N36
_symmetry_space_group_name_H-M   'P 1'
_cell_length_a   10.01718678
_cell_length_b   10.04797265
_cell_length_c   10.08349402
_cell_angle_alpha   89.88219918
_cell_angle_beta   90.19668897
_cell_angle_gamma   60.06941926
_symmetry_Int_Tables_number   1
_chemical_formula_structural   Sc13Al23N36
_chemical_formula_sum   'Sc13 Al23 N36'
_cell_volume   879.55418036
_cell_formula_units_Z   1
loop_
 _symmetry_equiv_pos_site_id
 _symmetry_equiv_pos_as_xyz
  1  'x, y, z'
loop_
 _atom_site_type_symbol
 _atom_site_label
 _atom_site_symmetry_multiplicity
 _atom_site_fract_x
 _atom_site_fract_y
 _atom_site_fract_z
 _atom_site_occupancy
  Al  Al0  1  0.10936772  0.09296417  0.31506308  1
  Al  Al1  1  0.22090395  0.20864881  0.07027463  1
  Al  Al2  1  0.77144521  0.10281022  0.81249629  1
  Al  Al3  1  0.88961481  0.20627751  0.56709680  1
  Al  Al4  1  0.55544509  0.21759064  0.06216650  1
  Al  Al5  1  0.22540834  0.20231071  0.56433554  1
  Al  Al6  1  0.88137037  0.21040172  0.06579074  1
  Al  Al7  1  0.54816254  0.21450647  0.56739413  1
  Al  Al8  1  0.22512405  0.54018770  0.12640613  1
  Al  Al9  1  0.44395340  0.43519587  0.31661322  1
  Al  Al10  1  0.55037317  0.53964031  0.06479868  1
  Al  Al11  1  0.22651453  0.54122589  0.62174566  1
  Al  Al12  1  0.88576510  0.54117688  0.05640438  1
  Al  Al13  1  0.44810901  0.43439026  0.81180735  1
  Al  Al14  1  0.55449525  0.53463914  0.56473836  1
  Al  Al15  1  0.11028132  0.75904455  0.37251168  1
  Al  Al16  1  0.76959266  0.76617573  0.81661317  1
  Al  Al17  1  0.89001024  0.87353400  0.63024945  1
  Al  Al18  1  0.44376317  0.75550750  0.31916879  1
  Al  Al19  1  0.56002904  0.85853870  0.06233858  1
  Al  Al20  1  0.12089178  0.75431785  0.87291974  1
  Al  Al21  1  0.44924972  0.75185536  0.81509962  1
  Al  Al22  1  0.55412530  0.87116790  0.56932432  1
  Sc  Sc23  1  0.44435976  0.09077712  0.32154108  1
  Sc  Sc24  1  0.10867707  0.09347980  0.82751041  1
  Sc  Sc25  1  0.77700715  0.09665676  0.33249982  1
  Sc  Sc26  1  0.45324282  0.08909014  0.82838703  1
  Sc  Sc27  1  0.11543060  0.42570862  0.33578351  1
  Sc  Sc28  1  0.76575017  0.42718516  0.83243821  1
  Sc  Sc29  1  0.88778684  0.53719835  0.58875753  1
  Sc  Sc30  1  0.12069166  0.43097673  0.83779691  1
  Sc  Sc31  1  0.77269004  0.42585166  0.31610953  1
  Sc  Sc32  1  0.22918461  0.86865056  0.08736270  1
  Sc  Sc33  1  0.22706585  0.87261033  0.57646251  1
  Sc  Sc34  1  0.77454695  0.75745156  0.32368711  1
  Sc  Sc35  1  0.88500283  0.87550763  0.08925760  1
  N  N36  1  0.21618891  0.19052844  0.37430650  1
  N  N37  1  0.09784230  0.11533025  0.12090845  1
  N  N38  1  0.87912019  0.19280476  0.87951161  1
  N  N39  1  0.77631754  0.09678277  0.61468671  1
  N  N40  1  0.53777946  0.23079182  0.38056223  1
  N  N41  1  0.45132877  0.08975613  0.10285330  1
  N  N42  1  0.22690290  0.20213734  0.88484329  1
  N  N43  1  0.10329797  0.11226774  0.61862524  1
  N  N44  1  0.90743087  0.19684790  0.37968986  1
  N  N45  1  0.76276294  0.12115456  0.12070194  1
  N  N46  1  0.56147461  0.22226283  0.86988178  1
  N  N47  1  0.44520985  0.09257435  0.61010292  1
  N  N48  1  0.22794433  0.55447320  0.31898035  1
  N  N49  1  0.11048577  0.43012282  0.10209619  1
  N  N50  1  0.88106094  0.55597984  0.85959361  1
  N  N51  1  0.76548714  0.41506564  0.61738829  1
  N  N52  1  0.53649704  0.54807180  0.37653987  1
  N  N53  1  0.44909411  0.42669798  0.12155206  1
  N  N54  1  0.23124098  0.55483232  0.81287753  1
  N  N55  1  0.13506723  0.41517790  0.60572745  1
  N  N56  1  0.88700744  0.53383978  0.38176788  1
  N  N57  1  0.77658807  0.43010908  0.09541467  1
  N  N58  1  0.53221761  0.54991254  0.87885311  1
  N  N59  1  0.45009334  0.42739530  0.62007498  1
  N  N60  1  0.22187237  0.87171812  0.34877485  1
  N  N61  1  0.12248702  0.73818107  0.05951189  1
  N  N62  1  0.88867954  0.87565298  0.83558042  1
  N  N63  1  0.76447729  0.78254074  0.62287441  1
  N  N64  1  0.54257851  0.86121532  0.38267499  1
  N  N65  1  0.46632949  0.74613692  0.12953779  1
  N  N66  1  0.23523352  0.85736571  0.85518114  1
  N  N67  1  0.09803983  0.75369166  0.56726537  1
  N  N68  1  0.90881671  0.86083903  0.31107614  1
  N  N69  1  0.77003380  0.74787357  0.11002511  1
  N  N70  1  0.56231544  0.85007999  0.87381386  1
  N  N71  1  0.46736027  0.74552666  0.62641549  1
