# generated using pymatgen
data_Sc13Al23N36
_symmetry_space_group_name_H-M   'P 1'
_cell_length_a   10.06761187
_cell_length_b   10.09208843
_cell_length_c   9.92503994
_cell_angle_alpha   89.73042258
_cell_angle_beta   90.06497886
_cell_angle_gamma   60.08365044
_symmetry_Int_Tables_number   1
_chemical_formula_structural   Sc13Al23N36
_chemical_formula_sum   'Sc13 Al23 N36'
_cell_volume   874.03244635
_cell_formula_units_Z   1
loop_
 _symmetry_equiv_pos_site_id
 _symmetry_equiv_pos_as_xyz
  1  'x, y, z'
loop_
 _atom_site_type_symbol
 _atom_site_label
 _atom_site_symmetry_multiplicity
 _atom_site_fract_x
 _atom_site_fract_y
 _atom_site_fract_z
 _atom_site_occupancy
  Al  Al0  1  0.11002563  0.09276356  0.31147198  1
  Al  Al1  1  0.22127156  0.20894162  0.06741937  1
  Al  Al2  1  0.77088281  0.10289104  0.80960343  1
  Al  Al3  1  0.89069317  0.20612887  0.56479161  1
  Al  Al4  1  0.55577538  0.21746085  0.06004091  1
  Al  Al5  1  0.22498172  0.20180822  0.56054495  1
  Al  Al6  1  0.88040537  0.21050021  0.06353752  1
  Al  Al7  1  0.54796351  0.21493530  0.56487509  1
  Al  Al8  1  0.22637592  0.53748601  0.11355296  1
  Al  Al9  1  0.44264657  0.43591203  0.31518009  1
  Al  Al10  1  0.55005442  0.54000801  0.06292713  1
  Al  Al11  1  0.22774419  0.53922403  0.60663485  1
  Al  Al12  1  0.88586715  0.54151438  0.05259275  1
  Al  Al13  1  0.44655193  0.43471214  0.80887753  1
  Al  Al14  1  0.55407660  0.53516121  0.56094550  1
  Al  Al15  1  0.11097482  0.76038725  0.37029989  1
  Al  Al16  1  0.76931021  0.76633951  0.81372612  1
  Al  Al17  1  0.88909232  0.87433216  0.62575504  1
  Al  Al18  1  0.44401621  0.75588503  0.31693182  1
  Al  Al19  1  0.56080195  0.85792696  0.06008421  1
  Al  Al20  1  0.12133577  0.75323897  0.86677958  1
  Al  Al21  1  0.45010216  0.75098467  0.81228602  1
  Al  Al22  1  0.55361763  0.87163181  0.56620743  1
  Sc  Sc23  1  0.44491073  0.09141077  0.31964852  1
  Sc  Sc24  1  0.10846472  0.09387393  0.82897013  1
  Sc  Sc25  1  0.77793339  0.09604014  0.33291395  1
  Sc  Sc26  1  0.45374429  0.08900366  0.82727596  1
  Sc  Sc27  1  0.11528156  0.42660658  0.33244328  1
  Sc  Sc28  1  0.76485455  0.42702561  0.82981904  1
  Sc  Sc29  1  0.88670027  0.53783047  0.58667232  1
  Sc  Sc30  1  0.12081020  0.42963946  0.82923078  1
  Sc  Sc31  1  0.77317614  0.42579709  0.31548900  1
  Sc  Sc32  1  0.22920433  0.86759138  0.08736941  1
  Sc  Sc33  1  0.22653148  0.87286946  0.58066128  1
  Sc  Sc34  1  0.77529796  0.75836029  0.32355795  1
  Sc  Sc35  1  0.88516286  0.87592355  0.08552108  1
  N  N36  1  0.21617848  0.19083571  0.36736131  1
  N  N37  1  0.09805412  0.11459513  0.11326384  1
  N  N38  1  0.87807085  0.19321772  0.87426331  1
  N  N39  1  0.77625065  0.09685178  0.60912166  1
  N  N40  1  0.53882410  0.23081847  0.37560065  1
  N  N41  1  0.45179709  0.08984324  0.09770864  1
  N  N42  1  0.22758411  0.20251512  0.87929252  1
  N  N43  1  0.10296356  0.11340281  0.61610232  1
  N  N44  1  0.90884962  0.19608921  0.37449320  1
  N  N45  1  0.76241320  0.12091153  0.11730206  1
  N  N46  1  0.56166813  0.22240961  0.86490811  1
  N  N47  1  0.44473306  0.09297869  0.60492699  1
  N  N48  1  0.22936636  0.55256173  0.32859080  1
  N  N49  1  0.11056086  0.43045284  0.09764769  1
  N  N50  1  0.88094237  0.55541577  0.85206951  1
  N  N51  1  0.76482707  0.41523827  0.61088527  1
  N  N52  1  0.53669725  0.54827631  0.37037346  1
  N  N53  1  0.44702996  0.42744131  0.11755982  1
  N  N54  1  0.23231920  0.55101655  0.81466824  1
  N  N55  1  0.13449465  0.41512019  0.59848824  1
  N  N56  1  0.88720498  0.53432444  0.37668626  1
  N  N57  1  0.77650591  0.43018936  0.09115233  1
  N  N58  1  0.53205620  0.54934750  0.87426758  1
  N  N59  1  0.44917213  0.42830550  0.61478179  1
  N  N60  1  0.22223329  0.87197734  0.34406906  1
  N  N61  1  0.12246349  0.73921524  0.05798189  1
  N  N62  1  0.88723116  0.87600901  0.83339385  1
  N  N63  1  0.76441809  0.78351657  0.61603989  1
  N  N64  1  0.54261310  0.86167159  0.37684276  1
  N  N65  1  0.46596463  0.74651124  0.12423153  1
  N  N66  1  0.23476590  0.85641336  0.84574463  1
  N  N67  1  0.09792162  0.75570657  0.56873389  1
  N  N68  1  0.90948589  0.86100462  0.31079076  1
  N  N69  1  0.77086377  0.74803863  0.10543290  1
  N  N70  1  0.56224647  0.84969621  0.86872880  1
  N  N71  1  0.46821661  0.74511421  0.62096902  1
