# generated using pymatgen
data_Sc13Al23N36
_symmetry_space_group_name_H-M   'P 1'
_cell_length_a   10.02072008
_cell_length_b   10.07555570
_cell_length_c   10.09263996
_cell_angle_alpha   90.51718968
_cell_angle_beta   90.01421559
_cell_angle_gamma   59.78061797
_symmetry_Int_Tables_number   1
_chemical_formula_structural   Sc13Al23N36
_chemical_formula_sum   'Sc13 Al23 N36'
_cell_volume   880.47285894
_cell_formula_units_Z   1
loop_
 _symmetry_equiv_pos_site_id
 _symmetry_equiv_pos_as_xyz
  1  'x, y, z'
loop_
 _atom_site_type_symbol
 _atom_site_label
 _atom_site_symmetry_multiplicity
 _atom_site_fract_x
 _atom_site_fract_y
 _atom_site_fract_z
 _atom_site_occupancy
  Al  Al0  1  0.10937939  0.09675455  0.38967289  1
  Al  Al1  1  0.21772965  0.20578463  0.13508988  1
  Al  Al2  1  0.77045114  0.10470318  0.88613052  1
  Al  Al3  1  0.88348175  0.20020627  0.63652242  1
  Al  Al4  1  0.54911454  0.21950545  0.13267393  1
  Al  Al5  1  0.22878878  0.20638626  0.63316913  1
  Al  Al6  1  0.88751073  0.21401867  0.13349470  1
  Al  Al7  1  0.55750337  0.21079089  0.63526643  1
  Al  Al8  1  0.22873535  0.53922812  0.13690793  1
  Al  Al9  1  0.43950177  0.43830950  0.38518042  1
  Al  Al10  1  0.55250152  0.53712534  0.13867972  1
  Al  Al11  1  0.23013226  0.53635998  0.63370140  1
  Al  Al12  1  0.88308211  0.54095138  0.07217395  1
  Al  Al13  1  0.44250738  0.43540267  0.88615334  1
  Al  Al14  1  0.55175801  0.53081856  0.63863910  1
  Al  Al15  1  0.10979171  0.75722803  0.38758138  1
  Al  Al16  1  0.76789417  0.76790355  0.82924425  1
  Al  Al17  1  0.88558942  0.87915118  0.64613008  1
  Al  Al18  1  0.44321837  0.75962508  0.33256477  1
  Al  Al19  1  0.55441935  0.86012481  0.07389944  1
  Al  Al20  1  0.12466704  0.75287133  0.87929717  1
  Al  Al21  1  0.44690814  0.75714321  0.81947084  1
  Al  Al22  1  0.55773211  0.86936117  0.57807530  1
  Sc  Sc23  1  0.44418711  0.09486834  0.36854772  1
  Sc  Sc24  1  0.11143727  0.09030790  0.87059777  1
  Sc  Sc25  1  0.78254821  0.09030507  0.37247893  1
  Sc  Sc26  1  0.45469418  0.09142466  0.86893141  1
  Sc  Sc27  1  0.12185576  0.42507545  0.37321617  1
  Sc  Sc28  1  0.76698992  0.42488025  0.87010828  1
  Sc  Sc29  1  0.89160709  0.53856759  0.61258212  1
  Sc  Sc30  1  0.12400382  0.43111567  0.87698397  1
  Sc  Sc31  1  0.77132427  0.42242639  0.38363569  1
  Sc  Sc32  1  0.21332906  0.87714128  0.13455410  1
  Sc  Sc33  1  0.22378158  0.86817674  0.60626296  1
  Sc  Sc34  1  0.77903568  0.75413692  0.33299312  1
  Sc  Sc35  1  0.88733633  0.87038132  0.09907227  1
  N  N36  1  0.21433484  0.19119361  0.32275145  1
  N  N37  1  0.09999347  0.11400263  0.07900793  1
  N  N38  1  0.88126927  0.19118998  0.82192338  1
  N  N39  1  0.77915628  0.08922704  0.58635814  1
  N  N40  1  0.54415079  0.23168464  0.32119543  1
  N  N41  1  0.44610185  0.09463468  0.09480560  1
  N  N42  1  0.22643598  0.20442122  0.81991895  1
  N  N43  1  0.10021638  0.11701138  0.58218176  1
  N  N44  1  0.90890667  0.19304302  0.32100901  1
  N  N45  1  0.76469804  0.12058826  0.07817552  1
  N  N46  1  0.56149191  0.22323173  0.82567802  1
  N  N47  1  0.44966212  0.09501877  0.59635854  1
  N  N48  1  0.23241517  0.55302802  0.32467305  1
  N  N49  1  0.11183499  0.42930462  0.09920014  1
  N  N50  1  0.88232511  0.55499301  0.86458149  1
  N  N51  1  0.76593387  0.41394640  0.60323765  1
  N  N52  1  0.53777962  0.54415717  0.32986056  1
  N  N53  1  0.44192718  0.43113979  0.07603838  1
  N  N54  1  0.23678762  0.54718428  0.82037925  1
  N  N55  1  0.13904481  0.41639475  0.59312847  1
  N  N56  1  0.88986518  0.53657713  0.39989923  1
  N  N57  1  0.77312364  0.43064563  0.09267176  1
  N  N58  1  0.53522010  0.54435793  0.83000457  1
  N  N59  1  0.44477785  0.42851334  0.57558142  1
  N  N60  1  0.21986716  0.87200154  0.36255627  1
  N  N61  1  0.12661837  0.73778068  0.06527483  1
  N  N62  1  0.88627614  0.87800841  0.84885529  1
  N  N63  1  0.76343787  0.78506668  0.63773985  1
  N  N64  1  0.54770935  0.85838176  0.39006325  1
  N  N65  1  0.45320865  0.75856769  0.13577246  1
  N  N66  1  0.22922696  0.85584341  0.83011231  1
  N  N67  1  0.09488091  0.74980285  0.57899887  1
  N  N68  1  0.91177862  0.86138677  0.31379128  1
  N  N69  1  0.76647073  0.74836054  0.11974189  1
  N  N70  1  0.55990056  0.84890235  0.88431711  1
  N  N71  1  0.46804916  0.74990032  0.62690766  1
