# generated using pymatgen
data_Sc13Al23N36
_symmetry_space_group_name_H-M   'P 1'
_cell_length_a   10.08422139
_cell_length_b   10.12835567
_cell_length_c   9.95874809
_cell_angle_alpha   90.35764507
_cell_angle_beta   90.08216974
_cell_angle_gamma   59.78025412
_symmetry_Int_Tables_number   1
_chemical_formula_structural   Sc13Al23N36
_chemical_formula_sum   'Sc13 Al23 N36'
_cell_volume   878.90403766
_cell_formula_units_Z   1
loop_
 _symmetry_equiv_pos_site_id
 _symmetry_equiv_pos_as_xyz
  1  'x, y, z'
loop_
 _atom_site_type_symbol
 _atom_site_label
 _atom_site_symmetry_multiplicity
 _atom_site_fract_x
 _atom_site_fract_y
 _atom_site_fract_z
 _atom_site_occupancy
  Al  Al0  1  0.11701754  0.09105577  0.39490391  1
  Al  Al1  1  0.21191485  0.20629263  0.13147349  1
  Al  Al2  1  0.77374045  0.09914072  0.81570980  1
  Al  Al3  1  0.88643681  0.20738519  0.57911396  1
  Al  Al4  1  0.54613372  0.22090040  0.13970053  1
  Al  Al5  1  0.23371878  0.20611859  0.63587131  1
  Al  Al6  1  0.87728364  0.20936514  0.06400432  1
  Al  Al7  1  0.54761286  0.21685366  0.62711436  1
  Al  Al8  1  0.22671273  0.54032598  0.13424920  1
  Al  Al9  1  0.43529453  0.44027911  0.38395150  1
  Al  Al10  1  0.54763758  0.54519539  0.07565445  1
  Al  Al11  1  0.23116819  0.53573664  0.63196894  1
  Al  Al12  1  0.88169472  0.54243798  0.06574844  1
  Al  Al13  1  0.44140667  0.43355391  0.88372474  1
  Al  Al14  1  0.55848494  0.53699059  0.57092706  1
  Al  Al15  1  0.11139065  0.75861021  0.38463854  1
  Al  Al16  1  0.76843014  0.76718820  0.82367026  1
  Al  Al17  1  0.89124764  0.86937423  0.63359040  1
  Al  Al18  1  0.44600340  0.75479544  0.32997943  1
  Al  Al19  1  0.55703041  0.85802103  0.07584465  1
  Al  Al20  1  0.12406652  0.75338305  0.87719987  1
  Al  Al21  1  0.45072618  0.75274725  0.82288900  1
  Al  Al22  1  0.55630288  0.86935005  0.57763704  1
  Sc  Sc23  1  0.44073348  0.09183762  0.36125374  1
  Sc  Sc24  1  0.11169206  0.09183894  0.85622998  1
  Sc  Sc25  1  0.77977762  0.09447540  0.34957214  1
  Sc  Sc26  1  0.45754755  0.09259036  0.87311923  1
  Sc  Sc27  1  0.12308276  0.42511217  0.36732466  1
  Sc  Sc28  1  0.76186042  0.43024417  0.83954378  1
  Sc  Sc29  1  0.89144163  0.53444615  0.60252725  1
  Sc  Sc30  1  0.12249697  0.43402953  0.87297281  1
  Sc  Sc31  1  0.77886519  0.42254293  0.32312245  1
  Sc  Sc32  1  0.21519605  0.87732829  0.12573644  1
  Sc  Sc33  1  0.22994146  0.86119802  0.60871352  1
  Sc  Sc34  1  0.77886197  0.75513719  0.33694503  1
  Sc  Sc35  1  0.88308115  0.87512879  0.09617898  1
  N  N36  1  0.20923544  0.19263931  0.32263321  1
  N  N37  1  0.09791545  0.11283550  0.07694881  1
  N  N38  1  0.87403214  0.19605720  0.87211686  1
  N  N39  1  0.78133057  0.09058361  0.61064403  1
  N  N40  1  0.53351199  0.23493104  0.33214278  1
  N  N41  1  0.44611105  0.09174448  0.10149599  1
  N  N42  1  0.23055725  0.20657486  0.82603443  1
  N  N43  1  0.11192369  0.10878010  0.59865794  1
  N  N44  1  0.90540234  0.19753519  0.38803302  1
  N  N45  1  0.76390483  0.11882534  0.12328608  1
  N  N46  1  0.55809418  0.22654051  0.82073312  1
  N  N47  1  0.45001598  0.09312314  0.59558619  1
  N  N48  1  0.23199054  0.55579888  0.32322996  1
  N  N49  1  0.11028189  0.42997941  0.09852750  1
  N  N50  1  0.88125990  0.55628563  0.86243751  1
  N  N51  1  0.76543535  0.41556486  0.62347223  1
  N  N52  1  0.54260047  0.54818590  0.37707048  1
  N  N53  1  0.43844591  0.42674944  0.07897661  1
  N  N54  1  0.23744355  0.54845814  0.82036136  1
  N  N55  1  0.13887947  0.41607118  0.59325452  1
  N  N56  1  0.89091745  0.53163836  0.39025294  1
  N  N57  1  0.77509338  0.42944521  0.09960028  1
  N  N58  1  0.53167751  0.55543511  0.88555943  1
  N  N59  1  0.44211871  0.43086820  0.57801048  1
  N  N60  1  0.22171352  0.87185397  0.36077686  1
  N  N61  1  0.12296061  0.74046455  0.06557025  1
  N  N62  1  0.88695836  0.87544584  0.84170385  1
  N  N63  1  0.76585603  0.78087048  0.62702822  1
  N  N64  1  0.54590187  0.85708578  0.38799528  1
  N  N65  1  0.45723814  0.75205496  0.13672845  1
  N  N66  1  0.23160399  0.85498088  0.83403092  1
  N  N67  1  0.09955300  0.74739089  0.57812254  1
  N  N68  1  0.91128537  0.85997501  0.32089941  1
  N  N69  1  0.76759446  0.74803486  0.11980668  1
  N  N70  1  0.56158128  0.85070715  0.88224755  1
  N  N71  1  0.47382652  0.74367460  0.63211665  1
