# generated using pymatgen
data_Sc13Al23N36
_symmetry_space_group_name_H-M   'P 1'
_cell_length_a   10.14056626
_cell_length_b   10.18346532
_cell_length_c   9.78561962
_cell_angle_alpha   90.46986914
_cell_angle_beta   89.89615130
_cell_angle_gamma   59.80644557
_symmetry_Int_Tables_number   1
_chemical_formula_structural   Sc13Al23N36
_chemical_formula_sum   'Sc13 Al23 N36'
_cell_volume   873.37661509
_cell_formula_units_Z   1
loop_
 _symmetry_equiv_pos_site_id
 _symmetry_equiv_pos_as_xyz
  1  'x, y, z'
loop_
 _atom_site_type_symbol
 _atom_site_label
 _atom_site_symmetry_multiplicity
 _atom_site_fract_x
 _atom_site_fract_y
 _atom_site_fract_z
 _atom_site_occupancy
  Al  Al0  1  0.11731164  0.08991753  0.39002887  1
  Al  Al1  1  0.21253391  0.20565585  0.12762173  1
  Al  Al2  1  0.77120739  0.09971165  0.82385149  1
  Al  Al3  1  0.88679961  0.20556266  0.58093399  1
  Al  Al4  1  0.54674969  0.22090422  0.13297912  1
  Al  Al5  1  0.23345717  0.20610583  0.63171849  1
  Al  Al6  1  0.87879197  0.20963244  0.06568203  1
  Al  Al7  1  0.54996548  0.21504973  0.62386808  1
  Al  Al8  1  0.22783332  0.54051712  0.13173899  1
  Al  Al9  1  0.43831188  0.44139833  0.38064735  1
  Al  Al10  1  0.54928845  0.53800499  0.12647388  1
  Al  Al11  1  0.23051686  0.53617649  0.62768198  1
  Al  Al12  1  0.88288417  0.54257695  0.06937570  1
  Al  Al13  1  0.44275243  0.43432842  0.88060116  1
  Al  Al14  1  0.55228951  0.53278555  0.63172997  1
  Al  Al15  1  0.11126882  0.75868778  0.38079094  1
  Al  Al16  1  0.76876453  0.76763840  0.82251615  1
  Al  Al17  1  0.88932821  0.87201427  0.63115829  1
  Al  Al18  1  0.44284036  0.75786874  0.32632709  1
  Al  Al19  1  0.55822381  0.85811387  0.07343800  1
  Al  Al20  1  0.12386904  0.75183103  0.87341846  1
  Al  Al21  1  0.44780655  0.75666921  0.82372580  1
  Al  Al22  1  0.55493353  0.87009712  0.57459299  1
  Sc  Sc23  1  0.44182135  0.09190355  0.35505560  1
  Sc  Sc24  1  0.11032149  0.09314318  0.85141198  1
  Sc  Sc25  1  0.77906104  0.09481211  0.34795632  1
  Sc  Sc26  1  0.45665307  0.09125983  0.86615515  1
  Sc  Sc27  1  0.12399360  0.42451270  0.36286273  1
  Sc  Sc28  1  0.76583101  0.43057443  0.84922319  1
  Sc  Sc29  1  0.89249628  0.53548863  0.60388985  1
  Sc  Sc30  1  0.12312242  0.43362891  0.86936694  1
  Sc  Sc31  1  0.77876841  0.42299508  0.34102017  1
  Sc  Sc32  1  0.21637716  0.87668957  0.11389292  1
  Sc  Sc33  1  0.22891711  0.86186961  0.60422920  1
  Sc  Sc34  1  0.77950618  0.75684676  0.33928756  1
  Sc  Sc35  1  0.88403479  0.87352058  0.09332814  1
  N  N36  1  0.21086845  0.19163897  0.32248026  1
  N  N37  1  0.09695748  0.11407127  0.07625360  1
  N  N38  1  0.87450593  0.19693726  0.86748830  1
  N  N39  1  0.77987891  0.09123638  0.60774903  1
  N  N40  1  0.53420658  0.23517208  0.32926046  1
  N  N41  1  0.44616057  0.09258910  0.09847959  1
  N  N42  1  0.22971202  0.20636040  0.82571738  1
  N  N43  1  0.11168524  0.10824197  0.59807138  1
  N  N44  1  0.90753233  0.19375291  0.38430834  1
  N  N45  1  0.76317285  0.11757100  0.11334064  1
  N  N46  1  0.55699344  0.22549190  0.82122207  1
  N  N47  1  0.45033811  0.09314160  0.59461958  1
  N  N48  1  0.23244067  0.55472425  0.32419491  1
  N  N49  1  0.11160015  0.42956593  0.09881476  1
  N  N50  1  0.88288110  0.55748336  0.85949424  1
  N  N51  1  0.76724062  0.41636872  0.61459481  1
  N  N52  1  0.53852010  0.54417505  0.32664301  1
  N  N53  1  0.44078663  0.42987730  0.07498446  1
  N  N54  1  0.23767836  0.54746656  0.81938281  1
  N  N55  1  0.13952756  0.41574132  0.59289648  1
  N  N56  1  0.89346918  0.53357229  0.38743718  1
  N  N57  1  0.77519612  0.42983464  0.09776674  1
  N  N58  1  0.53316724  0.54671686  0.83350039  1
  N  N59  1  0.44395397  0.43216652  0.57511943  1
  N  N60  1  0.22168338  0.87119982  0.35769454  1
  N  N61  1  0.12239056  0.73919196  0.06497053  1
  N  N62  1  0.88576246  0.87597979  0.84128163  1
  N  N63  1  0.76513912  0.78241322  0.62157528  1
  N  N64  1  0.54523233  0.85770685  0.38110976  1
  N  N65  1  0.45464874  0.75578633  0.12370011  1
  N  N66  1  0.23098753  0.85561596  0.83844205  1
  N  N67  1  0.09863966  0.74840049  0.57855068  1
  N  N68  1  0.91089520  0.86162307  0.32016515  1
  N  N69  1  0.76763569  0.74886764  0.11750259  1
  N  N70  1  0.56254865  0.85001443  0.87705285  1
  N  N71  1  0.46834126  0.74912970  0.62396053  1
