# generated using pymatgen
data_Sc13Al23N36
_symmetry_space_group_name_H-M   'P 1'
_cell_length_a   10.06903923
_cell_length_b   10.09470519
_cell_length_c   9.91452573
_cell_angle_alpha   89.68586884
_cell_angle_beta   90.03668412
_cell_angle_gamma   60.08793543
_symmetry_Int_Tables_number   1
_chemical_formula_structural   Sc13Al23N36
_chemical_formula_sum   'Sc13 Al23 N36'
_cell_volume   873.49128276
_cell_formula_units_Z   1
loop_
 _symmetry_equiv_pos_site_id
 _symmetry_equiv_pos_as_xyz
  1  'x, y, z'
loop_
 _atom_site_type_symbol
 _atom_site_label
 _atom_site_symmetry_multiplicity
 _atom_site_fract_x
 _atom_site_fract_y
 _atom_site_fract_z
 _atom_site_occupancy
  Al  Al0  1  0.11004091  0.09296974  0.31161073  1
  Al  Al1  1  0.22140264  0.20868655  0.06725370  1
  Al  Al2  1  0.77077125  0.10301973  0.80987155  1
  Al  Al3  1  0.89070348  0.20611694  0.56490321  1
  Al  Al4  1  0.55584220  0.21716269  0.06024016  1
  Al  Al5  1  0.22478733  0.20190753  0.56022104  1
  Al  Al6  1  0.88038242  0.21055558  0.06364836  1
  Al  Al7  1  0.54804024  0.21496864  0.56509361  1
  Al  Al8  1  0.22809812  0.53440199  0.09567702  1
  Al  Al9  1  0.44127920  0.43658022  0.31558083  1
  Al  Al10  1  0.55018995  0.54030852  0.06308709  1
  Al  Al11  1  0.22880252  0.53741869  0.59065012  1
  Al  Al12  1  0.88569813  0.54168361  0.05214055  1
  Al  Al13  1  0.44583052  0.43497459  0.80875847  1
  Al  Al14  1  0.55398122  0.53525589  0.56091800  1
  Al  Al15  1  0.11074662  0.76123600  0.37083200  1
  Al  Al16  1  0.76927715  0.76624642  0.81387655  1
  Al  Al17  1  0.88882164  0.87461472  0.62622531  1
  Al  Al18  1  0.44412066  0.75581339  0.31712778  1
  Al  Al19  1  0.56085565  0.85793625  0.06016047  1
  Al  Al20  1  0.12087253  0.75392120  0.86632980  1
  Al  Al21  1  0.45025438  0.75082469  0.81243919  1
  Al  Al22  1  0.55358594  0.87167459  0.56632140  1
  Sc  Sc23  1  0.44492278  0.09156441  0.31995019  1
  Sc  Sc24  1  0.10849714  0.09395979  0.82914297  1
  Sc  Sc25  1  0.77792238  0.09605267  0.33329291  1
  Sc  Sc26  1  0.45370770  0.08912832  0.82734281  1
  Sc  Sc27  1  0.11554310  0.42726937  0.33012370  1
  Sc  Sc28  1  0.76489655  0.42697888  0.82978607  1
  Sc  Sc29  1  0.88650693  0.53796603  0.58629198  1
  Sc  Sc30  1  0.12101846  0.42919030  0.82587885  1
  Sc  Sc31  1  0.77331913  0.42574151  0.31570601  1
  Sc  Sc32  1  0.22924176  0.86791412  0.08778237  1
  Sc  Sc33  1  0.22649874  0.87296351  0.58137347  1
  Sc  Sc34  1  0.77525071  0.75836752  0.32374714  1
  Sc  Sc35  1  0.88488594  0.87620986  0.08576315  1
  N  N36  1  0.21600094  0.19135546  0.36703179  1
  N  N37  1  0.09797578  0.11481258  0.11322815  1
  N  N38  1  0.87813334  0.19316155  0.87427265  1
  N  N39  1  0.77600614  0.09706680  0.60927694  1
  N  N40  1  0.53900031  0.23088555  0.37561446  1
  N  N41  1  0.45181131  0.08991114  0.09776054  1
  N  N42  1  0.22758826  0.20254813  0.87925576  1
  N  N43  1  0.10290858  0.11354744  0.61609211  1
  N  N44  1  0.90891571  0.19596898  0.37448699  1
  N  N45  1  0.76218949  0.12119459  0.11749699  1
  N  N46  1  0.56177697  0.22240253  0.86511811  1
  N  N47  1  0.44461709  0.09308901  0.60478863  1
  N  N48  1  0.23103172  0.55060804  0.34589642  1
  N  N49  1  0.11073782  0.43044055  0.09797018  1
  N  N50  1  0.88093654  0.55540146  0.85198652  1
  N  N51  1  0.76473991  0.41526081  0.61063822  1
  N  N52  1  0.53694698  0.54811681  0.37002129  1
  N  N53  1  0.44563850  0.42812484  0.11833980  1
  N  N54  1  0.23383963  0.54843555  0.82631865  1
  N  N55  1  0.13424535  0.41492171  0.59909892  1
  N  N56  1  0.88756951  0.53424485  0.37632634  1
  N  N57  1  0.77650442  0.43016756  0.09118120  1
  N  N58  1  0.53233428  0.54914869  0.87432492  1
  N  N59  1  0.44839762  0.42885503  0.61553099  1
  N  N60  1  0.22227195  0.87209098  0.34406553  1
  N  N61  1  0.12186120  0.74065598  0.05972757  1
  N  N62  1  0.88699260  0.87609133  0.83389642  1
  N  N63  1  0.76437640  0.78360386  0.61599185  1
  N  N64  1  0.54254802  0.86174619  0.37679818  1
  N  N65  1  0.46600688  0.74656775  0.12423290  1
  N  N66  1  0.23484010  0.85641463  0.84565612  1
  N  N67  1  0.09734636  0.75701473  0.57124780  1
  N  N68  1  0.90950191  0.86091939  0.31125092  1
  N  N69  1  0.77093265  0.74800622  0.10539674  1
  N  N70  1  0.56215409  0.84980053  0.86869553  1
  N  N71  1  0.46835302  0.74501390  0.62094839  1
