# generated using pymatgen
data_Sc13Al23N36
_symmetry_space_group_name_H-M   'P 1'
_cell_length_a   10.13035300
_cell_length_b   10.17466681
_cell_length_c   9.80921150
_cell_angle_alpha   90.41130710
_cell_angle_beta   89.97923409
_cell_angle_gamma   59.77194208
_symmetry_Int_Tables_number   1
_chemical_formula_structural   Sc13Al23N36
_chemical_formula_sum   'Sc13 Al23 N36'
_cell_volume   873.55667290
_cell_formula_units_Z   1
loop_
 _symmetry_equiv_pos_site_id
 _symmetry_equiv_pos_as_xyz
  1  'x, y, z'
loop_
 _atom_site_type_symbol
 _atom_site_label
 _atom_site_symmetry_multiplicity
 _atom_site_fract_x
 _atom_site_fract_y
 _atom_site_fract_z
 _atom_site_occupancy
  Al  Al0  1  0.11703249  0.09009473  0.39265898  1
  Al  Al1  1  0.21207788  0.20615277  0.12978411  1
  Al  Al2  1  0.77209859  0.09980715  0.81677610  1
  Al  Al3  1  0.88716630  0.20644908  0.58157107  1
  Al  Al4  1  0.54606883  0.22058151  0.13958932  1
  Al  Al5  1  0.23361827  0.20596965  0.63480514  1
  Al  Al6  1  0.87874177  0.20785965  0.06613270  1
  Al  Al7  1  0.54795725  0.21627669  0.62309527  1
  Al  Al8  1  0.22612185  0.54043005  0.13416141  1
  Al  Al9  1  0.43719934  0.44212363  0.37998358  1
  Al  Al10  1  0.54806528  0.54164741  0.09862341  1
  Al  Al11  1  0.23033925  0.53703337  0.62986010  1
  Al  Al12  1  0.88360022  0.54321611  0.06837571  1
  Al  Al13  1  0.44213115  0.43348871  0.88440691  1
  Al  Al14  1  0.55619887  0.53360177  0.60657172  1
  Al  Al15  1  0.11119786  0.75892932  0.38301049  1
  Al  Al16  1  0.76905822  0.76795630  0.82377971  1
  Al  Al17  1  0.89041396  0.87008899  0.63131659  1
  Al  Al18  1  0.44453997  0.75560120  0.32525032  1
  Al  Al19  1  0.55786165  0.85978618  0.07505866  1
  Al  Al20  1  0.12322746  0.75292206  0.87576310  1
  Al  Al21  1  0.44923533  0.75471918  0.82924926  1
  Al  Al22  1  0.55550941  0.86873974  0.57812935  1
  Sc  Sc23  1  0.44100566  0.09029633  0.35845819  1
  Sc  Sc24  1  0.11078686  0.09288316  0.85410045  1
  Sc  Sc25  1  0.77913404  0.09502718  0.35185462  1
  Sc  Sc26  1  0.45760812  0.09297320  0.86933786  1
  Sc  Sc27  1  0.12326219  0.42449303  0.36570328  1
  Sc  Sc28  1  0.76543863  0.42976865  0.84958505  1
  Sc  Sc29  1  0.89191113  0.53420781  0.60507773  1
  Sc  Sc30  1  0.12349518  0.43421831  0.87083998  1
  Sc  Sc31  1  0.77997039  0.42193413  0.32773705  1
  Sc  Sc32  1  0.21498193  0.87753931  0.11841814  1
  Sc  Sc33  1  0.22990870  0.86115496  0.60760644  1
  Sc  Sc34  1  0.77881951  0.75567219  0.34103812  1
  Sc  Sc35  1  0.88251396  0.87549944  0.09637757  1
  N  N36  1  0.20996553  0.19197488  0.32404033  1
  N  N37  1  0.09720027  0.11375753  0.07808913  1
  N  N38  1  0.87462884  0.19467640  0.87045708  1
  N  N39  1  0.78058996  0.09077455  0.60885413  1
  N  N40  1  0.53295921  0.23414106  0.33587318  1
  N  N41  1  0.44683274  0.09235198  0.10182388  1
  N  N42  1  0.23023034  0.20661773  0.82818492  1
  N  N43  1  0.11211399  0.10813586  0.60034669  1
  N  N44  1  0.90670173  0.19580516  0.38752025  1
  N  N45  1  0.76288238  0.11929359  0.12234620  1
  N  N46  1  0.55738376  0.22710509  0.81969860  1
  N  N47  1  0.44996544  0.09230298  0.59678841  1
  N  N48  1  0.23093119  0.55529275  0.32594007  1
  N  N49  1  0.11086587  0.42989016  0.09996400  1
  N  N50  1  0.88290546  0.55765706  0.86113859  1
  N  N51  1  0.76655830  0.41503467  0.62382445  1
  N  N52  1  0.54083266  0.54406269  0.33753071  1
  N  N53  1  0.43773133  0.42645554  0.07962450  1
  N  N54  1  0.23829668  0.54838339  0.82067450  1
  N  N55  1  0.13955545  0.41598600  0.59516786  1
  N  N56  1  0.89217685  0.53193544  0.38992809  1
  N  N57  1  0.77843908  0.42841362  0.09770973  1
  N  N58  1  0.53362464  0.55171998  0.87485331  1
  N  N59  1  0.44303016  0.43400825  0.57683014  1
  N  N60  1  0.22188918  0.87110600  0.35988096  1
  N  N61  1  0.12125715  0.73993262  0.06688010  1
  N  N62  1  0.88577680  0.87631336  0.84153956  1
  N  N63  1  0.76594881  0.78094092  0.62328343  1
  N  N64  1  0.54465558  0.85597580  0.38588430  1
  N  N65  1  0.45379201  0.75810313  0.12710388  1
  N  N66  1  0.23093215  0.85577989  0.83883360  1
  N  N67  1  0.09951164  0.74852967  0.57992291  1
  N  N68  1  0.91000829  0.86116333  0.32361032  1
  N  N69  1  0.76756137  0.74898422  0.11968058  1
  N  N70  1  0.56251092  0.85200780  0.87907982  1
  N  N71  1  0.47174303  0.74444431  0.63190193  1
