# generated using pymatgen
data_Sc13Al23N36
_symmetry_space_group_name_H-M   'P 1'
_cell_length_a   10.00114845
_cell_length_b   10.05229726
_cell_length_c   10.14653980
_cell_angle_alpha   90.27302707
_cell_angle_beta   90.41298001
_cell_angle_gamma   60.06468136
_symmetry_Int_Tables_number   1
_chemical_formula_structural   Sc13Al23N36
_chemical_formula_sum   'Sc13 Al23 N36'
_cell_volume   883.96446588
_cell_formula_units_Z   1
loop_
 _symmetry_equiv_pos_site_id
 _symmetry_equiv_pos_as_xyz
  1  'x, y, z'
loop_
 _atom_site_type_symbol
 _atom_site_label
 _atom_site_symmetry_multiplicity
 _atom_site_fract_x
 _atom_site_fract_y
 _atom_site_fract_z
 _atom_site_occupancy
  Al  Al0  1  0.10783460  0.09374496  0.31607155  1
  Al  Al1  1  0.21977596  0.20900932  0.07241680  1
  Al  Al2  1  0.77816998  0.09885435  0.81002719  1
  Al  Al3  1  0.89171526  0.20602041  0.56706550  1
  Al  Al4  1  0.54724021  0.22118126  0.13481547  1
  Al  Al5  1  0.22369242  0.20466728  0.56787730  1
  Al  Al6  1  0.87956492  0.20957830  0.06756832  1
  Al  Al7  1  0.54830265  0.21715200  0.62331371  1
  Al  Al8  1  0.22956059  0.53917736  0.12654033  1
  Al  Al9  1  0.43311029  0.43929867  0.38098379  1
  Al  Al10  1  0.55386609  0.54295670  0.06538774  1
  Al  Al11  1  0.23097444  0.53900418  0.62643075  1
  Al  Al12  1  0.88562191  0.54123460  0.05715977  1
  Al  Al13  1  0.44253372  0.43296614  0.87903046  1
  Al  Al14  1  0.55574374  0.53874800  0.56603937  1
  Al  Al15  1  0.11184525  0.75752909  0.37285994  1
  Al  Al16  1  0.77099345  0.76533187  0.81712084  1
  Al  Al17  1  0.89327327  0.86920191  0.62852587  1
  Al  Al18  1  0.44370752  0.75539792  0.31939507  1
  Al  Al19  1  0.55977255  0.85940338  0.06442789  1
  Al  Al20  1  0.12241918  0.75375341  0.87370231  1
  Al  Al21  1  0.44974582  0.75336558  0.81623194  1
  Al  Al22  1  0.55481982  0.87096132  0.57179266  1
  Sc  Sc23  1  0.43978093  0.08747080  0.33069057  1
  Sc  Sc24  1  0.10945129  0.09379125  0.82937923  1
  Sc  Sc25  1  0.77788588  0.09337815  0.34513759  1
  Sc  Sc26  1  0.45433138  0.09002108  0.83737498  1
  Sc  Sc27  1  0.11561970  0.42574439  0.32941723  1
  Sc  Sc28  1  0.76619456  0.42556536  0.83141209  1
  Sc  Sc29  1  0.88904515  0.53563119  0.58778961  1
  Sc  Sc30  1  0.12088520  0.43214984  0.83765471  1
  Sc  Sc31  1  0.77216235  0.42437126  0.31578971  1
  Sc  Sc32  1  0.22840518  0.86952099  0.08742341  1
  Sc  Sc33  1  0.22693496  0.87342410  0.57598568  1
  Sc  Sc34  1  0.77459123  0.75502151  0.32397256  1
  Sc  Sc35  1  0.88466005  0.87652957  0.09433650  1
  N  N36  1  0.21118712  0.19408788  0.37924539  1
  N  N37  1  0.09688147  0.11603174  0.12346402  1
  N  N38  1  0.87960106  0.19151635  0.88231219  1
  N  N39  1  0.78232639  0.09179971  0.60664327  1
  N  N40  1  0.53175756  0.23522214  0.32579571  1
  N  N41  1  0.44851056  0.08726457  0.10787619  1
  N  N42  1  0.22633267  0.20432845  0.88818084  1
  N  N43  1  0.10343265  0.11266443  0.62187241  1
  N  N44  1  0.90701842  0.19708736  0.38163545  1
  N  N45  1  0.76441601  0.11972139  0.12512618  1
  N  N46  1  0.56093713  0.22691638  0.81428129  1
  N  N47  1  0.44457237  0.09228052  0.61047216  1
  N  N48  1  0.23228177  0.55410522  0.31457454  1
  N  N49  1  0.10975662  0.43070614  0.10473764  1
  N  N50  1  0.88105755  0.55581222  0.86243095  1
  N  N51  1  0.76484347  0.41424401  0.61873460  1
  N  N52  1  0.53916545  0.55099912  0.37639451  1
  N  N53  1  0.44049534  0.42594688  0.07047892  1
  N  N54  1  0.23957414  0.55214709  0.81266916  1
  N  N55  1  0.13429199  0.41587225  0.61402816  1
  N  N56  1  0.88894997  0.53169470  0.38223051  1
  N  N57  1  0.77681616  0.42954051  0.09764266  1
  N  N58  1  0.53648260  0.55391790  0.87923147  1
  N  N59  1  0.44021341  0.42913062  0.57079594  1
  N  N60  1  0.22145633  0.87265106  0.35054714  1
  N  N61  1  0.12218471  0.73788311  0.05932235  1
  N  N62  1  0.89181088  0.87417825  0.83260410  1
  N  N63  1  0.76558492  0.78018937  0.62481065  1
  N  N64  1  0.54428181  0.85788553  0.38670710  1
  N  N65  1  0.46561996  0.74756181  0.13134820  1
  N  N66  1  0.23587987  0.85832274  0.85871919  1
  N  N67  1  0.10158439  0.75006466  0.56711919  1
  N  N68  1  0.90950046  0.85848247  0.31364358  1
  N  N69  1  0.76979330  0.74785878  0.11202414  1
  N  N70  1  0.56362106  0.85142388  0.87621303  1
  N  N71  1  0.46644639  0.74725759  0.62907007  1
