# generated using pymatgen
data_Sc13Al23N36
_symmetry_space_group_name_H-M   'P 1'
_cell_length_a   10.13077975
_cell_length_b   10.17599636
_cell_length_c   9.80793948
_cell_angle_alpha   90.41902895
_cell_angle_beta   89.96627810
_cell_angle_gamma   59.77609038
_symmetry_Int_Tables_number   1
_chemical_formula_structural   Sc13Al23N36
_chemical_formula_sum   'Sc13 Al23 N36'
_cell_volume   873.62891037
_cell_formula_units_Z   1
loop_
 _symmetry_equiv_pos_site_id
 _symmetry_equiv_pos_as_xyz
  1  'x, y, z'
loop_
 _atom_site_type_symbol
 _atom_site_label
 _atom_site_symmetry_multiplicity
 _atom_site_fract_x
 _atom_site_fract_y
 _atom_site_fract_z
 _atom_site_occupancy
  Al  Al0  1  0.11714630  0.09002405  0.39266098  1
  Al  Al1  1  0.21207932  0.20617425  0.12978054  1
  Al  Al2  1  0.77203245  0.09977956  0.81669274  1
  Al  Al3  1  0.88717044  0.20652008  0.58164445  1
  Al  Al4  1  0.54604716  0.22070276  0.13945250  1
  Al  Al5  1  0.23363074  0.20594621  0.63473256  1
  Al  Al6  1  0.87876727  0.20773660  0.06629789  1
  Al  Al7  1  0.54796013  0.21626444  0.62288082  1
  Al  Al8  1  0.22615374  0.54052385  0.13411306  1
  Al  Al9  1  0.43783640  0.44255339  0.38035533  1
  Al  Al10  1  0.54813291  0.54047638  0.10853908  1
  Al  Al11  1  0.23028094  0.53707414  0.62975157  1
  Al  Al12  1  0.88362595  0.54336346  0.06855775  1
  Al  Al13  1  0.44219372  0.43342582  0.88422625  1
  Al  Al14  1  0.55494415  0.53299760  0.62127744  1
  Al  Al15  1  0.11123619  0.75884601  0.38295169  1
  Al  Al16  1  0.76911619  0.76800711  0.82365720  1
  Al  Al17  1  0.89042086  0.87007420  0.63122991  1
  Al  Al18  1  0.44438045  0.75572994  0.32509672  1
  Al  Al19  1  0.55796904  0.85983271  0.07492380  1
  Al  Al20  1  0.12310726  0.75288847  0.87571209  1
  Al  Al21  1  0.44859055  0.75601072  0.82941722  1
  Al  Al22  1  0.55540975  0.86873127  0.57787985  1
  Sc  Sc23  1  0.44103792  0.09035555  0.35837576  1
  Sc  Sc24  1  0.11073097  0.09290898  0.85405490  1
  Sc  Sc25  1  0.77906723  0.09504121  0.35187001  1
  Sc  Sc26  1  0.45758732  0.09300106  0.86924219  1
  Sc  Sc27  1  0.12346990  0.42445417  0.36575399  1
  Sc  Sc28  1  0.76655655  0.42929093  0.85088761  1
  Sc  Sc29  1  0.89176725  0.53419077  0.60513869  1
  Sc  Sc30  1  0.12351741  0.43418149  0.87079341  1
  Sc  Sc31  1  0.78008030  0.42184682  0.32919996  1
  Sc  Sc32  1  0.21489881  0.87760382  0.11807563  1
  Sc  Sc33  1  0.22995688  0.86118688  0.60744418  1
  Sc  Sc34  1  0.77891509  0.75567583  0.34107560  1
  Sc  Sc35  1  0.88248964  0.87552628  0.09636235  1
  N  N36  1  0.21001519  0.19194607  0.32403381  1
  N  N37  1  0.09712933  0.11388539  0.07811665  1
  N  N38  1  0.87470317  0.19439107  0.87056632  1
  N  N39  1  0.78061175  0.09076035  0.60878422  1
  N  N40  1  0.53278544  0.23442097  0.33578864  1
  N  N41  1  0.44681838  0.09253921  0.10174147  1
  N  N42  1  0.23024240  0.20655769  0.82814633  1
  N  N43  1  0.11214854  0.10811225  0.60029287  1
  N  N44  1  0.90685736  0.19557973  0.38744979  1
  N  N45  1  0.76281246  0.11932508  0.12238612  1
  N  N46  1  0.55732098  0.22696280  0.81954634  1
  N  N47  1  0.44998449  0.09234239  0.59657965  1
  N  N48  1  0.23121108  0.55517080  0.32598089  1
  N  N49  1  0.11097442  0.42988032  0.10000613  1
  N  N50  1  0.88302004  0.55786191  0.86126055  1
  N  N51  1  0.76691215  0.41496779  0.62347213  1
  N  N52  1  0.54038314  0.54325953  0.32860810  1
  N  N53  1  0.43809136  0.42695449  0.07866025  1
  N  N54  1  0.23808170  0.54837422  0.82066859  1
  N  N55  1  0.13961051  0.41593369  0.59514657  1
  N  N56  1  0.89233867  0.53197831  0.38983419  1
  N  N57  1  0.77814305  0.42858142  0.09731637  1
  N  N58  1  0.53378787  0.55017790  0.86312474  1
  N  N59  1  0.44337394  0.43451955  0.57653993  1
  N  N60  1  0.22205064  0.87094996  0.35972714  1
  N  N61  1  0.12117548  0.73991826  0.06688390  1
  N  N62  1  0.88574073  0.87633795  0.84150969  1
  N  N63  1  0.76588219  0.78100095  0.62315176  1
  N  N64  1  0.54468636  0.85589128  0.38543619  1
  N  N65  1  0.45354143  0.75838456  0.12549327  1
  N  N66  1  0.23070175  0.85590391  0.83912238  1
  N  N67  1  0.09949732  0.74849913  0.57987040  1
  N  N68  1  0.91003850  0.86121413  0.32359197  1
  N  N69  1  0.76755438  0.74905321  0.11973400  1
  N  N70  1  0.56267612  0.85205697  0.87903874  1
  N  N71  1  0.47107686  0.74556032  0.63118180  1
