# generated using pymatgen
data_Sc13Al23N36
_symmetry_space_group_name_H-M   'P 1'
_cell_length_a   9.93861579
_cell_length_b   9.96997891
_cell_length_c   10.18637312
_cell_angle_alpha   89.89029786
_cell_angle_beta   89.82363304
_cell_angle_gamma   59.97986356
_symmetry_Int_Tables_number   1
_chemical_formula_structural   Sc13Al23N36
_chemical_formula_sum   'Sc13 Al23 N36'
_cell_volume   873.93694044
_cell_formula_units_Z   1
loop_
 _symmetry_equiv_pos_site_id
 _symmetry_equiv_pos_as_xyz
  1  'x, y, z'
loop_
 _atom_site_type_symbol
 _atom_site_label
 _atom_site_symmetry_multiplicity
 _atom_site_fract_x
 _atom_site_fract_y
 _atom_site_fract_z
 _atom_site_occupancy
  Al  Al0  1  0.11000446  0.09542779  0.29316716  1
  Al  Al1  1  0.22082145  0.20858887  0.04697519  1
  Al  Al2  1  0.77518977  0.09531263  0.78891239  1
  Al  Al3  1  0.88855259  0.20644638  0.54622097  1
  Al  Al4  1  0.55608669  0.21536374  0.04377835  1
  Al  Al5  1  0.22435331  0.20374456  0.54167066  1
  Al  Al6  1  0.88334953  0.20801106  0.04467954  1
  Al  Al7  1  0.54787609  0.21565996  0.55016616  1
  Al  Al8  1  0.22874728  0.53742154  0.04539930  1
  Al  Al9  1  0.43917960  0.43875152  0.29880299  1
  Al  Al10  1  0.55125978  0.53995512  0.04481932  1
  Al  Al11  1  0.22914605  0.53711296  0.54616327  1
  Al  Al12  1  0.88715834  0.54192238  0.03382770  1
  Al  Al13  1  0.44274822  0.43618675  0.79752563  1
  Al  Al14  1  0.55186836  0.53624385  0.54715921  1
  Al  Al15  1  0.11762536  0.75678875  0.29798064  1
  Al  Al16  1  0.77279843  0.76818060  0.79135708  1
  Al  Al17  1  0.88983145  0.87132439  0.55317592  1
  Al  Al18  1  0.44489513  0.75670044  0.29676904  1
  Al  Al19  1  0.56147447  0.85995776  0.04175663  1
  Al  Al20  1  0.11379787  0.75698741  0.79391651  1
  Al  Al21  1  0.44751115  0.75264262  0.79614182  1
  Al  Al22  1  0.55280565  0.87181670  0.54952849  1
  Sc  Sc23  1  0.44486292  0.09241357  0.30142692  1
  Sc  Sc24  1  0.11023048  0.09003173  0.80281894  1
  Sc  Sc25  1  0.77747249  0.09760558  0.31424948  1
  Sc  Sc26  1  0.45377634  0.08916920  0.80632911  1
  Sc  Sc27  1  0.11724889  0.42943992  0.29990300  1
  Sc  Sc28  1  0.76746807  0.42566703  0.81163194  1
  Sc  Sc29  1  0.88779354  0.53705614  0.56382588  1
  Sc  Sc30  1  0.12193702  0.43002532  0.80427713  1
  Sc  Sc31  1  0.77220741  0.42762663  0.29341509  1
  Sc  Sc32  1  0.22824253  0.86705653  0.06036682  1
  Sc  Sc33  1  0.22430108  0.86910910  0.54539323  1
  Sc  Sc34  1  0.77648331  0.75953426  0.30462685  1
  Sc  Sc35  1  0.88538812  0.87558942  0.04517831  1
  N  N36  1  0.21475519  0.19595280  0.35379141  1
  N  N37  1  0.09892084  0.11479483  0.10211337  1
  N  N38  1  0.88067291  0.18894459  0.86032275  1
  N  N39  1  0.77615840  0.09592387  0.59543185  1
  N  N40  1  0.53875855  0.23257450  0.36421534  1
  N  N41  1  0.45060191  0.09072996  0.08440239  1
  N  N42  1  0.22516336  0.20223220  0.86391436  1
  N  N43  1  0.10416558  0.10960551  0.59603311  1
  N  N44  1  0.90668323  0.19924402  0.36018473  1
  N  N45  1  0.76642433  0.11430057  0.10538706  1
  N  N46  1  0.56317866  0.22103662  0.85327537  1
  N  N47  1  0.44400137  0.09387523  0.59032930  1
  N  N48  1  0.23227978  0.55132940  0.35996886  1
  N  N49  1  0.11123754  0.43060009  0.08266657  1
  N  N50  1  0.88190798  0.55673846  0.84061367  1
  N  N51  1  0.76424456  0.41614459  0.59860963  1
  N  N52  1  0.53616947  0.54965348  0.35899365  1
  N  N53  1  0.44396941  0.42928550  0.10725071  1
  N  N54  1  0.23361296  0.55041346  0.85976762  1
  N  N55  1  0.13536821  0.41603273  0.59100571  1
  N  N56  1  0.88973323  0.53379013  0.35881356  1
  N  N57  1  0.77717986  0.42936831  0.07502831  1
  N  N58  1  0.53318336  0.54957476  0.86052977  1
  N  N59  1  0.44214541  0.43173055  0.60905774  1
  N  N60  1  0.22234286  0.87377086  0.32863812  1
  N  N61  1  0.11674338  0.74164350  0.11149771  1
  N  N62  1  0.88514892  0.87545045  0.83608597  1
  N  N63  1  0.76468521  0.78301619  0.60223243  1
  N  N64  1  0.54367063  0.86153927  0.36390943  1
  N  N65  1  0.46720118  0.74719810  0.10974468  1
  N  N66  1  0.23135816  0.85318687  0.84447460  1
  N  N67  1  0.10474374  0.74914289  0.60742510  1
  N  N68  1  0.91001189  0.86073790  0.36291684  1
  N  N69  1  0.77309196  0.75079865  0.09463755  1
  N  N70  1  0.56328089  0.84988947  0.85472682  1
  N  N71  1  0.46271185  0.74887750  0.60866726  1
