# generated using pymatgen
data_Sc13Al23N36
_symmetry_space_group_name_H-M   'P 1'
_cell_length_a   10.04127284
_cell_length_b   10.08143481
_cell_length_c   10.07272991
_cell_angle_alpha   90.07506854
_cell_angle_beta   90.16248322
_cell_angle_gamma   59.97550928
_symmetry_Int_Tables_number   1
_chemical_formula_structural   Sc13Al23N36
_chemical_formula_sum   'Sc13 Al23 N36'
_cell_volume   882.83583768
_cell_formula_units_Z   1
loop_
 _symmetry_equiv_pos_site_id
 _symmetry_equiv_pos_as_xyz
  1  'x, y, z'
loop_
 _atom_site_type_symbol
 _atom_site_label
 _atom_site_symmetry_multiplicity
 _atom_site_fract_x
 _atom_site_fract_y
 _atom_site_fract_z
 _atom_site_occupancy
  Al  Al0  1  0.10567741  0.08905221  0.31612502  1
  Al  Al1  1  0.21817175  0.20916333  0.13276299  1
  Al  Al2  1  0.77733765  0.09930459  0.81618088  1
  Al  Al3  1  0.89550120  0.20491869  0.57622892  1
  Al  Al4  1  0.54458171  0.21989284  0.14613988  1
  Al  Al5  1  0.23008141  0.20754540  0.64671817  1
  Al  Al6  1  0.87386836  0.20941509  0.07356505  1
  Al  Al7  1  0.54783274  0.21775462  0.63208973  1
  Al  Al8  1  0.22662040  0.53666647  0.13830989  1
  Al  Al9  1  0.43392184  0.44063800  0.38892851  1
  Al  Al10  1  0.55320600  0.54066203  0.07651879  1
  Al  Al11  1  0.23135645  0.53888466  0.63510422  1
  Al  Al12  1  0.88191583  0.54117136  0.06789421  1
  Al  Al13  1  0.44211568  0.43334443  0.88706718  1
  Al  Al14  1  0.55573930  0.53903057  0.57435850  1
  Al  Al15  1  0.11199633  0.75874260  0.38278439  1
  Al  Al16  1  0.76974725  0.76687652  0.82591052  1
  Al  Al17  1  0.89307059  0.86993876  0.63561461  1
  Al  Al18  1  0.44379623  0.75620593  0.32798903  1
  Al  Al19  1  0.56060326  0.85645833  0.07666055  1
  Al  Al20  1  0.12114182  0.75341038  0.87999347  1
  Al  Al21  1  0.45001247  0.75347937  0.82603880  1
  Al  Al22  1  0.55607416  0.86857211  0.58262916  1
  Sc  Sc23  1  0.43663586  0.09359438  0.37400420  1
  Sc  Sc24  1  0.10879034  0.09403134  0.85217813  1
  Sc  Sc25  1  0.77715958  0.09451124  0.35577370  1
  Sc  Sc26  1  0.46041767  0.09287439  0.87819388  1
  Sc  Sc27  1  0.12260552  0.42425174  0.37647375  1
  Sc  Sc28  1  0.76354320  0.42636615  0.83896834  1
  Sc  Sc29  1  0.88986170  0.53528667  0.60537762  1
  Sc  Sc30  1  0.12165271  0.43774294  0.87673042  1
  Sc  Sc31  1  0.77562431  0.42473030  0.32825125  1
  Sc  Sc32  1  0.22972150  0.86167596  0.09535295  1
  Sc  Sc33  1  0.22562526  0.87628001  0.59015001  1
  Sc  Sc34  1  0.77613597  0.75502690  0.33775754  1
  Sc  Sc35  1  0.88386906  0.87598782  0.10393538  1
  N  N36  1  0.21026128  0.19661287  0.32213416  1
  N  N37  1  0.09434102  0.10817926  0.11233941  1
  N  N38  1  0.87460021  0.19440707  0.88746156  1
  N  N39  1  0.78281432  0.09206639  0.61315158  1
  N  N40  1  0.53055603  0.23557387  0.33631238  1
  N  N41  1  0.44795275  0.09002294  0.10211400  1
  N  N42  1  0.23155186  0.20868259  0.83855678  1
  N  N43  1  0.10386856  0.11340762  0.63332189  1
  N  N44  1  0.91010367  0.19492575  0.38839015  1
  N  N45  1  0.76130505  0.11904111  0.13354717  1
  N  N46  1  0.56114804  0.22703358  0.82229694  1
  N  N47  1  0.44701452  0.09379703  0.60249826  1
  N  N48  1  0.23122232  0.55440381  0.32512910  1
  N  N49  1  0.11005747  0.42933306  0.09786394  1
  N  N50  1  0.87980748  0.55562432  0.86682183  1
  N  N51  1  0.76485830  0.41383450  0.62509006  1
  N  N52  1  0.53986924  0.55100144  0.38326657  1
  N  N53  1  0.43842041  0.42524706  0.08061647  1
  N  N54  1  0.23870402  0.55086191  0.82061552  1
  N  N55  1  0.13772681  0.41736694  0.59955291  1
  N  N56  1  0.88936710  0.53252124  0.39594207  1
  N  N57  1  0.77615940  0.42821406  0.10743214  1
  N  N58  1  0.53496832  0.55393099  0.88876361  1
  N  N59  1  0.44109406  0.43048072  0.58045286  1
  N  N60  1  0.22122909  0.87262145  0.35702951  1
  N  N61  1  0.12036766  0.73442603  0.06702767  1
  N  N62  1  0.89023666  0.87492334  0.84131804  1
  N  N63  1  0.76586841  0.78118721  0.63215770  1
  N  N64  1  0.54411058  0.85710140  0.39453787  1
  N  N65  1  0.46582179  0.74591799  0.13934825  1
  N  N66  1  0.23536192  0.85623017  0.86428588  1
  N  N67  1  0.10205839  0.75147559  0.57778450  1
  N  N68  1  0.90954527  0.85993892  0.32453465  1
  N  N69  1  0.76996449  0.74657495  0.12323535  1
  N  N70  1  0.56369062  0.85042381  0.88544121  1
  N  N71  1  0.46711733  0.74716932  0.63790860  1
