# generated using pymatgen
data_Sc13Al23N36
_symmetry_space_group_name_H-M   'P 1'
_cell_length_a   10.04341897
_cell_length_b   10.06480448
_cell_length_c   9.98848131
_cell_angle_alpha   90.63879801
_cell_angle_beta   90.40106823
_cell_angle_gamma   59.84733135
_symmetry_Int_Tables_number   1
_chemical_formula_structural   Sc13Al23N36
_chemical_formula_sum   'Sc13 Al23 N36'
_cell_volume   873.01012718
_cell_formula_units_Z   1
loop_
 _symmetry_equiv_pos_site_id
 _symmetry_equiv_pos_as_xyz
  1  'x, y, z'
loop_
 _atom_site_type_symbol
 _atom_site_label
 _atom_site_symmetry_multiplicity
 _atom_site_fract_x
 _atom_site_fract_y
 _atom_site_fract_z
 _atom_site_occupancy
  Al  Al0  1  0.11038104  0.09450431  0.39911470  1
  Al  Al1  1  0.22006505  0.20021257  0.14205336  1
  Al  Al2  1  0.77030256  0.10574064  0.89041781  1
  Al  Al3  1  0.87944557  0.20633450  0.64268379  1
  Al  Al4  1  0.55028759  0.21888220  0.13715306  1
  Al  Al5  1  0.22483756  0.21103449  0.64098352  1
  Al  Al6  1  0.89087458  0.20670007  0.13977354  1
  Al  Al7  1  0.55749256  0.21234982  0.64106944  1
  Al  Al8  1  0.23177341  0.53923670  0.14347885  1
  Al  Al9  1  0.43878947  0.44060774  0.39046147  1
  Al  Al10  1  0.54794397  0.54170367  0.14075737  1
  Al  Al11  1  0.22889061  0.53454460  0.63869480  1
  Al  Al12  1  0.88619964  0.53280342  0.15652957  1
  Al  Al13  1  0.44328079  0.43427812  0.88826558  1
  Al  Al14  1  0.55208317  0.53393481  0.64463579  1
  Al  Al15  1  0.11241210  0.75847140  0.39462680  1
  Al  Al16  1  0.77153077  0.76587716  0.82274974  1
  Al  Al17  1  0.88796453  0.87993241  0.64539964  1
  Al  Al18  1  0.44188073  0.75412533  0.39818594  1
  Al  Al19  1  0.55855840  0.86261780  0.10281851  1
  Al  Al20  1  0.12395919  0.75221461  0.88374040  1
  Al  Al21  1  0.44522182  0.75256605  0.88695781  1
  Al  Al22  1  0.55238262  0.87310558  0.60472235  1
  Sc  Sc23  1  0.44325133  0.09641327  0.37809187  1
  Sc  Sc24  1  0.10952926  0.09299921  0.87475083  1
  Sc  Sc25  1  0.78189896  0.09219213  0.37784394  1
  Sc  Sc26  1  0.45219584  0.09285887  0.87356992  1
  Sc  Sc27  1  0.12789385  0.42163386  0.37138494  1
  Sc  Sc28  1  0.77086410  0.43517016  0.88798036  1
  Sc  Sc29  1  0.89456520  0.53105251  0.61542105  1
  Sc  Sc30  1  0.11069302  0.44052299  0.89468828  1
  Sc  Sc31  1  0.76502304  0.42133080  0.37797984  1
  Sc  Sc32  1  0.22310981  0.87070200  0.14455194  1
  Sc  Sc33  1  0.22346862  0.86722744  0.62279402  1
  Sc  Sc34  1  0.77683990  0.76609421  0.36505816  1
  Sc  Sc35  1  0.88839330  0.86553025  0.10909336  1
  N  N36  1  0.21573883  0.18698345  0.33066491  1
  N  N37  1  0.10255481  0.10818762  0.08577906  1
  N  N38  1  0.87598663  0.20139809  0.83150816  1
  N  N39  1  0.77812165  0.09195605  0.59327073  1
  N  N40  1  0.54366755  0.23414597  0.32708764  1
  N  N41  1  0.44724846  0.09145178  0.10047446  1
  N  N42  1  0.22017074  0.21428594  0.83038381  1
  N  N43  1  0.09888513  0.11733810  0.59436303  1
  N  N44  1  0.91130240  0.18966329  0.32871456  1
  N  N45  1  0.76553571  0.11655126  0.08463749  1
  N  N46  1  0.56182432  0.22224634  0.83187742  1
  N  N47  1  0.44651918  0.09630166  0.60544244  1
  N  N48  1  0.23337620  0.55513248  0.33154408  1
  N  N49  1  0.11302535  0.42691007  0.11680070  1
  N  N50  1  0.88392892  0.55364081  0.83049082  1
  N  N51  1  0.76329361  0.41578869  0.59527723  1
  N  N52  1  0.52820196  0.55428784  0.32880288  1
  N  N53  1  0.44234435  0.43014119  0.07992810  1
  N  N54  1  0.23483214  0.54445741  0.82744347  1
  N  N55  1  0.13800169  0.41648293  0.58719162  1
  N  N56  1  0.89136615  0.53007186  0.35771267  1
  N  N57  1  0.77461733  0.42762571  0.11083617  1
  N  N58  1  0.53848574  0.54507784  0.83429989  1
  N  N59  1  0.44452028  0.42923484  0.58262526  1
  N  N60  1  0.22069710  0.87194500  0.36964491  1
  N  N61  1  0.12739412  0.73801693  0.07204736  1
  N  N62  1  0.88642074  0.87694926  0.84735788  1
  N  N63  1  0.76932032  0.78234552  0.61408350  1
  N  N64  1  0.54134719  0.86410399  0.37224491  1
  N  N65  1  0.45607379  0.75016877  0.08135196  1
  N  N66  1  0.23207485  0.85451658  0.83860896  1
  N  N67  1  0.09716521  0.74946292  0.58661312  1
  N  N68  1  0.91407454  0.86349834  0.32366552  1
  N  N69  1  0.76863394  0.74609282  0.13215550  1
  N  N70  1  0.56134297  0.85260700  0.85509499  1
  N  N71  1  0.46508549  0.74293577  0.58981982  1
