# generated using pymatgen
data_Sc13Al23N36
_symmetry_space_group_name_H-M   'P 1'
_cell_length_a   10.04402990
_cell_length_b   10.08803120
_cell_length_c   10.01544642
_cell_angle_alpha   89.95110545
_cell_angle_beta   90.29853118
_cell_angle_gamma   60.04769344
_symmetry_Int_Tables_number   1
_chemical_formula_structural   Sc13Al23N36
_chemical_formula_sum   'Sc13 Al23 N36'
_cell_volume   879.25435266
_cell_formula_units_Z   1
loop_
 _symmetry_equiv_pos_site_id
 _symmetry_equiv_pos_as_xyz
  1  'x, y, z'
loop_
 _atom_site_type_symbol
 _atom_site_label
 _atom_site_symmetry_multiplicity
 _atom_site_fract_x
 _atom_site_fract_y
 _atom_site_fract_z
 _atom_site_occupancy
  Al  Al0  1  0.10896538  0.09294486  0.31519512  1
  Al  Al1  1  0.22060707  0.20905745  0.07240941  1
  Al  Al2  1  0.77275483  0.10115428  0.81019387  1
  Al  Al3  1  0.89094783  0.20587838  0.56739257  1
  Al  Al4  1  0.55524442  0.21086396  0.06912863  1
  Al  Al5  1  0.22252970  0.20432538  0.56571816  1
  Al  Al6  1  0.87934903  0.21003795  0.06749793  1
  Al  Al7  1  0.54912517  0.21187437  0.57283092  1
  Al  Al8  1  0.23079010  0.53781262  0.12680230  1
  Al  Al9  1  0.43394824  0.44058895  0.38375292  1
  Al  Al10  1  0.55303150  0.54282359  0.06687043  1
  Al  Al11  1  0.22978293  0.53986561  0.62685164  1
  Al  Al12  1  0.88510615  0.54139059  0.05744523  1
  Al  Al13  1  0.43981583  0.43711735  0.87579116  1
  Al  Al14  1  0.55532718  0.54025545  0.56846578  1
  Al  Al15  1  0.11279024  0.75743030  0.37269777  1
  Al  Al16  1  0.76987530  0.76638462  0.81728367  1
  Al  Al17  1  0.89181169  0.87122022  0.62865227  1
  Al  Al18  1  0.44382543  0.75634924  0.31932478  1
  Al  Al19  1  0.55996161  0.86010964  0.06364056  1
  Al  Al20  1  0.12132476  0.75413687  0.87224189  1
  Al  Al21  1  0.44986244  0.75414621  0.81600046  1
  Al  Al22  1  0.55449848  0.87082528  0.56928661  1
  Sc  Sc23  1  0.44292819  0.09038930  0.32719673  1
  Sc  Sc24  1  0.10820783  0.09433433  0.83184047  1
  Sc  Sc25  1  0.77825640  0.09401768  0.33740557  1
  Sc  Sc26  1  0.45225410  0.08970076  0.82628060  1
  Sc  Sc27  1  0.11498111  0.42670438  0.33366145  1
  Sc  Sc28  1  0.76586488  0.42553006  0.83199798  1
  Sc  Sc29  1  0.88917605  0.53667453  0.59074878  1
  Sc  Sc30  1  0.12047193  0.43141983  0.84025619  1
  Sc  Sc31  1  0.77249003  0.42516417  0.31921058  1
  Sc  Sc32  1  0.22850307  0.86816366  0.08906912  1
  Sc  Sc33  1  0.22598166  0.87320005  0.58077479  1
  Sc  Sc34  1  0.77543386  0.75671340  0.32590851  1
  Sc  Sc35  1  0.88621143  0.87434701  0.09060626  1
  N  N36  1  0.21277977  0.19322690  0.37427796  1
  N  N37  1  0.09742120  0.11475209  0.11934031  1
  N  N38  1  0.87806032  0.19186479  0.87999211  1
  N  N39  1  0.77909032  0.09451167  0.61126279  1
  N  N40  1  0.54045044  0.22539596  0.37881157  1
  N  N41  1  0.45061076  0.08938552  0.10615559  1
  N  N42  1  0.22707760  0.20331744  0.88585019  1
  N  N43  1  0.10276955  0.11319755  0.62092149  1
  N  N44  1  0.90801287  0.19582355  0.37921046  1
  N  N45  1  0.76199222  0.12002874  0.12276508  1
  N  N46  1  0.56304162  0.21815660  0.85911968  1
  N  N47  1  0.44372985  0.09201721  0.60712764  1
  N  N48  1  0.23364814  0.55189611  0.31740035  1
  N  N49  1  0.10982195  0.43098493  0.10274929  1
  N  N50  1  0.88033063  0.55568944  0.85871316  1
  N  N51  1  0.76546721  0.41473793  0.61617841  1
  N  N52  1  0.53868185  0.55128367  0.37523399  1
  N  N53  1  0.44032646  0.42852224  0.07468510  1
  N  N54  1  0.23620132  0.55212747  0.81519417  1
  N  N55  1  0.13522376  0.41574076  0.60949060  1
  N  N56  1  0.88827940  0.53314177  0.38220393  1
  N  N57  1  0.77668590  0.42951065  0.09719475  1
  N  N58  1  0.53601248  0.55409525  0.87710848  1
  N  N59  1  0.43972471  0.43527711  0.58142607  1
  N  N60  1  0.22205282  0.87191816  0.34885677  1
  N  N61  1  0.12314036  0.73749858  0.06046217  1
  N  N62  1  0.89035382  0.87416056  0.83467082  1
  N  N63  1  0.76491766  0.78228854  0.62155010  1
  N  N64  1  0.54356870  0.86018396  0.38210314  1
  N  N65  1  0.46545791  0.74837592  0.12874450  1
  N  N66  1  0.23488521  0.85750627  0.85298858  1
  N  N67  1  0.10006699  0.75167258  0.56905102  1
  N  N68  1  0.91106413  0.85823956  0.31301705  1
  N  N69  1  0.77018136  0.74802200  0.11020489  1
  N  N70  1  0.56264915  0.85236489  0.87384783  1
  N  N71  1  0.46678948  0.74871098  0.62673531  1
