# generated using pymatgen
data_Sc13Al23N36
_symmetry_space_group_name_H-M   'P 1'
_cell_length_a   10.05201604
_cell_length_b   10.07635590
_cell_length_c   9.96136609
_cell_angle_alpha   89.57064475
_cell_angle_beta   89.95010422
_cell_angle_gamma   60.09424878
_symmetry_Int_Tables_number   1
_chemical_formula_structural   Sc13Al23N36
_chemical_formula_sum   'Sc13 Al23 N36'
_cell_volume   874.58758841
_cell_formula_units_Z   1
loop_
 _symmetry_equiv_pos_site_id
 _symmetry_equiv_pos_as_xyz
  1  'x, y, z'
loop_
 _atom_site_type_symbol
 _atom_site_label
 _atom_site_symmetry_multiplicity
 _atom_site_fract_x
 _atom_site_fract_y
 _atom_site_fract_z
 _atom_site_occupancy
  Al  Al0  1  0.10983152  0.09389642  0.31173119  1
  Al  Al1  1  0.22098078  0.20913040  0.06626792  1
  Al  Al2  1  0.77095703  0.10287226  0.81000698  1
  Al  Al3  1  0.89038764  0.20635328  0.56468187  1
  Al  Al4  1  0.55578600  0.21712997  0.06060099  1
  Al  Al5  1  0.22431057  0.20332085  0.55928311  1
  Al  Al6  1  0.88046842  0.21064564  0.06358663  1
  Al  Al7  1  0.54728797  0.21563730  0.56573606  1
  Al  Al8  1  0.23242356  0.53080765  0.05925742  1
  Al  Al9  1  0.43904840  0.43780319  0.31343229  1
  Al  Al10  1  0.55031246  0.54022501  0.06296966  1
  Al  Al11  1  0.23110730  0.53432401  0.56255616  1
  Al  Al12  1  0.88657075  0.54124492  0.05109697  1
  Al  Al13  1  0.44512361  0.43460760  0.80979946  1
  Al  Al14  1  0.55313726  0.53537025  0.56127613  1
  Al  Al15  1  0.11027357  0.76274863  0.37108659  1
  Al  Al16  1  0.76930865  0.76569769  0.81355858  1
  Al  Al17  1  0.88880021  0.87449686  0.62692831  1
  Al  Al18  1  0.44421676  0.75569127  0.31716504  1
  Al  Al19  1  0.56092458  0.85781114  0.05999620  1
  Al  Al20  1  0.11921739  0.75575807  0.86765415  1
  Al  Al21  1  0.45070270  0.75045046  0.81212452  1
  Al  Al22  1  0.55350006  0.87184651  0.56614761  1
  Sc  Sc23  1  0.44453971  0.09216709  0.31962128  1
  Sc  Sc24  1  0.10862049  0.09361615  0.82820232  1
  Sc  Sc25  1  0.77728883  0.09648990  0.33341511  1
  Sc  Sc26  1  0.45373229  0.08903731  0.82687954  1
  Sc  Sc27  1  0.11596306  0.42916426  0.32127093  1
  Sc  Sc28  1  0.76523793  0.42684620  0.82924396  1
  Sc  Sc29  1  0.88718877  0.53790016  0.58453443  1
  Sc  Sc30  1  0.12150832  0.42802683  0.82083308  1
  Sc  Sc31  1  0.77325120  0.42586735  0.31502486  1
  Sc  Sc32  1  0.22896698  0.86843363  0.08875418  1
  Sc  Sc33  1  0.22637451  0.87272655  0.58220823  1
  Sc  Sc34  1  0.77476335  0.75797396  0.32281349  1
  Sc  Sc35  1  0.88466918  0.87649405  0.08684000  1
  N  N36  1  0.21489421  0.19395496  0.36703329  1
  N  N37  1  0.09774438  0.11546495  0.11419558  1
  N  N38  1  0.87852556  0.19266320  0.87502331  1
  N  N39  1  0.77540432  0.09758883  0.61029946  1
  N  N40  1  0.53817675  0.23198771  0.37682909  1
  N  N41  1  0.45153566  0.08994595  0.09813845  1
  N  N42  1  0.22716036  0.20267516  0.87921193  1
  N  N43  1  0.10270395  0.11428751  0.61612579  1
  N  N44  1  0.90862200  0.19608767  0.37517207  1
  N  N45  1  0.76182876  0.12181437  0.11866773  1
  N  N46  1  0.56237852  0.22168280  0.86612926  1
  N  N47  1  0.44422899  0.09332665  0.60516824  1
  N  N48  1  0.23347862  0.54835770  0.36690122  1
  N  N49  1  0.11116461  0.43079743  0.09720179  1
  N  N50  1  0.88171983  0.55488517  0.85203830  1
  N  N51  1  0.76437309  0.41558860  0.61088255  1
  N  N52  1  0.53656066  0.54776331  0.37065640  1
  N  N53  1  0.44338563  0.42917483  0.11941213  1
  N  N54  1  0.23891855  0.54082451  0.86070753  1
  N  N55  1  0.13539637  0.41595102  0.60194443  1
  N  N56  1  0.88946399  0.53322078  0.37566168  1
  N  N57  1  0.77655616  0.43014810  0.09130819  1
  N  N58  1  0.53276991  0.54880341  0.87460420  1
  N  N59  1  0.44424042  0.43114554  0.61910202  1
  N  N60  1  0.22224765  0.87235855  0.34467918  1
  N  N61  1  0.12015786  0.74387303  0.06352265  1
  N  N62  1  0.88724061  0.87536772  0.83413016  1
  N  N63  1  0.76417742  0.78337245  0.61665791  1
  N  N64  1  0.54219123  0.86210571  0.37742315  1
  N  N65  1  0.46635331  0.74625904  0.12502931  1
  N  N66  1  0.23499292  0.85540282  0.84474929  1
  N  N67  1  0.09740468  0.75689008  0.57500561  1
  N  N68  1  0.90913483  0.86060712  0.31255388  1
  N  N69  1  0.77105495  0.74751033  0.10567774  1
  N  N70  1  0.56214014  0.84967870  0.86925323  1
  N  N71  1  0.46851866  0.74500114  0.62143109  1
