# generated using pymatgen
data_Sc13Al23N36
_symmetry_space_group_name_H-M   'P 1'
_cell_length_a   10.09556743
_cell_length_b   10.13898454
_cell_length_c   9.86212693
_cell_angle_alpha   90.20108009
_cell_angle_beta   90.31215548
_cell_angle_gamma   59.98133382
_symmetry_Int_Tables_number   1
_chemical_formula_structural   Sc13Al23N36
_chemical_formula_sum   'Sc13 Al23 N36'
_cell_volume   874.05361222
_cell_formula_units_Z   1
loop_
 _symmetry_equiv_pos_site_id
 _symmetry_equiv_pos_as_xyz
  1  'x, y, z'
loop_
 _atom_site_type_symbol
 _atom_site_label
 _atom_site_symmetry_multiplicity
 _atom_site_fract_x
 _atom_site_fract_y
 _atom_site_fract_z
 _atom_site_occupancy
  Al  Al0  1  0.10877261  0.09215853  0.31861323  1
  Al  Al1  1  0.22032425  0.20911182  0.08145010  1
  Al  Al2  1  0.77570487  0.09936483  0.81509149  1
  Al  Al3  1  0.89377442  0.20559352  0.57339456  1
  Al  Al4  1  0.54829116  0.22033213  0.13847302  1
  Al  Al5  1  0.22370553  0.20335664  0.57284369  1
  Al  Al6  1  0.87744689  0.20927291  0.07281026  1
  Al  Al7  1  0.54695757  0.21768508  0.62302937  1
  Al  Al8  1  0.22826307  0.53914051  0.13011239  1
  Al  Al9  1  0.43389412  0.44051950  0.38251158  1
  Al  Al10  1  0.55276486  0.54181883  0.07342027  1
  Al  Al11  1  0.23106421  0.53819239  0.62829021  1
  Al  Al12  1  0.88466536  0.54163333  0.06427123  1
  Al  Al13  1  0.44267522  0.43235975  0.88083591  1
  Al  Al14  1  0.55476220  0.53911664  0.57112161  1
  Al  Al15  1  0.11286750  0.75918615  0.37775322  1
  Al  Al16  1  0.76996960  0.76659929  0.82168278  1
  Al  Al17  1  0.89179318  0.87046938  0.62889795  1
  Al  Al18  1  0.44349504  0.75607878  0.32481939  1
  Al  Al19  1  0.56092637  0.85782012  0.07182511  1
  Al  Al20  1  0.12171092  0.75319088  0.87322605  1
  Al  Al21  1  0.45040192  0.75245676  0.82190403  1
  Al  Al22  1  0.55363377  0.87104184  0.57659122  1
  Sc  Sc23  1  0.44190519  0.08814059  0.34073207  1
  Sc  Sc24  1  0.10907239  0.09505179  0.84279794  1
  Sc  Sc25  1  0.77881212  0.09367572  0.35319514  1
  Sc  Sc26  1  0.45570114  0.09029142  0.84843153  1
  Sc  Sc27  1  0.11726068  0.42738733  0.34495133  1
  Sc  Sc28  1  0.76476045  0.42595375  0.83773810  1
  Sc  Sc29  1  0.88986420  0.53533910  0.59887613  1
  Sc  Sc30  1  0.12160209  0.43225611  0.84898611  1
  Sc  Sc31  1  0.77385160  0.42493261  0.32657351  1
  Sc  Sc32  1  0.22790689  0.86584528  0.09567778  1
  Sc  Sc33  1  0.22548735  0.87361488  0.59197354  1
  Sc  Sc34  1  0.77673768  0.75650189  0.33676658  1
  Sc  Sc35  1  0.88420910  0.87584157  0.09677832  1
  N  N36  1  0.21160144  0.19292965  0.37557943  1
  N  N37  1  0.09725526  0.11290456  0.11902019  1
  N  N38  1  0.87726219  0.19286503  0.88194970  1
  N  N39  1  0.78215463  0.09219133  0.60753916  1
  N  N40  1  0.53359603  0.23475379  0.33513147  1
  N  N41  1  0.45069890  0.08751559  0.10968569  1
  N  N42  1  0.22795068  0.20477520  0.89070468  1
  N  N43  1  0.10364225  0.11451176  0.62769125  1
  N  N44  1  0.90921462  0.19545272  0.38219312  1
  N  N45  1  0.76330435  0.11819278  0.12600421  1
  N  N46  1  0.56046590  0.22573746  0.81957175  1
  N  N47  1  0.44459038  0.09267879  0.60936380  1
  N  N48  1  0.23162745  0.55524672  0.32241220  1
  N  N49  1  0.10917270  0.43178224  0.10642046  1
  N  N50  1  0.88074665  0.55553601  0.86022050  1
  N  N51  1  0.76465065  0.41472501  0.61783891  1
  N  N52  1  0.53845370  0.55085008  0.37552102  1
  N  N53  1  0.44027278  0.42617959  0.07797985  1
  N  N54  1  0.23874863  0.54963966  0.81935327  1
  N  N55  1  0.13616169  0.41600759  0.60878184  1
  N  N56  1  0.88988439  0.53241277  0.38670680  1
  N  N57  1  0.77669062  0.42909471  0.10095439  1
  N  N58  1  0.53524091  0.55258258  0.88084091  1
  N  N59  1  0.44074109  0.43125180  0.57776553  1
  N  N60  1  0.22153317  0.87238597  0.35199523  1
  N  N61  1  0.12129501  0.73802928  0.06418118  1
  N  N62  1  0.88854996  0.87515507  0.83832893  1
  N  N63  1  0.76557189  0.78163843  0.62238746  1
  N  N64  1  0.54415712  0.85776184  0.38620442  1
  N  N65  1  0.46432169  0.74794880  0.13140731  1
  N  N66  1  0.23398310  0.85708328  0.85275256  1
  N  N67  1  0.10198239  0.75109199  0.57653024  1
  N  N68  1  0.90990393  0.86006602  0.32280301  1
  N  N69  1  0.77042874  0.74762950  0.11661901  1
  N  N70  1  0.56330760  0.85083386  0.87784763  1
  N  N71  1  0.46702775  0.74721923  0.62992143  1
