# generated using pymatgen
data_Sc13Al23N36
_symmetry_space_group_name_H-M   'P 1'
_cell_length_a   10.08179604
_cell_length_b   10.13009542
_cell_length_c   9.90871654
_cell_angle_alpha   90.50556188
_cell_angle_beta   90.01315763
_cell_angle_gamma   59.79468766
_symmetry_Int_Tables_number   1
_chemical_formula_structural   Sc13Al23N36
_chemical_formula_sum   'Sc13 Al23 N36'
_cell_volume   874.53098581
_cell_formula_units_Z   1
loop_
 _symmetry_equiv_pos_site_id
 _symmetry_equiv_pos_as_xyz
  1  'x, y, z'
loop_
 _atom_site_type_symbol
 _atom_site_label
 _atom_site_symmetry_multiplicity
 _atom_site_fract_x
 _atom_site_fract_y
 _atom_site_fract_z
 _atom_site_occupancy
  Al  Al0  1  0.10991968  0.09520217  0.38480514  1
  Al  Al1  1  0.21700178  0.20507616  0.12864396  1
  Al  Al2  1  0.76947712  0.10487858  0.88191034  1
  Al  Al3  1  0.88141619  0.20121441  0.63000817  1
  Al  Al4  1  0.54849945  0.22006863  0.12788949  1
  Al  Al5  1  0.22944425  0.20660099  0.62780117  1
  Al  Al6  1  0.88912432  0.21253747  0.12802154  1
  Al  Al7  1  0.55732551  0.21097796  0.62899947  1
  Al  Al8  1  0.22928521  0.53906539  0.13227623  1
  Al  Al9  1  0.43898500  0.43894467  0.38056812  1
  Al  Al10  1  0.55202407  0.53702172  0.13187243  1
  Al  Al11  1  0.23013338  0.53647559  0.62761235  1
  Al  Al12  1  0.88347860  0.54104999  0.07140384  1
  Al  Al13  1  0.44271416  0.43489838  0.88053849  1
  Al  Al14  1  0.55178218  0.53164548  0.63286219  1
  Al  Al15  1  0.11050034  0.75838498  0.38156305  1
  Al  Al16  1  0.76867145  0.76777607  0.82369112  1
  Al  Al17  1  0.88513358  0.87988809  0.63871217  1
  Al  Al18  1  0.44167740  0.75975387  0.32701617  1
  Al  Al19  1  0.55727067  0.85892329  0.07134579  1
  Al  Al20  1  0.12396744  0.75225859  0.87344346  1
  Al  Al21  1  0.44787720  0.75626797  0.81963946  1
  Al  Al22  1  0.55575469  0.87009078  0.57434729  1
  Sc  Sc23  1  0.44406535  0.09351768  0.35847376  1
  Sc  Sc24  1  0.10973739  0.09261649  0.86038715  1
  Sc  Sc25  1  0.78124077  0.09209737  0.36412482  1
  Sc  Sc26  1  0.45537735  0.09065042  0.86212333  1
  Sc  Sc27  1  0.12181206  0.42478508  0.36474824  1
  Sc  Sc28  1  0.76733761  0.42555114  0.86438991  1
  Sc  Sc29  1  0.89208332  0.53713020  0.60770663  1
  Sc  Sc30  1  0.12335309  0.43212674  0.87023894  1
  Sc  Sc31  1  0.77116517  0.42416063  0.37264873  1
  Sc  Sc32  1  0.21674119  0.87557595  0.11870645  1
  Sc  Sc33  1  0.22510296  0.86687394  0.60220417  1
  Sc  Sc34  1  0.77925067  0.75633049  0.33667564  1
  Sc  Sc35  1  0.88774726  0.86900591  0.09560354  1
  N  N36  1  0.21381459  0.19071958  0.32030016  1
  N  N37  1  0.09947404  0.11453186  0.07320902  1
  N  N38  1  0.87881804  0.19255489  0.81933074  1
  N  N39  1  0.77803482  0.09014859  0.58165775  1
  N  N40  1  0.54207764  0.23286516  0.31937731  1
  N  N41  1  0.44682798  0.09322806  0.09371485  1
  N  N42  1  0.22720763  0.20529440  0.81861163  1
  N  N43  1  0.10090241  0.11523253  0.58253312  1
  N  N44  1  0.90951084  0.19317694  0.31921072  1
  N  N45  1  0.76472908  0.11962897  0.07778316  1
  N  N46  1  0.56128588  0.22297633  0.82301868  1
  N  N47  1  0.44980559  0.09434415  0.59396207  1
  N  N48  1  0.23218138  0.55341300  0.32293490  1
  N  N49  1  0.11217114  0.42897919  0.09713160  1
  N  N50  1  0.88224051  0.55541287  0.85857395  1
  N  N51  1  0.76554059  0.41476822  0.59869391  1
  N  N52  1  0.53606666  0.54548570  0.32660391  1
  N  N53  1  0.44171376  0.43085854  0.07295282  1
  N  N54  1  0.23733978  0.54713081  0.81729640  1
  N  N55  1  0.13851021  0.41673074  0.59041102  1
  N  N56  1  0.89122974  0.53515360  0.39142858  1
  N  N57  1  0.77415675  0.43013073  0.09198448  1
  N  N58  1  0.53586022  0.54440841  0.82876085  1
  N  N59  1  0.44473882  0.42888450  0.57341441  1
  N  N60  1  0.21981874  0.87222576  0.35627798  1
  N  N61  1  0.12538142  0.73710690  0.06276082  1
  N  N62  1  0.88524848  0.87826087  0.84413080  1
  N  N63  1  0.76455116  0.78443480  0.62669614  1
  N  N64  1  0.54570125  0.85858998  0.38296318  1
  N  N65  1  0.45498612  0.75645283  0.12659528  1
  N  N66  1  0.23076511  0.85581927  0.83409666  1
  N  N67  1  0.09586863  0.75082143  0.57720194  1
  N  N68  1  0.91127207  0.86215490  0.31314040  1
  N  N69  1  0.76760601  0.74796772  0.11758198  1
  N  N70  1  0.56190153  0.84909586  0.87799280  1
  N  N71  1  0.46719300  0.74990951  0.62295191  1
