# generated using pymatgen
data_Sc13Al23N36
_symmetry_space_group_name_H-M   'P 1'
_cell_length_a   10.01594085
_cell_length_b   10.04682917
_cell_length_c   10.08742956
_cell_angle_alpha   89.88256362
_cell_angle_beta   90.19816172
_cell_angle_gamma   60.06906703
_symmetry_Int_Tables_number   1
_chemical_formula_structural   Sc13Al23N36
_chemical_formula_sum   'Sc13 Al23 N36'
_cell_volume   879.68468462
_cell_formula_units_Z   1
loop_
 _symmetry_equiv_pos_site_id
 _symmetry_equiv_pos_as_xyz
  1  'x, y, z'
loop_
 _atom_site_type_symbol
 _atom_site_label
 _atom_site_symmetry_multiplicity
 _atom_site_fract_x
 _atom_site_fract_y
 _atom_site_fract_z
 _atom_site_occupancy
  Al  Al0  1  0.10932350  0.09298382  0.31887543  1
  Al  Al1  1  0.22089666  0.20862340  0.07403319  1
  Al  Al2  1  0.77144581  0.10281544  0.81632815  1
  Al  Al3  1  0.88956114  0.20627572  0.57087329  1
  Al  Al4  1  0.55541927  0.21758453  0.06594819  1
  Al  Al5  1  0.22537577  0.20235004  0.56811202  1
  Al  Al6  1  0.88139081  0.21040979  0.06955725  1
  Al  Al7  1  0.54817938  0.21448094  0.57118316  1
  Al  Al8  1  0.22513149  0.54018738  0.13021446  1
  Al  Al9  1  0.44393785  0.43517596  0.32040254  1
  Al  Al10  1  0.55037358  0.53963682  0.06856209  1
  Al  Al11  1  0.22647695  0.54124453  0.62561664  1
  Al  Al12  1  0.88574659  0.54116293  0.06017138  1
  Al  Al13  1  0.44810687  0.43439041  0.81559569  1
  Al  Al14  1  0.55448070  0.53463249  0.56854771  1
  Al  Al15  1  0.11021815  0.75900502  0.37629561  1
  Al  Al16  1  0.76958568  0.76615139  0.82042816  1
  Al  Al17  1  0.89000524  0.87352381  0.63413074  1
  Al  Al18  1  0.44373593  0.75549425  0.32294804  1
  Al  Al19  1  0.55998282  0.85856883  0.06610303  1
  Al  Al20  1  0.12087966  0.75432994  0.87680427  1
  Al  Al21  1  0.44920182  0.75187921  0.81889816  1
  Al  Al22  1  0.55412343  0.87115291  0.57313625  1
  Sc  Sc23  1  0.44432223  0.09077190  0.32533556  1
  Sc  Sc24  1  0.10868261  0.09345516  0.83116450  1
  Sc  Sc25  1  0.77697623  0.09665701  0.33618129  1
  Sc  Sc26  1  0.45321524  0.08910029  0.83210322  1
  Sc  Sc27  1  0.11535199  0.42568407  0.33933109  1
  Sc  Sc28  1  0.76575596  0.42719407  0.83619003  1
  Sc  Sc29  1  0.88777552  0.53720514  0.59243799  1
  Sc  Sc30  1  0.12066281  0.43097096  0.84152483  1
  Sc  Sc31  1  0.77263401  0.42584218  0.31983101  1
  Sc  Sc32  1  0.22917122  0.86870045  0.09109189  1
  Sc  Sc33  1  0.22706626  0.87260868  0.58002934  1
  Sc  Sc34  1  0.77446797  0.75743489  0.32734571  1
  Sc  Sc35  1  0.88498661  0.87549816  0.09305648  1
  N  N36  1  0.21615251  0.19055120  0.37818259  1
  N  N37  1  0.09781724  0.11537149  0.12483256  1
  N  N38  1  0.87915329  0.19279846  0.88335372  1
  N  N39  1  0.77629497  0.09679079  0.61859088  1
  N  N40  1  0.53777796  0.23076742  0.38440972  1
  N  N41  1  0.45130324  0.08975534  0.10672065  1
  N  N42  1  0.22687825  0.20210727  0.88868528  1
  N  N43  1  0.10329116  0.11222811  0.62237663  1
  N  N44  1  0.90736787  0.19685762  0.38353763  1
  N  N45  1  0.76276135  0.12116718  0.12448676  1
  N  N46  1  0.56145295  0.22226139  0.87373946  1
  N  N47  1  0.44519161  0.09257726  0.61392552  1
  N  N48  1  0.22790460  0.55444333  0.32271413  1
  N  N49  1  0.11048044  0.43009906  0.10593211  1
  N  N50  1  0.88104761  0.55598103  0.86351599  1
  N  N51  1  0.76548723  0.41506957  0.62123911  1
  N  N52  1  0.53646364  0.54806501  0.38040758  1
  N  N53  1  0.44911846  0.42668337  0.12539854  1
  N  N54  1  0.23121095  0.55488090  0.81666242  1
  N  N55  1  0.13502352  0.41516880  0.60970819  1
  N  N56  1  0.88696085  0.53383573  0.38553825  1
  N  N57  1  0.77657245  0.43010738  0.09923835  1
  N  N58  1  0.53221239  0.54991537  0.88268335  1
  N  N59  1  0.45009140  0.42737084  0.62392683  1
  N  N60  1  0.22183408  0.87170920  0.35259987  1
  N  N61  1  0.12247960  0.73817156  0.06331573  1
  N  N62  1  0.88870212  0.87563968  0.83938643  1
  N  N63  1  0.76445812  0.78251614  0.62679241  1
  N  N64  1  0.54254551  0.86120623  0.38655120  1
  N  N65  1  0.46633051  0.74612911  0.13339456  1
  N  N66  1  0.23523855  0.85739460  0.85919930  1
  N  N67  1  0.09800092  0.75367863  0.57099170  1
  N  N68  1  0.90876957  0.86081273  0.31478919  1
  N  N69  1  0.76999725  0.74787194  0.11380760  1
  N  N70  1  0.56228436  0.85010465  0.87765097  1
  N  N71  1  0.46730945  0.74553760  0.63027613  1
