# generated using pymatgen
data_Sc13Al23N36
_symmetry_space_group_name_H-M   'P 1'
_cell_length_a   10.12422524
_cell_length_b   10.17220066
_cell_length_c   9.83376701
_cell_angle_alpha   90.43659280
_cell_angle_beta   89.92391150
_cell_angle_gamma   59.78374426
_symmetry_Int_Tables_number   1
_chemical_formula_structural   Sc13Al23N36
_chemical_formula_sum   'Sc13 Al23 N36'
_cell_volume   875.09738367
_cell_formula_units_Z   1
loop_
 _symmetry_equiv_pos_site_id
 _symmetry_equiv_pos_as_xyz
  1  'x, y, z'
loop_
 _atom_site_type_symbol
 _atom_site_label
 _atom_site_symmetry_multiplicity
 _atom_site_fract_x
 _atom_site_fract_y
 _atom_site_fract_z
 _atom_site_occupancy
  Al  Al0  1  0.11763155  0.08974757  0.39289457  1
  Al  Al1  1  0.21201455  0.20631955  0.13006157  1
  Al  Al2  1  0.77201074  0.09970830  0.81628877  1
  Al  Al3  1  0.88725350  0.20666595  0.58161615  1
  Al  Al4  1  0.54608145  0.22131309  0.13884202  1
  Al  Al5  1  0.23380019  0.20577858  0.63466304  1
  Al  Al6  1  0.87839974  0.20800733  0.06681366  1
  Al  Al7  1  0.54766763  0.21644161  0.62324744  1
  Al  Al8  1  0.22654630  0.54079186  0.13382840  1
  Al  Al9  1  0.43825387  0.44283261  0.38247686  1
  Al  Al10  1  0.54828732  0.53856300  0.12359463  1
  Al  Al11  1  0.23038576  0.53679851  0.63016286  1
  Al  Al12  1  0.88331344  0.54354581  0.06914127  1
  Al  Al13  1  0.44263094  0.43362216  0.88314671  1
  Al  Al14  1  0.55291965  0.53246444  0.63725061  1
  Al  Al15  1  0.11144071  0.75865837  0.38292492  1
  Al  Al16  1  0.76910500  0.76801335  0.82320435  1
  Al  Al17  1  0.89051423  0.86995977  0.63116816  1
  Al  Al18  1  0.44371655  0.75657919  0.32594846  1
  Al  Al19  1  0.55821283  0.85910097  0.07484891  1
  Al  Al20  1  0.12265654  0.75287284  0.87589272  1
  Al  Al21  1  0.44787302  0.75742613  0.82768082  1
  Al  Al22  1  0.55513192  0.86905842  0.57667506  1
  Sc  Sc23  1  0.44118201  0.09082950  0.35809893  1
  Sc  Sc24  1  0.11054244  0.09289434  0.85422753  1
  Sc  Sc25  1  0.77884016  0.09510884  0.35159146  1
  Sc  Sc26  1  0.45752460  0.09263322  0.86962626  1
  Sc  Sc27  1  0.12441566  0.42433655  0.36634542  1
  Sc  Sc28  1  0.76735309  0.42896385  0.85224208  1
  Sc  Sc29  1  0.89157778  0.53421089  0.60521387  1
  Sc  Sc30  1  0.12343154  0.43385362  0.87111823  1
  Sc  Sc31  1  0.78058521  0.42167828  0.33399935  1
  Sc  Sc32  1  0.21506547  0.87748022  0.11743823  1
  Sc  Sc33  1  0.22991554  0.86128635  0.60715576  1
  Sc  Sc34  1  0.77941160  0.75562635  0.34066802  1
  Sc  Sc35  1  0.88237819  0.87566582  0.09643571  1
  N  N36  1  0.21005749  0.19195409  0.32373989  1
  N  N37  1  0.09698692  0.11420841  0.07788052  1
  N  N38  1  0.87432661  0.19447635  0.87132550  1
  N  N39  1  0.78073755  0.09074599  0.60896064  1
  N  N40  1  0.53231903  0.23543390  0.33450264  1
  N  N41  1  0.44662766  0.09293659  0.10125547  1
  N  N42  1  0.23037155  0.20620004  0.82756001  1
  N  N43  1  0.11228783  0.10802014  0.59999432  1
  N  N44  1  0.90731263  0.19485429  0.38755764  1
  N  N45  1  0.76285383  0.11928332  0.12271316  1
  N  N46  1  0.55711928  0.22639547  0.81955683  1
  N  N47  1  0.45006685  0.09263462  0.59548699  1
  N  N48  1  0.23209834  0.55507986  0.32530698  1
  N  N49  1  0.11132246  0.42982644  0.09985112  1
  N  N50  1  0.88290674  0.55804182  0.86194591  1
  N  N51  1  0.76752270  0.41505204  0.62236901  1
  N  N52  1  0.53980384  0.54283510  0.32423819  1
  N  N53  1  0.43970209  0.42863762  0.07666459  1
  N  N54  1  0.23751117  0.54830222  0.82091569  1
  N  N55  1  0.13971809  0.41571912  0.59499161  1
  N  N56  1  0.89314524  0.53214799  0.38999625  1
  N  N57  1  0.77627624  0.42942866  0.09768788  1
  N  N58  1  0.53349229  0.54730191  0.84092762  1
  N  N59  1  0.44360253  0.43446717  0.57653232  1
  N  N60  1  0.22217267  0.87088530  0.35935985  1
  N  N61  1  0.12098130  0.74003397  0.06667070  1
  N  N62  1  0.88577873  0.87629947  0.84131528  1
  N  N63  1  0.76553988  0.78127044  0.62331545  1
  N  N64  1  0.54510399  0.85612851  0.38425188  1
  N  N65  1  0.45389981  0.75705313  0.12443336  1
  N  N66  1  0.23056267  0.85578165  0.83970429  1
  N  N67  1  0.09954914  0.74803230  0.57938186  1
  N  N68  1  0.91032216  0.86134040  0.32320974  1
  N  N69  1  0.76758415  0.74912164  0.12011698  1
  N  N70  1  0.56291430  0.85135886  0.87955875  1
  N  N71  1  0.46963789  0.74807423  0.62908592  1
