# generated using pymatgen
data_Sc13Al23N36
_symmetry_space_group_name_H-M   'P 1'
_cell_length_a   10.04723775
_cell_length_b   10.09489661
_cell_length_c   10.00877668
_cell_angle_alpha   90.24546466
_cell_angle_beta   90.37172119
_cell_angle_gamma   60.01374734
_symmetry_Int_Tables_number   1
_chemical_formula_structural   Sc13Al23N36
_chemical_formula_sum   'Sc13 Al23 N36'
_cell_volume   879.24696210
_cell_formula_units_Z   1
loop_
 _symmetry_equiv_pos_site_id
 _symmetry_equiv_pos_as_xyz
  1  'x, y, z'
loop_
 _atom_site_type_symbol
 _atom_site_label
 _atom_site_symmetry_multiplicity
 _atom_site_fract_x
 _atom_site_fract_y
 _atom_site_fract_z
 _atom_site_occupancy
  Al  Al0  1  0.10845716  0.09313367  0.31988432  1
  Al  Al1  1  0.22025258  0.20914658  0.07825912  1
  Al  Al2  1  0.77698004  0.09904146  0.81472600  1
  Al  Al3  1  0.89255786  0.20589306  0.57221613  1
  Al  Al4  1  0.54773210  0.22068588  0.13887340  1
  Al  Al5  1  0.22348987  0.20405582  0.57278525  1
  Al  Al6  1  0.87869180  0.20936658  0.07251670  1
  Al  Al7  1  0.54778187  0.21742282  0.62534822  1
  Al  Al8  1  0.22889113  0.53908184  0.13052665  1
  Al  Al9  1  0.43350802  0.43989962  0.38393950  1
  Al  Al10  1  0.55316817  0.54253045  0.07135138  1
  Al  Al11  1  0.23098267  0.53866555  0.62949455  1
  Al  Al12  1  0.88533619  0.54136017  0.06245476  1
  Al  Al13  1  0.44254925  0.43259079  0.88225106  1
  Al  Al14  1  0.55532999  0.53883616  0.57062702  1
  Al  Al15  1  0.11242702  0.75841501  0.37744935  1
  Al  Al16  1  0.77040843  0.76594981  0.82152386  1
  Al  Al17  1  0.89251493  0.86978362  0.63103912  1
  Al  Al18  1  0.44363083  0.75578856  0.32426629  1
  Al  Al19  1  0.56013862  0.85885390  0.07012282  1
  Al  Al20  1  0.12219917  0.75340047  0.87584792  1
  Al  Al21  1  0.45014456  0.75281925  0.82101430  1
  Al  Al22  1  0.55434445  0.87090957  0.57607623  1
  Sc  Sc23  1  0.44068691  0.08795376  0.33798350  1
  Sc  Sc24  1  0.10910965  0.09444510  0.83798353  1
  Sc  Sc25  1  0.77840845  0.09346131  0.35134260  1
  Sc  Sc26  1  0.45507615  0.08997154  0.84402236  1
  Sc  Sc27  1  0.11638052  0.42649472  0.33922790  1
  Sc  Sc28  1  0.76543666  0.42557128  0.83689961  1
  Sc  Sc29  1  0.88903976  0.53557811  0.59557965  1
  Sc  Sc30  1  0.12124845  0.43211745  0.84435763  1
  Sc  Sc31  1  0.77297355  0.42480292  0.32286813  1
  Sc  Sc32  1  0.22801453  0.86800290  0.09399753  1
  Sc  Sc33  1  0.22615187  0.87334831  0.58653735  1
  Sc  Sc34  1  0.77585474  0.75568814  0.33209950  1
  Sc  Sc35  1  0.88443086  0.87623195  0.09753166  1
  N  N36  1  0.21133569  0.19349671  0.38085759  1
  N  N37  1  0.09728242  0.11483308  0.12381378  1
  N  N38  1  0.87840415  0.19199648  0.88471088  1
  N  N39  1  0.78222011  0.09193105  0.60911428  1
  N  N40  1  0.53269596  0.23492965  0.33253928  1
  N  N41  1  0.44929707  0.08752488  0.11114169  1
  N  N42  1  0.22725142  0.20451576  0.89108607  1
  N  N43  1  0.10323521  0.11359082  0.62712150  1
  N  N44  1  0.90803874  0.19645092  0.38410561  1
  N  N45  1  0.76392111  0.11894711  0.12789837  1
  N  N46  1  0.56073904  0.22629564  0.81897319  1
  N  N47  1  0.44466639  0.09244104  0.61217831  1
  N  N48  1  0.23191119  0.55463245  0.32059705  1
  N  N49  1  0.10954487  0.43109634  0.10792814  1
  N  N50  1  0.88086020  0.55557800  0.86328889  1
  N  N51  1  0.76459607  0.41432427  0.62088715  1
  N  N52  1  0.53882651  0.55092621  0.37822404  1
  N  N53  1  0.44039511  0.42602430  0.07634429  1
  N  N54  1  0.23917131  0.55088875  0.81805587  1
  N  N55  1  0.13501367  0.41609575  0.61403212  1
  N  N56  1  0.88931778  0.53206096  0.38694338  1
  N  N57  1  0.77672816  0.42940966  0.10129513  1
  N  N58  1  0.53572614  0.55326919  0.88224889  1
  N  N59  1  0.44044094  0.43018404  0.57628795  1
  N  N60  1  0.22155113  0.87261658  0.35366991  1
  N  N61  1  0.12194010  0.73800537  0.06396014  1
  N  N62  1  0.89018935  0.87461214  0.83776578  1
  N  N63  1  0.76550658  0.78104152  0.62597271  1
  N  N64  1  0.54436151  0.85779518  0.38860709  1
  N  N65  1  0.46488203  0.74787800  0.13365173  1
  N  N66  1  0.23486277  0.85757890  0.85731729  1
  N  N67  1  0.10171619  0.75056829  0.57377181  1
  N  N68  1  0.90981459  0.85923415  0.32005654  1
  N  N69  1  0.77009028  0.74771007  0.11634522  1
  N  N70  1  0.56338704  0.85108590  0.87925090  1
  N  N71  1  0.46698844  0.74712591  0.63162897  1
