# generated using pymatgen
data_Sc13Al23N36
_symmetry_space_group_name_H-M   'P 1'
_cell_length_a   10.11442659
_cell_length_b   10.16415715
_cell_length_c   9.86749310
_cell_angle_alpha   90.44993278
_cell_angle_beta   89.88381905
_cell_angle_gamma   59.79935635
_symmetry_Int_Tables_number   1
_chemical_formula_structural   Sc13Al23N36
_chemical_formula_sum   'Sc13 Al23 N36'
_cell_volume   876.68727065
_cell_formula_units_Z   1
loop_
 _symmetry_equiv_pos_site_id
 _symmetry_equiv_pos_as_xyz
  1  'x, y, z'
loop_
 _atom_site_type_symbol
 _atom_site_label
 _atom_site_symmetry_multiplicity
 _atom_site_fract_x
 _atom_site_fract_y
 _atom_site_fract_z
 _atom_site_occupancy
  Al  Al0  1  0.11779310  0.08987323  0.39157878  1
  Al  Al1  1  0.21192411  0.20630727  0.12851410  1
  Al  Al2  1  0.77198629  0.09984377  0.81525361  1
  Al  Al3  1  0.88727984  0.20625037  0.57945698  1
  Al  Al4  1  0.54608212  0.22162610  0.13581898  1
  Al  Al5  1  0.23400858  0.20563867  0.63275239  1
  Al  Al6  1  0.87797458  0.20896380  0.06489405  1
  Al  Al7  1  0.54784946  0.21598259  0.62282969  1
  Al  Al8  1  0.22695561  0.54094945  0.13178202  1
  Al  Al9  1  0.43808369  0.44233588  0.38124234  1
  Al  Al10  1  0.54871664  0.53811581  0.12616006  1
  Al  Al11  1  0.23039837  0.53639475  0.62883572  1
  Al  Al12  1  0.88293933  0.54313732  0.06740112  1
  Al  Al13  1  0.44280941  0.43415513  0.88097767  1
  Al  Al14  1  0.55278952  0.53238143  0.63374512  1
  Al  Al15  1  0.11127276  0.75856102  0.38121522  1
  Al  Al16  1  0.76879621  0.76777900  0.82167305  1
  Al  Al17  1  0.89038689  0.87006735  0.63044842  1
  Al  Al18  1  0.44358984  0.75719411  0.32570357  1
  Al  Al19  1  0.55793597  0.85815189  0.07284499  1
  Al  Al20  1  0.12313736  0.75265451  0.87422625  1
  Al  Al21  1  0.44768813  0.75728991  0.82290613  1
  Al  Al22  1  0.55548271  0.86958669  0.57374950  1
  Sc  Sc23  1  0.44133536  0.09133130  0.35590929  1
  Sc  Sc24  1  0.11045651  0.09271356  0.85275277  1
  Sc  Sc25  1  0.77870311  0.09517731  0.34811114  1
  Sc  Sc26  1  0.45719979  0.09208372  0.86869683  1
  Sc  Sc27  1  0.12514378  0.42424003  0.36485533  1
  Sc  Sc28  1  0.76633905  0.42970871  0.84943306  1
  Sc  Sc29  1  0.89210116  0.53474043  0.60320667  1
  Sc  Sc30  1  0.12343227  0.43337825  0.87011018  1
  Sc  Sc31  1  0.78097540  0.42180444  0.33528697  1
  Sc  Sc32  1  0.21510831  0.87753850  0.11718042  1
  Sc  Sc33  1  0.22906865  0.86169412  0.60491851  1
  Sc  Sc34  1  0.77998382  0.75559442  0.33712445  1
  Sc  Sc35  1  0.88270132  0.87549720  0.09369805  1
  N  N36  1  0.21001567  0.19191362  0.32137312  1
  N  N37  1  0.09703621  0.11414504  0.07553656  1
  N  N38  1  0.87379325  0.19547678  0.86986967  1
  N  N39  1  0.78077615  0.09074338  0.60812989  1
  N  N40  1  0.53221423  0.23587919  0.33048844  1
  N  N41  1  0.44630919  0.09293844  0.09871179  1
  N  N42  1  0.23042454  0.20588470  0.82479807  1
  N  N43  1  0.11218653  0.10823131  0.59762738  1
  N  N44  1  0.90738882  0.19428652  0.38594162  1
  N  N45  1  0.76309546  0.11908334  0.12003438  1
  N  N46  1  0.55676854  0.22604530  0.81842787  1
  N  N47  1  0.45018391  0.09296455  0.59257375  1
  N  N48  1  0.23245047  0.55525091  0.32262015  1
  N  N49  1  0.11150915  0.42972215  0.09774830  1
  N  N50  1  0.88283265  0.55773869  0.86055019  1
  N  N51  1  0.76797629  0.41525877  0.61874398  1
  N  N52  1  0.53987243  0.54301970  0.32491964  1
  N  N53  1  0.44052082  0.42953534  0.07416887  1
  N  N54  1  0.23726181  0.54801373  0.81899123  1
  N  N55  1  0.14008159  0.41534903  0.59250394  1
  N  N56  1  0.89380792  0.53278036  0.38869272  1
  N  N57  1  0.77543305  0.42987656  0.09710742  1
  N  N58  1  0.53291947  0.54705991  0.83382329  1
  N  N59  1  0.44357338  0.43338158  0.57432612  1
  N  N60  1  0.22194770  0.87115732  0.35793909  1
  N  N61  1  0.12160757  0.74005107  0.06425851  1
  N  N62  1  0.88590129  0.87621530  0.83987860  1
  N  N63  1  0.76514303  0.78165910  0.62279449  1
  N  N64  1  0.54599606  0.85657630  0.38201888  1
  N  N65  1  0.45401750  0.75639501  0.12471636  1
  N  N66  1  0.23050903  0.85562261  0.83616018  1
  N  N67  1  0.09912386  0.74753753  0.57694987  1
  N  N68  1  0.91081544  0.86142365  0.31981408  1
  N  N69  1  0.76755853  0.74901641  0.11777216  1
  N  N70  1  0.56241671  0.85042778  0.87814423  1
  N  N71  1  0.46911347  0.74891665  0.62500450  1
