# generated using pymatgen
data_Sc13Al23N36
_symmetry_space_group_name_H-M   'P 1'
_cell_length_a   10.06053774
_cell_length_b   10.10177542
_cell_length_c   10.03116092
_cell_angle_alpha   90.25253607
_cell_angle_beta   90.14638666
_cell_angle_gamma   59.85940185
_symmetry_Int_Tables_number   1
_chemical_formula_structural   Sc13Al23N36
_chemical_formula_sum   'Sc13 Al23 N36'
_cell_volume   881.61596117
_cell_formula_units_Z   1
loop_
 _symmetry_equiv_pos_site_id
 _symmetry_equiv_pos_as_xyz
  1  'x, y, z'
loop_
 _atom_site_type_symbol
 _atom_site_label
 _atom_site_symmetry_multiplicity
 _atom_site_fract_x
 _atom_site_fract_y
 _atom_site_fract_z
 _atom_site_occupancy
  Al  Al0  1  0.11611794  0.08991533  0.38601267  1
  Al  Al1  1  0.21332532  0.20630017  0.13223401  1
  Al  Al2  1  0.77525807  0.09879156  0.81489205  1
  Al  Al3  1  0.88806032  0.20714059  0.57727650  1
  Al  Al4  1  0.54553603  0.22050344  0.14141310  1
  Al  Al5  1  0.23234939  0.20678926  0.63818502  1
  Al  Al6  1  0.87707730  0.20905394  0.06655505  1
  Al  Al7  1  0.54766951  0.21709087  0.62901749  1
  Al  Al8  1  0.22696809  0.53897744  0.13517694  1
  Al  Al9  1  0.43475398  0.44054998  0.38579083  1
  Al  Al10  1  0.54936226  0.54368011  0.07464133  1
  Al  Al11  1  0.23090971  0.53635529  0.63266064  1
  Al  Al12  1  0.88161152  0.54171640  0.06571766  1
  Al  Al13  1  0.44140713  0.43338164  0.88435538  1
  Al  Al14  1  0.55766641  0.53770573  0.57180441  1
  Al  Al15  1  0.11190775  0.75877897  0.38421302  1
  Al  Al16  1  0.76884462  0.76690309  0.82406590  1
  Al  Al17  1  0.89182865  0.86918900  0.63427121  1
  Al  Al18  1  0.44567802  0.75526274  0.32940014  1
  Al  Al19  1  0.55805243  0.85767193  0.07557352  1
  Al  Al20  1  0.12325155  0.75340228  0.87767746  1
  Al  Al21  1  0.45109135  0.75294334  0.82328991  1
  Al  Al22  1  0.55643970  0.86916020  0.57862328  1
  Sc  Sc23  1  0.43953022  0.09320305  0.36637505  1
  Sc  Sc24  1  0.11105125  0.09303331  0.85882489  1
  Sc  Sc25  1  0.77897987  0.09412860  0.34991238  1
  Sc  Sc26  1  0.45796453  0.09325902  0.87529842  1
  Sc  Sc27  1  0.12230515  0.42575637  0.36969602  1
  Sc  Sc28  1  0.76219691  0.42884364  0.83851804  1
  Sc  Sc29  1  0.89067408  0.53477928  0.60238237  1
  Sc  Sc30  1  0.12211781  0.43514178  0.87490756  1
  Sc  Sc31  1  0.77689290  0.42385532  0.32331136  1
  Sc  Sc32  1  0.21888814  0.87348894  0.12030436  1
  Sc  Sc33  1  0.22839596  0.86441440  0.60975173  1
  Sc  Sc34  1  0.77777239  0.75508712  0.33539057  1
  Sc  Sc35  1  0.88374921  0.87513708  0.09800479  1
  N  N36  1  0.20921002  0.19403384  0.32179811  1
  N  N37  1  0.09867612  0.11151951  0.08024011  1
  N  N38  1  0.87379237  0.19561118  0.87674736  1
  N  N39  1  0.78205519  0.09081252  0.61162100  1
  N  N40  1  0.53255294  0.23561861  0.33236169  1
  N  N41  1  0.44656268  0.09136908  0.10102348  1
  N  N42  1  0.23055349  0.20765125  0.82728568  1
  N  N43  1  0.11042074  0.11002092  0.60102859  1
  N  N44  1  0.90470976  0.19808631  0.38784924  1
  N  N45  1  0.76355191  0.11867150  0.12658576  1
  N  N46  1  0.55917224  0.22653154  0.82061996  1
  N  N47  1  0.44907789  0.09369514  0.59660453  1
  N  N48  1  0.23198490  0.55562071  0.32286384  1
  N  N49  1  0.11034108  0.42962020  0.09802429  1
  N  N50  1  0.88064622  0.55584582  0.86416637  1
  N  N51  1  0.76518269  0.41483425  0.62443104  1
  N  N52  1  0.54163244  0.54944578  0.37992544  1
  N  N53  1  0.43844219  0.42595680  0.07835547  1
  N  N54  1  0.23759085  0.54896996  0.81948601  1
  N  N55  1  0.13820829  0.41666333  0.59333912  1
  N  N56  1  0.88961049  0.53220693  0.39184402  1
  N  N57  1  0.77524765  0.42887189  0.10184162  1
  N  N58  1  0.53238730  0.55523700  0.88627887  1
  N  N59  1  0.44163279  0.43058811  0.57834704  1
  N  N60  1  0.22168948  0.87177963  0.35742211  1
  N  N61  1  0.12299513  0.73847804  0.06467553  1
  N  N62  1  0.88835398  0.87488160  0.84112759  1
  N  N63  1  0.76568143  0.78084166  0.62935527  1
  N  N64  1  0.54546305  0.85754723  0.39009275  1
  N  N65  1  0.46055184  0.74958448  0.13767409  1
  N  N66  1  0.23184593  0.85572635  0.83745863  1
  N  N67  1  0.09999698  0.74834634  0.57707209  1
  N  N68  1  0.91126360  0.85931851  0.32087590  1
  N  N69  1  0.76848188  0.74738112  0.12026740  1
  N  N70  1  0.56210063  0.85091680  0.88342920  1
  N  N71  1  0.47269844  0.74449921  0.63398821  1
