# generated using pymatgen
data_Sc13Al23N36
_symmetry_space_group_name_H-M   'P 1'
_cell_length_a   10.15751162
_cell_length_b   10.19536996
_cell_length_c   9.70498300
_cell_angle_alpha   90.55273150
_cell_angle_beta   89.93951289
_cell_angle_gamma   59.81635600
_symmetry_Int_Tables_number   1
_chemical_formula_structural   Sc13Al23N36
_chemical_formula_sum   'Sc13 Al23 N36'
_cell_volume   868.71782720
_cell_formula_units_Z   1
loop_
 _symmetry_equiv_pos_site_id
 _symmetry_equiv_pos_as_xyz
  1  'x, y, z'
loop_
 _atom_site_type_symbol
 _atom_site_label
 _atom_site_symmetry_multiplicity
 _atom_site_fract_x
 _atom_site_fract_y
 _atom_site_fract_z
 _atom_site_occupancy
  Al  Al0  1  0.11443434  0.09186450  0.38850205  1
  Al  Al1  1  0.21488023  0.20469089  0.12641375  1
  Al  Al2  1  0.76691524  0.10333501  0.87645809  1
  Al  Al3  1  0.88316322  0.20282895  0.60989145  1
  Al  Al4  1  0.54635058  0.22075470  0.12768649  1
  Al  Al5  1  0.23247824  0.20639170  0.62933196  1
  Al  Al6  1  0.88414635  0.21320805  0.09055369  1
  Al  Al7  1  0.55709253  0.21125245  0.62752598  1
  Al  Al8  1  0.22918860  0.53941112  0.13177130  1
  Al  Al9  1  0.43913444  0.43923828  0.37945370  1
  Al  Al10  1  0.55003496  0.53789286  0.12792832  1
  Al  Al11  1  0.23047187  0.53603048  0.62570689  1
  Al  Al12  1  0.88322347  0.54160314  0.07172088  1
  Al  Al13  1  0.44238680  0.43468088  0.87921689  1
  Al  Al14  1  0.55102103  0.53327550  0.62971854  1
  Al  Al15  1  0.11067727  0.75896924  0.38057588  1
  Al  Al16  1  0.76869357  0.76785935  0.82406060  1
  Al  Al17  1  0.88470213  0.87980843  0.63658521  1
  Al  Al18  1  0.44168330  0.75892160  0.32746967  1
  Al  Al19  1  0.55843952  0.85808455  0.07378209  1
  Al  Al20  1  0.12404513  0.75139078  0.87169363  1
  Al  Al21  1  0.44785199  0.75587620  0.82391138  1
  Al  Al22  1  0.55457508  0.87056438  0.57554885  1
  Sc  Sc23  1  0.44379393  0.09262506  0.35472786  1
  Sc  Sc24  1  0.11041990  0.09302927  0.85125362  1
  Sc  Sc25  1  0.78016904  0.09314768  0.36067719  1
  Sc  Sc26  1  0.45622665  0.08971725  0.86140333  1
  Sc  Sc27  1  0.12243652  0.42403066  0.36121540  1
  Sc  Sc28  1  0.76565157  0.43040822  0.85216746  1
  Sc  Sc29  1  0.89314942  0.53747943  0.60590239  1
  Sc  Sc30  1  0.12317943  0.43326954  0.86795920  1
  Sc  Sc31  1  0.77386430  0.42502478  0.35924560  1
  Sc  Sc32  1  0.21790137  0.87511996  0.11171651  1
  Sc  Sc33  1  0.22781349  0.86277779  0.60275496  1
  Sc  Sc34  1  0.77948132  0.75822411  0.34243072  1
  Sc  Sc35  1  0.88809110  0.86737308  0.09513991  1
  N  N36  1  0.21362328  0.18999682  0.32277560  1
  N  N37  1  0.09739404  0.11429313  0.07436651  1
  N  N38  1  0.87700128  0.19621954  0.83589087  1
  N  N39  1  0.77679046  0.09053712  0.58758882  1
  N  N40  1  0.53979539  0.23350362  0.32269016  1
  N  N41  1  0.44658375  0.09210150  0.09671426  1
  N  N42  1  0.22902307  0.20622249  0.82505912  1
  N  N43  1  0.10850932  0.10972691  0.59431035  1
  N  N44  1  0.90866758  0.19341399  0.35814443  1
  N  N45  1  0.76241408  0.11753931  0.08127757  1
  N  N46  1  0.55933208  0.22350856  0.82519947  1
  N  N47  1  0.45071622  0.09351212  0.59643711  1
  N  N48  1  0.23217577  0.55353667  0.32606322  1
  N  N49  1  0.11190667  0.42891162  0.09926893  1
  N  N50  1  0.88309294  0.55689465  0.85784151  1
  N  N51  1  0.76563632  0.41839184  0.60527088  1
  N  N52  1  0.53578635  0.54591974  0.32794505  1
  N  N53  1  0.44095944  0.43069995  0.07485546  1
  N  N54  1  0.23782383  0.54696280  0.81900311  1
  N  N55  1  0.13891607  0.41598481  0.59299543  1
  N  N56  1  0.89306795  0.53498873  0.38683393  1
  N  N57  1  0.77407833  0.43033435  0.09462512  1
  N  N58  1  0.53382460  0.54590181  0.83192886  1
  N  N59  1  0.44503166  0.42922125  0.57551732  1
  N  N60  1  0.22115007  0.87121646  0.35716315  1
  N  N61  1  0.12440602  0.73726369  0.06500753  1
  N  N62  1  0.88399372  0.87789248  0.84452539  1
  N  N63  1  0.76494594  0.78423664  0.62143962  1
  N  N64  1  0.54489049  0.85886540  0.37998612  1
  N  N65  1  0.45516502  0.75533184  0.12278072  1
  N  N66  1  0.23157480  0.85527914  0.84000424  1
  N  N67  1  0.09607545  0.75074276  0.58057862  1
  N  N68  1  0.91139181  0.86227255  0.31645752  1
  N  N69  1  0.76784057  0.74798383  0.11738656  1
  N  N70  1  0.56260402  0.84911841  0.87600952  1
  N  N71  1  0.46705360  0.74963401  0.62230571  1
