# generated using pymatgen
data_Sc13Al23N36
_symmetry_space_group_name_H-M   'P 1'
_cell_length_a   10.07204658
_cell_length_b   10.11751397
_cell_length_c   9.93381620
_cell_angle_alpha   90.22769610
_cell_angle_beta   90.34652344
_cell_angle_gamma   59.99468403
_symmetry_Int_Tables_number   1
_chemical_formula_structural   Sc13Al23N36
_chemical_formula_sum   'Sc13 Al23 N36'
_cell_volume   876.61080666
_cell_formula_units_Z   1
loop_
 _symmetry_equiv_pos_site_id
 _symmetry_equiv_pos_as_xyz
  1  'x, y, z'
loop_
 _atom_site_type_symbol
 _atom_site_label
 _atom_site_symmetry_multiplicity
 _atom_site_fract_x
 _atom_site_fract_y
 _atom_site_fract_z
 _atom_site_occupancy
  Al  Al0  1  0.10872212  0.09274854  0.31950597  1
  Al  Al1  1  0.22041096  0.20917767  0.07941243  1
  Al  Al2  1  0.77634116  0.09918391  0.81500642  1
  Al  Al3  1  0.89309500  0.20574399  0.57277668  1
  Al  Al4  1  0.54799143  0.22046757  0.13867431  1
  Al  Al5  1  0.22349407  0.20368120  0.57300798  1
  Al  Al6  1  0.87815889  0.20931943  0.07283089  1
  Al  Al7  1  0.54745380  0.21756011  0.62413744  1
  Al  Al8  1  0.22855817  0.53907368  0.13031922  1
  Al  Al9  1  0.43370310  0.44021098  0.38320678  1
  Al  Al10  1  0.55290834  0.54222435  0.07238351  1
  Al  Al11  1  0.23101138  0.53845643  0.62886058  1
  Al  Al12  1  0.88509076  0.54146529  0.06328683  1
  Al  Al13  1  0.44261085  0.43243667  0.88158804  1
  Al  Al14  1  0.55504195  0.53895747  0.57087506  1
  Al  Al15  1  0.11268727  0.75882612  0.37761155  1
  Al  Al16  1  0.77018048  0.76626762  0.82161231  1
  Al  Al17  1  0.89213565  0.87013180  0.62999693  1
  Al  Al18  1  0.44357377  0.75596181  0.32456862  1
  Al  Al19  1  0.56044091  0.85846175  0.07095721  1
  Al  Al20  1  0.12203247  0.75326088  0.87460799  1
  Al  Al21  1  0.45032727  0.75258914  0.82145347  1
  Al  Al22  1  0.55402321  0.87092708  0.57626174  1
  Sc  Sc23  1  0.44121433  0.08811984  0.33947322  1
  Sc  Sc24  1  0.10902545  0.09472658  0.84039269  1
  Sc  Sc25  1  0.77863917  0.09354882  0.35227975  1
  Sc  Sc26  1  0.45541914  0.09004661  0.84570687  1
  Sc  Sc27  1  0.11685746  0.42685220  0.34217418  1
  Sc  Sc28  1  0.76509961  0.42568572  0.83740877  1
  Sc  Sc29  1  0.88930316  0.53549689  0.59729032  1
  Sc  Sc30  1  0.12142083  0.43215884  0.84619528  1
  Sc  Sc31  1  0.77338778  0.42494198  0.32468876  1
  Sc  Sc32  1  0.22786074  0.86707708  0.09516085  1
  Sc  Sc33  1  0.22580539  0.87337439  0.58961292  1
  Sc  Sc34  1  0.77638063  0.75610051  0.33441292  1
  Sc  Sc35  1  0.88432775  0.87602422  0.09709632  1
  N  N36  1  0.21148069  0.19316863  0.37894855  1
  N  N37  1  0.09741245  0.11406642  0.12157143  1
  N  N38  1  0.87783058  0.19237553  0.88350586  1
  N  N39  1  0.78217116  0.09205168  0.60828923  1
  N  N40  1  0.53317086  0.23479951  0.33388343  1
  N  N41  1  0.44981529  0.08762772  0.11048370  1
  N  N42  1  0.22765318  0.20462470  0.89052011  1
  N  N43  1  0.10328962  0.11400339  0.62749990  1
  N  N44  1  0.90860882  0.19600281  0.38311387  1
  N  N45  1  0.76362548  0.11854385  0.12696365  1
  N  N46  1  0.56062299  0.22599206  0.81926489  1
  N  N47  1  0.44468067  0.09252592  0.61082586  1
  N  N48  1  0.23173179  0.55491207  0.32154982  1
  N  N49  1  0.10943702  0.43134651  0.10720143  1
  N  N50  1  0.88078737  0.55552131  0.86164508  1
  N  N51  1  0.76457339  0.41447691  0.61943035  1
  N  N52  1  0.53860325  0.55090806  0.37686829  1
  N  N53  1  0.44034666  0.42609798  0.07720840  1
  N  N54  1  0.23897203  0.55024418  0.81871327  1
  N  N55  1  0.13550116  0.41611514  0.61155973  1
  N  N56  1  0.88961858  0.53223582  0.38689154  1
  N  N57  1  0.77670080  0.42930057  0.10112510  1
  N  N58  1  0.53546377  0.55289694  0.88154801  1
  N  N59  1  0.44058007  0.43073405  0.57701775  1
  N  N60  1  0.22155827  0.87253568  0.35283068  1
  N  N61  1  0.12169537  0.73805559  0.06413706  1
  N  N62  1  0.88936197  0.87486479  0.83811910  1
  N  N63  1  0.76553469  0.78138077  0.62416146  1
  N  N64  1  0.54429941  0.85778735  0.38735780  1
  N  N65  1  0.46453427  0.74799257  0.13251506  1
  N  N66  1  0.23440084  0.85727690  0.85469938  1
  N  N67  1  0.10183011  0.75083043  0.57514275  1
  N  N68  1  0.90990394  0.85965596  0.32140044  1
  N  N69  1  0.77024383  0.74767379  0.11645633  1
  N  N70  1  0.56334049  0.85095199  0.87854184  1
  N  N71  1  0.46711092  0.74712766  0.63075886  1
