# generated using pymatgen
data_Sc13Al23N36
_symmetry_space_group_name_H-M   'P 1'
_cell_length_a   10.06653864
_cell_length_b   10.10506819
_cell_length_c   9.99287200
_cell_angle_alpha   90.06631217
_cell_angle_beta   90.14590700
_cell_angle_gamma   59.95945614
_symmetry_Int_Tables_number   1
_chemical_formula_structural   Sc13Al23N36
_chemical_formula_sum   'Sc13 Al23 N36'
_cell_volume   879.95686259
_cell_formula_units_Z   1
loop_
 _symmetry_equiv_pos_site_id
 _symmetry_equiv_pos_as_xyz
  1  'x, y, z'
loop_
 _atom_site_type_symbol
 _atom_site_label
 _atom_site_symmetry_multiplicity
 _atom_site_fract_x
 _atom_site_fract_y
 _atom_site_fract_z
 _atom_site_occupancy
  Al  Al0  1  0.10616623  0.08908562  0.31141083  1
  Al  Al1  1  0.21833857  0.20911000  0.12557430  1
  Al  Al2  1  0.77670109  0.09940035  0.81131288  1
  Al  Al3  1  0.89585757  0.20492751  0.57144249  1
  Al  Al4  1  0.54519194  0.21981599  0.14045825  1
  Al  Al5  1  0.22986872  0.20709445  0.64128314  1
  Al  Al6  1  0.87363595  0.20951138  0.06871040  1
  Al  Al7  1  0.54755633  0.21791114  0.62554099  1
  Al  Al8  1  0.22667310  0.53698888  0.13250868  1
  Al  Al9  1  0.43389677  0.44079667  0.38291809  1
  Al  Al10  1  0.55307269  0.54068743  0.07215867  1
  Al  Al11  1  0.23141723  0.53876172  0.62941655  1
  Al  Al12  1  0.88215759  0.54141093  0.06319128  1
  Al  Al13  1  0.44229856  0.43310192  0.88136557  1
  Al  Al14  1  0.55541578  0.53911438  0.56929079  1
  Al  Al15  1  0.11228089  0.75902077  0.37762967  1
  Al  Al16  1  0.76967930  0.76698696  0.82062258  1
  Al  Al17  1  0.89267355  0.87019347  0.62928565  1
  Al  Al18  1  0.44374362  0.75636213  0.32314126  1
  Al  Al19  1  0.56096215  0.85645201  0.07195826  1
  Al  Al20  1  0.12119397  0.75332418  0.87374747  1
  Al  Al21  1  0.45031158  0.75308474  0.82104917  1
  Al  Al22  1  0.55557748  0.86894467  0.57734715  1
  Sc  Sc23  1  0.43701875  0.09307500  0.36603275  1
  Sc  Sc24  1  0.10856592  0.09419653  0.84917092  1
  Sc  Sc25  1  0.77740620  0.09451310  0.35160910  1
  Sc  Sc26  1  0.46074354  0.09217994  0.87103456  1
  Sc  Sc27  1  0.12260022  0.42401792  0.36969210  1
  Sc  Sc28  1  0.76341117  0.42648837  0.83438448  1
  Sc  Sc29  1  0.89019776  0.53511483  0.60098858  1
  Sc  Sc30  1  0.12147095  0.43755034  0.86973338  1
  Sc  Sc31  1  0.77567830  0.42495021  0.32449283  1
  Sc  Sc32  1  0.22953622  0.86136430  0.09187808  1
  Sc  Sc33  1  0.22521108  0.87602593  0.58876065  1
  Sc  Sc34  1  0.77677412  0.75543097  0.33460947  1
  Sc  Sc35  1  0.88381226  0.87599605  0.09803134  1
  N  N36  1  0.21038489  0.19628262  0.31678273  1
  N  N37  1  0.09474371  0.10802700  0.10518598  1
  N  N38  1  0.87424679  0.19463518  0.88099887  1
  N  N39  1  0.78271601  0.09214010  0.60695306  1
  N  N40  1  0.53106815  0.23530783  0.33238070  1
  N  N41  1  0.44864241  0.08983133  0.09770923  1
  N  N42  1  0.23149306  0.20809046  0.83535354  1
  N  N43  1  0.10388170  0.11377880  0.62788713  1
  N  N44  1  0.91032999  0.19479539  0.38204566  1
  N  N45  1  0.76128716  0.11877363  0.12741975  1
  N  N46  1  0.56110279  0.22677992  0.81743421  1
  N  N47  1  0.44687405  0.09359251  0.59822984  1
  N  N48  1  0.23095277  0.55454899  0.32077570  1
  N  N49  1  0.11001454  0.42979678  0.09313247  1
  N  N50  1  0.87980508  0.55565361  0.86009831  1
  N  N51  1  0.76482807  0.41409660  0.61835425  1
  N  N52  1  0.53944192  0.55094518  0.37658632  1
  N  N53  1  0.43872419  0.42550566  0.07634295  1
  N  N54  1  0.23879841  0.55042332  0.81634666  1
  N  N55  1  0.13780704  0.41718416  0.59563537  1
  N  N56  1  0.89013972  0.53233177  0.38989288  1
  N  N57  1  0.77631839  0.42830831  0.10167720  1
  N  N58  1  0.53482747  0.55352032  0.88266925  1
  N  N59  1  0.44107497  0.43095383  0.57585205  1
  N  N60  1  0.22119636  0.87253400  0.35064233  1
  N  N61  1  0.12038211  0.73502152  0.06222538  1
  N  N62  1  0.88942145  0.87513444  0.83653564  1
  N  N63  1  0.76596707  0.78138299  0.62483813  1
  N  N64  1  0.54408351  0.85732822  0.38792056  1
  N  N65  1  0.46557960  0.74629122  0.13290553  1
  N  N66  1  0.23485615  0.85607837  0.85578491  1
  N  N67  1  0.10213658  0.75153590  0.57384584  1
  N  N68  1  0.90963626  0.86036270  0.32055073  1
  N  N69  1  0.77023365  0.74674845  0.11786272  1
  N  N70  1  0.56375246  0.85018203  0.87929355  1
  N  N71  1  0.46735608  0.74709962  0.63154926  1
