# generated using pymatgen
data_Sc13Al23N36
_symmetry_space_group_name_H-M   'P 1'
_cell_length_a   10.00240579
_cell_length_b   10.05242954
_cell_length_c   10.15071771
_cell_angle_alpha   89.85767505
_cell_angle_beta   90.26346710
_cell_angle_gamma   60.00859726
_symmetry_Int_Tables_number   1
_chemical_formula_structural   Sc13Al23N36
_chemical_formula_sum   'Sc13 Al23 N36'
_cell_volume   883.95324198
_cell_formula_units_Z   1
loop_
 _symmetry_equiv_pos_site_id
 _symmetry_equiv_pos_as_xyz
  1  'x, y, z'
loop_
 _atom_site_type_symbol
 _atom_site_label
 _atom_site_symmetry_multiplicity
 _atom_site_fract_x
 _atom_site_fract_y
 _atom_site_fract_z
 _atom_site_occupancy
  Al  Al0  1  0.10849509  0.09362420  0.31952650  1
  Al  Al1  1  0.21986559  0.20892294  0.07390374  1
  Al  Al2  1  0.77250239  0.10146669  0.81594570  1
  Al  Al3  1  0.88887743  0.20618277  0.57050533  1
  Al  Al4  1  0.55657009  0.21012039  0.06589037  1
  Al  Al5  1  0.22354854  0.20446679  0.56840159  1
  Al  Al6  1  0.88082787  0.21031304  0.06977424  1
  Al  Al7  1  0.55016181  0.20926375  0.57311000  1
  Al  Al8  1  0.23197075  0.53744895  0.13172810  1
  Al  Al9  1  0.43377107  0.44028732  0.38945973  1
  Al  Al10  1  0.55365071  0.54305388  0.06912011  1
  Al  Al11  1  0.22994051  0.54013206  0.63134454  1
  Al  Al12  1  0.88587257  0.54087465  0.06049895  1
  Al  Al13  1  0.43894376  0.43837181  0.88182826  1
  Al  Al14  1  0.55579057  0.54008581  0.57228947  1
  Al  Al15  1  0.11151138  0.75719084  0.37642879  1
  Al  Al16  1  0.77000039  0.76578676  0.82047543  1
  Al  Al17  1  0.89133773  0.87223375  0.63491982  1
  Al  Al18  1  0.44368905  0.75648072  0.32256893  1
  Al  Al19  1  0.55982252  0.85952476  0.06559168  1
  Al  Al20  1  0.12153701  0.75407504  0.87799935  1
  Al  Al21  1  0.44918922  0.75448527  0.81866440  1
  Al  Al22  1  0.55421785  0.87207682  0.57258790  1
  Sc  Sc23  1  0.44277166  0.09067745  0.32476038  1
  Sc  Sc24  1  0.10826942  0.09350778  0.83039554  1
  Sc  Sc25  1  0.77741463  0.09531008  0.33440762  1
  Sc  Sc26  1  0.45153416  0.08942025  0.82975547  1
  Sc  Sc27  1  0.11433889  0.42589173  0.33306434  1
  Sc  Sc28  1  0.76695632  0.42604873  0.83440339  1
  Sc  Sc29  1  0.88917970  0.53727163  0.59111992  1
  Sc  Sc30  1  0.12016334  0.43131415  0.84105726  1
  Sc  Sc31  1  0.77187173  0.42559235  0.32050751  1
  Sc  Sc32  1  0.22846309  0.86943748  0.09082163  1
  Sc  Sc33  1  0.22628177  0.87328180  0.57853328  1
  Sc  Sc34  1  0.77410261  0.75706660  0.32654497  1
  Sc  Sc35  1  0.88655287  0.87332217  0.09379907  1
  N  N36  1  0.21394897  0.19295185  0.37975219  1
  N  N37  1  0.09725257  0.11578415  0.12671932  1
  N  N38  1  0.87914702  0.19199939  0.88477595  1
  N  N39  1  0.77696153  0.09619347  0.61991235  1
  N  N40  1  0.54094201  0.22356645  0.38357572  1
  N  N41  1  0.45055752  0.08865341  0.10763065  1
  N  N42  1  0.22524103  0.20307262  0.89006030  1
  N  N43  1  0.10275964  0.11241824  0.62270985  1
  N  N44  1  0.90639198  0.19645930  0.38453035  1
  N  N45  1  0.76283306  0.11993624  0.12442911  1
  N  N46  1  0.56358558  0.21654619  0.87073194  1
  N  N47  1  0.44402719  0.09240199  0.61412000  1
  N  N48  1  0.23392632  0.55121940  0.32045031  1
  N  N49  1  0.11062222  0.43023342  0.10779012  1
  N  N50  1  0.88080017  0.55603954  0.86569430  1
  N  N51  1  0.76604092  0.41517429  0.62190918  1
  N  N52  1  0.53904182  0.55154905  0.38153240  1
  N  N53  1  0.44053353  0.42915123  0.07771071  1
  N  N54  1  0.23646245  0.55307829  0.81746197  1
  N  N55  1  0.13483782  0.41549924  0.61616606  1
  N  N56  1  0.88775171  0.53347302  0.38574483  1
  N  N57  1  0.77702593  0.42946372  0.10156334  1
  N  N58  1  0.53680226  0.55431729  0.88168580  1
  N  N59  1  0.44015367  0.43381468  0.58436558  1
  N  N60  1  0.22164623  0.87190390  0.35352322  1
  N  N61  1  0.12379646  0.73673512  0.06384063  1
  N  N62  1  0.89112640  0.87362477  0.83875402  1
  N  N63  1  0.76460497  0.78228547  0.62786656  1
  N  N64  1  0.54247531  0.86189057  0.38729029  1
  N  N65  1  0.46590699  0.74790157  0.13430905  1
  N  N66  1  0.23540843  0.85789549  0.86140780  1
  N  N67  1  0.09885606  0.75207642  0.57090453  1
  N  N68  1  0.91038876  0.85849107  0.31391768  1
  N  N69  1  0.76985352  0.74748089  0.11441708  1
  N  N70  1  0.56262507  0.85179427  0.87837798  1
  N  N71  1  0.46614730  0.74926306  0.63154746  1
