# generated using pymatgen
data_Sc13Al23N36
_symmetry_space_group_name_H-M   'P 1'
_cell_length_a   10.04240126
_cell_length_b   10.08717041
_cell_length_c   10.08771137
_cell_angle_alpha   90.30345755
_cell_angle_beta   90.14187595
_cell_angle_gamma   59.84546222
_symmetry_Int_Tables_number   1
_chemical_formula_structural   Sc13Al23N36
_chemical_formula_sum   'Sc13 Al23 N36'
_cell_volume   883.57964701
_cell_formula_units_Z   1
loop_
 _symmetry_equiv_pos_site_id
 _symmetry_equiv_pos_as_xyz
  1  'x, y, z'
loop_
 _atom_site_type_symbol
 _atom_site_label
 _atom_site_symmetry_multiplicity
 _atom_site_fract_x
 _atom_site_fract_y
 _atom_site_fract_z
 _atom_site_occupancy
  Al  Al0  1  0.11690639  0.09148785  0.39560121  1
  Al  Al1  1  0.21255215  0.20624283  0.13388311  1
  Al  Al2  1  0.77525407  0.09865288  0.81501070  1
  Al  Al3  1  0.88647721  0.20743936  0.57753397  1
  Al  Al4  1  0.54520937  0.22082595  0.14122416  1
  Al  Al5  1  0.23312272  0.20663694  0.63727966  1
  Al  Al6  1  0.87681406  0.20949678  0.06478865  1
  Al  Al7  1  0.54792616  0.21670942  0.62979300  1
  Al  Al8  1  0.22696032  0.53972325  0.13545895  1
  Al  Al9  1  0.43521617  0.44023949  0.38625277  1
  Al  Al10  1  0.54779889  0.54513768  0.07420917  1
  Al  Al11  1  0.23084362  0.53566221  0.63328405  1
  Al  Al12  1  0.88107433  0.54192872  0.06531338  1
  Al  Al13  1  0.44105268  0.43353572  0.88474874  1
  Al  Al14  1  0.55877034  0.53708976  0.57152815  1
  Al  Al15  1  0.11171151  0.75834842  0.38575801  1
  Al  Al16  1  0.76846403  0.76688212  0.82435665  1
  Al  Al17  1  0.89205345  0.86873697  0.63582815  1
  Al  Al18  1  0.44664706  0.75474323  0.33096335  1
  Al  Al19  1  0.55646261  0.85808489  0.07563341  1
  Al  Al20  1  0.12437918  0.75351939  0.87848002  1
  Al  Al21  1  0.45080752  0.75316077  0.82220050  1
  Al  Al22  1  0.55722828  0.86909701  0.57808545  1
  Sc  Sc23  1  0.43986462  0.09333669  0.36651632  1
  Sc  Sc24  1  0.11241816  0.09141061  0.86039349  1
  Sc  Sc25  1  0.77980665  0.09398221  0.34774103  1
  Sc  Sc26  1  0.45708871  0.09371781  0.87658338  1
  Sc  Sc27  1  0.12262370  0.42581388  0.36971087  1
  Sc  Sc28  1  0.76194844  0.42946365  0.83844960  1
  Sc  Sc29  1  0.89074001  0.53483971  0.60139161  1
  Sc  Sc30  1  0.12227840  0.43428977  0.87625216  1
  Sc  Sc31  1  0.77772378  0.42305387  0.32166539  1
  Sc  Sc32  1  0.21511864  0.87665817  0.13032583  1
  Sc  Sc33  1  0.22925981  0.86240622  0.61037374  1
  Sc  Sc34  1  0.77823345  0.75478187  0.33361133  1
  Sc  Sc35  1  0.88376700  0.87475223  0.09681492  1
  N  N36  1  0.20875677  0.19341440  0.32213752  1
  N  N37  1  0.09906307  0.11177959  0.07780655  1
  N  N38  1  0.87413605  0.19569608  0.87603887  1
  N  N39  1  0.78225024  0.09032623  0.61300799  1
  N  N40  1  0.53293557  0.23567961  0.33095667  1
  N  N41  1  0.44561888  0.09194935  0.10087393  1
  N  N42  1  0.23026497  0.20727710  0.82466963  1
  N  N43  1  0.11181468  0.10954809  0.59676161  1
  N  N44  1  0.90417326  0.19846465  0.38915167  1
  N  N45  1  0.76401646  0.11859034  0.12580595  1
  N  N46  1  0.55861933  0.22656485  0.82052878  1
  N  N47  1  0.44970900  0.09381614  0.59497879  1
  N  N48  1  0.23256047  0.55585046  0.32225362  1
  N  N49  1  0.11015991  0.42973522  0.09831353  1
  N  N50  1  0.88075104  0.55601242  0.86541191  1
  N  N51  1  0.76562397  0.41471360  0.62598711  1
  N  N52  1  0.54292055  0.54868588  0.38079272  1
  N  N53  1  0.43817283  0.42602443  0.07770511  1
  N  N54  1  0.23710508  0.54858577  0.81940554  1
  N  N55  1  0.13849344  0.41627559  0.59166963  1
  N  N56  1  0.88935408  0.53227871  0.39196040  1
  N  N57  1  0.77457993  0.42919433  0.10132174  1
  N  N58  1  0.53154105  0.55621306  0.88697592  1
  N  N59  1  0.44190592  0.43022113  0.57798812  1
  N  N60  1  0.22177353  0.87221420  0.36059997  1
  N  N61  1  0.12422229  0.73966879  0.06452125  1
  N  N62  1  0.88839513  0.87474196  0.84189148  1
  N  N63  1  0.76569833  0.78066451  0.63109062  1
  N  N64  1  0.54650996  0.85736484  0.39059252  1
  N  N65  1  0.45827403  0.75086869  0.13948702  1
  N  N66  1  0.23115143  0.85527623  0.83157561  1
  N  N67  1  0.09942487  0.74722457  0.57671159  1
  N  N68  1  0.91233950  0.85876954  0.31898394  1
  N  N69  1  0.76745877  0.74765970  0.12019795  1
  N  N70  1  0.56124532  0.85117902  0.88434155  1
  N  N71  1  0.47437409  0.74373469  0.63390234  1
