# generated using pymatgen
data_Sc13Al23N36
_symmetry_space_group_name_H-M   'P 1'
_cell_length_a   10.06629258
_cell_length_b   10.09297396
_cell_length_c   9.91788574
_cell_angle_alpha   89.65524891
_cell_angle_beta   90.01487045
_cell_angle_gamma   60.09098096
_symmetry_Int_Tables_number   1
_chemical_formula_structural   Sc13Al23N36
_chemical_formula_sum   'Sc13 Al23 N36'
_cell_volume   873.42360758
_cell_formula_units_Z   1
loop_
 _symmetry_equiv_pos_site_id
 _symmetry_equiv_pos_as_xyz
  1  'x, y, z'
loop_
 _atom_site_type_symbol
 _atom_site_label
 _atom_site_symmetry_multiplicity
 _atom_site_fract_x
 _atom_site_fract_y
 _atom_site_fract_z
 _atom_site_occupancy
  Al  Al0  1  0.10999752  0.09317417  0.31164157  1
  Al  Al1  1  0.22129438  0.20879753  0.06712644  1
  Al  Al2  1  0.77076188  0.10304669  0.80994041  1
  Al  Al3  1  0.89067010  0.20615083  0.56490392  1
  Al  Al4  1  0.55585199  0.21712751  0.06041540  1
  Al  Al5  1  0.22468945  0.20222561  0.56008460  1
  Al  Al6  1  0.88039426  0.21057013  0.06368212  1
  Al  Al7  1  0.54784809  0.21515133  0.56537617  1
  Al  Al8  1  0.22994752  0.53245529  0.07671942  1
  Al  Al9  1  0.44012478  0.43713840  0.31501371  1
  Al  Al10  1  0.55020405  0.54038027  0.06315643  1
  Al  Al11  1  0.22990315  0.53602666  0.57512919  1
  Al  Al12  1  0.88587921  0.54161295  0.05196312  1
  Al  Al13  1  0.44538106  0.43498451  0.80904759  1
  Al  Al14  1  0.55371264  0.53534142  0.56104356  1
  Al  Al15  1  0.11058537  0.76182994  0.37077843  1
  Al  Al16  1  0.76926897  0.76613962  0.81387932  1
  Al  Al17  1  0.88874286  0.87465316  0.62640463  1
  Al  Al18  1  0.44420287  0.75573302  0.31716408  1
  Al  Al19  1  0.56090326  0.85787310  0.06017586  1
  Al  Al20  1  0.12015524  0.75492371  0.86646962  1
  Al  Al21  1  0.45041827  0.75070919  0.81242114  1
  Al  Al22  1  0.55355421  0.87170454  0.56633589  1
  Sc  Sc23  1  0.44488444  0.09168016  0.31998671  1
  Sc  Sc24  1  0.10853435  0.09392620  0.82909016  1
  Sc  Sc25  1  0.77776898  0.09616040  0.33344855  1
  Sc  Sc26  1  0.45372014  0.08914575  0.82738221  1
  Sc  Sc27  1  0.11578597  0.42784085  0.32745034  1
  Sc  Sc28  1  0.76495775  0.42695517  0.82975823  1
  Sc  Sc29  1  0.88662191  0.53799534  0.58601928  1
  Sc  Sc30  1  0.12113611  0.42872415  0.82387752  1
  Sc  Sc31  1  0.77332094  0.42575490  0.31571459  1
  Sc  Sc32  1  0.22916990  0.86810538  0.08809407  1
  Sc  Sc33  1  0.22644280  0.87291882  0.58174532  1
  Sc  Sc34  1  0.77518832  0.75826275  0.32372012  1
  Sc  Sc35  1  0.88474199  0.87635570  0.08603249  1
  N  N36  1  0.21570764  0.19202058  0.36698172  1
  N  N37  1  0.09791855  0.11498620  0.11333749  1
  N  N38  1  0.87822310  0.19305626  0.87435104  1
  N  N39  1  0.77581173  0.09723304  0.60942592  1
  N  N40  1  0.53879976  0.23121293  0.37586887  1
  N  N41  1  0.45178403  0.08992727  0.09780802  1
  N  N42  1  0.22748533  0.20260952  0.87924956  1
  N  N43  1  0.10287329  0.11373846  0.61609936  1
  N  N44  1  0.90888696  0.19594825  0.37456357  1
  N  N45  1  0.76205935  0.12139369  0.11774024  1
  N  N46  1  0.56194918  0.22225516  0.86532143  1
  N  N47  1  0.44455182  0.09313079  0.60482683  1
  N  N48  1  0.23228884  0.54930205  0.35851560  1
  N  N49  1  0.11085976  0.43059376  0.09818325  1
  N  N50  1  0.88106299  0.55532602  0.85191554  1
  N  N51  1  0.76461062  0.41532276  0.61057352  1
  N  N52  1  0.53683899  0.54798287  0.37001485  1
  N  N53  1  0.44448646  0.42870692  0.11892724  1
  N  N54  1  0.23591925  0.54521615  0.84294548  1
  N  N55  1  0.13460985  0.41527702  0.60014174  1
  N  N56  1  0.88815718  0.53394646  0.37618016  1
  N  N57  1  0.77650288  0.43013680  0.09121224  1
  N  N58  1  0.53253812  0.54905648  0.87432246  1
  N  N59  1  0.44676563  0.42984127  0.61684753  1
  N  N60  1  0.22228405  0.87209267  0.34416644  1
  N  N61  1  0.12097683  0.74236610  0.06157008  1
  N  N62  1  0.88695345  0.87599438  0.83405722  1
  N  N63  1  0.76432912  0.78357519  0.61603712  1
  N  N64  1  0.54247272  0.86181282  0.37685610  1
  N  N65  1  0.46610704  0.74650420  0.12434368  1
  N  N66  1  0.23491069  0.85618923  0.84534823  1
  N  N67  1  0.09723489  0.75728614  0.57321068  1
  N  N68  1  0.90941017  0.86084568  0.31178539  1
  N  N69  1  0.77096418  0.74788350  0.10546372  1
  N  N70  1  0.56212345  0.84982776  0.86874638  1
  N  N71  1  0.46840473  0.74500614  0.62098213  1
