# generated using pymatgen
data_Sc13Al23N36
_symmetry_space_group_name_H-M   'P 1'
_cell_length_a   10.16091906
_cell_length_b   10.19793013
_cell_length_c   9.70281083
_cell_angle_alpha   90.55976972
_cell_angle_beta   89.93636917
_cell_angle_gamma   59.81389708
_symmetry_Int_Tables_number   1
_chemical_formula_structural   Sc13Al23N36
_chemical_formula_sum   'Sc13 Al23 N36'
_cell_volume   869.00937181
_cell_formula_units_Z   1
loop_
 _symmetry_equiv_pos_site_id
 _symmetry_equiv_pos_as_xyz
  1  'x, y, z'
loop_
 _atom_site_type_symbol
 _atom_site_label
 _atom_site_symmetry_multiplicity
 _atom_site_fract_x
 _atom_site_fract_y
 _atom_site_fract_z
 _atom_site_occupancy
  Al  Al0  1  0.11540540  0.09126292  0.38879906  1
  Al  Al1  1  0.21466193  0.20465672  0.12635380  1
  Al  Al2  1  0.76629671  0.10269910  0.87568118  1
  Al  Al3  1  0.88415088  0.20316472  0.59826007  1
  Al  Al4  1  0.54629222  0.22071170  0.12781917  1
  Al  Al5  1  0.23281710  0.20639082  0.62962285  1
  Al  Al6  1  0.88311307  0.21340152  0.07669814  1
  Al  Al7  1  0.55713539  0.21124627  0.62758598  1
  Al  Al8  1  0.22916760  0.53945362  0.13176151  1
  Al  Al9  1  0.43913730  0.43927205  0.37947622  1
  Al  Al10  1  0.55005006  0.53787917  0.12770875  1
  Al  Al11  1  0.23046469  0.53601323  0.62571110  1
  Al  Al12  1  0.88313934  0.54155724  0.07160486  1
  Al  Al13  1  0.44233680  0.43472046  0.87928301  1
  Al  Al14  1  0.55088494  0.53335228  0.62957018  1
  Al  Al15  1  0.11067012  0.75896158  0.38061653  1
  Al  Al16  1  0.76867933  0.76783868  0.82404063  1
  Al  Al17  1  0.88468274  0.87979757  0.63655370  1
  Al  Al18  1  0.44176019  0.75887575  0.32740917  1
  Al  Al19  1  0.55844866  0.85804844  0.07386792  1
  Al  Al20  1  0.12410857  0.75131761  0.87176170  1
  Al  Al21  1  0.44779566  0.75590814  0.82399087  1
  Al  Al22  1  0.55455260  0.87059976  0.57556625  1
  Sc  Sc23  1  0.44369336  0.09266465  0.35465626  1
  Sc  Sc24  1  0.11082615  0.09285822  0.85009891  1
  Sc  Sc25  1  0.78005889  0.09309127  0.35980411  1
  Sc  Sc26  1  0.45621006  0.08972048  0.86160054  1
  Sc  Sc27  1  0.12245474  0.42408341  0.36115940  1
  Sc  Sc28  1  0.76525399  0.43128533  0.85020301  1
  Sc  Sc29  1  0.89317269  0.53751724  0.60569993  1
  Sc  Sc30  1  0.12317332  0.43338756  0.86803004  1
  Sc  Sc31  1  0.77436943  0.42484135  0.35685849  1
  Sc  Sc32  1  0.21781857  0.87529938  0.11151635  1
  Sc  Sc33  1  0.22804109  0.86240890  0.60289619  1
  Sc  Sc34  1  0.77945425  0.75824539  0.34245944  1
  Sc  Sc35  1  0.88805079  0.86733394  0.09511578  1
  N  N36  1  0.21338567  0.19011955  0.32291567  1
  N  N37  1  0.09742007  0.11415773  0.07509482  1
  N  N38  1  0.87670833  0.19722991  0.84643638  1
  N  N39  1  0.77669748  0.09060602  0.58893157  1
  N  N40  1  0.53966411  0.23354346  0.32296420  1
  N  N41  1  0.44649666  0.09209463  0.09689360  1
  N  N42  1  0.22919661  0.20639670  0.82547127  1
  N  N43  1  0.10990707  0.10891114  0.59600301  1
  N  N44  1  0.90811315  0.19362027  0.37089806  1
  N  N45  1  0.76196718  0.11695061  0.08241143  1
  N  N46  1  0.55904814  0.22363517  0.82525105  1
  N  N47  1  0.45079910  0.09349821  0.59644715  1
  N  N48  1  0.23219143  0.55356465  0.32612268  1
  N  N49  1  0.11190000  0.42893877  0.09937446  1
  N  N50  1  0.88319686  0.55705573  0.85790892  1
  N  N51  1  0.76560718  0.41860608  0.60672756  1
  N  N52  1  0.53595492  0.54585045  0.32810680  1
  N  N53  1  0.44095251  0.43068413  0.07496822  1
  N  N54  1  0.23781853  0.54696882  0.81903635  1
  N  N55  1  0.13892598  0.41594764  0.59302823  1
  N  N56  1  0.89301309  0.53491964  0.38672037  1
  N  N57  1  0.77419616  0.43023462  0.09534763  1
  N  N58  1  0.53344182  0.54611862  0.83202432  1
  N  N59  1  0.44500999  0.42925857  0.57555492  1
  N  N60  1  0.22114825  0.87124011  0.35719518  1
  N  N61  1  0.12436740  0.73729623  0.06508330  1
  N  N62  1  0.88397774  0.87777734  0.84451464  1
  N  N63  1  0.76494586  0.78419172  0.62133893  1
  N  N64  1  0.54486419  0.85892020  0.37992953  1
  N  N65  1  0.45517237  0.75530265  0.12278705  1
  N  N66  1  0.23157413  0.85518032  0.84007542  1
  N  N67  1  0.09604906  0.75069154  0.58061978  1
  N  N68  1  0.91142344  0.86227377  0.31663511  1
  N  N69  1  0.76782444  0.74795815  0.11742173  1
  N  N70  1  0.56260817  0.84909743  0.87599947  1
  N  N71  1  0.46711431  0.74961332  0.62227823  1
