# generated using pymatgen
data_Sc13Al23N36
_symmetry_space_group_name_H-M   'P 1'
_cell_length_a   10.07567485
_cell_length_b   10.13684111
_cell_length_c   9.98642561
_cell_angle_alpha   90.46599660
_cell_angle_beta   89.87771841
_cell_angle_gamma   59.76686738
_symmetry_Int_Tables_number   1
_chemical_formula_structural   Sc13Al23N36
_chemical_formula_sum   'Sc13 Al23 N36'
_cell_volume   881.18437500
_cell_formula_units_Z   1
loop_
 _symmetry_equiv_pos_site_id
 _symmetry_equiv_pos_as_xyz
  1  'x, y, z'
loop_
 _atom_site_type_symbol
 _atom_site_label
 _atom_site_symmetry_multiplicity
 _atom_site_fract_x
 _atom_site_fract_y
 _atom_site_fract_z
 _atom_site_occupancy
  Al  Al0  1  0.11815975  0.09038136  0.39359961  1
  Al  Al1  1  0.21159448  0.20690840  0.12940427  1
  Al  Al2  1  0.77249641  0.09985545  0.81243966  1
  Al  Al3  1  0.88707204  0.20666603  0.57775709  1
  Al  Al4  1  0.54490360  0.22223920  0.13649230  1
  Al  Al5  1  0.23447170  0.20538877  0.63301702  1
  Al  Al6  1  0.87740810  0.20879910  0.06277626  1
  Al  Al7  1  0.54761832  0.21586108  0.62337462  1
  Al  Al8  1  0.22615584  0.54147790  0.13167355  1
  Al  Al9  1  0.43874155  0.44244402  0.38127245  1
  Al  Al10  1  0.54771126  0.53849867  0.12604058  1
  Al  Al11  1  0.23037376  0.53638765  0.62928731  1
  Al  Al12  1  0.88264352  0.54370110  0.06453869  1
  Al  Al13  1  0.44248851  0.43457771  0.88095189  1
  Al  Al14  1  0.55352152  0.53157837  0.63496117  1
  Al  Al15  1  0.11090691  0.75833546  0.38179768  1
  Al  Al16  1  0.76833942  0.76776395  0.82077191  1
  Al  Al17  1  0.89076718  0.86928823  0.63152304  1
  Al  Al18  1  0.44492651  0.75637164  0.32535785  1
  Al  Al19  1  0.55651870  0.85837856  0.07151690  1
  Al  Al20  1  0.12324324  0.75327877  0.87455769  1
  Al  Al21  1  0.44724997  0.75795768  0.82005315  1
  Al  Al22  1  0.55655124  0.86906721  0.57225753  1
  Sc  Sc23  1  0.44103585  0.09131859  0.35743516  1
  Sc  Sc24  1  0.11146641  0.09160837  0.85430894  1
  Sc  Sc25  1  0.77844323  0.09538364  0.34609033  1
  Sc  Sc26  1  0.45703054  0.09287745  0.87118882  1
  Sc  Sc27  1  0.12654198  0.42407616  0.36691801  1
  Sc  Sc28  1  0.76685917  0.42921701  0.84845119  1
  Sc  Sc29  1  0.89151307  0.53442578  0.60132273  1
  Sc  Sc30  1  0.12381178  0.43319499  0.87105371  1
  Sc  Sc31  1  0.78425033  0.42013506  0.32792995  1
  Sc  Sc32  1  0.21257347  0.87898116  0.12368955  1
  Sc  Sc33  1  0.22882522  0.86174994  0.60473872  1
  Sc  Sc34  1  0.78065031  0.75438393  0.33301644  1
  Sc  Sc35  1  0.88192944  0.87623808  0.09272622  1
  N  N36  1  0.20912453  0.19225733  0.31960833  1
  N  N37  1  0.09760224  0.11391442  0.07425723  1
  N  N38  1  0.87381251  0.19448540  0.87153987  1
  N  N39  1  0.78142305  0.09034731  0.60868070  1
  N  N40  1  0.53082141  0.23638830  0.32848421  1
  N  N41  1  0.44572314  0.09348196  0.09751139  1
  N  N42  1  0.23076784  0.20572503  0.82229648  1
  N  N43  1  0.11267334  0.10851803  0.59562718  1
  N  N44  1  0.90664274  0.19491959  0.38710597  1
  N  N45  1  0.76297900  0.11993739  0.12182546  1
  N  N46  1  0.55620832  0.22647378  0.81653563  1
  N  N47  1  0.45037491  0.09319194  0.58957024  1
  N  N48  1  0.23285157  0.55575464  0.32043968  1
  N  N49  1  0.11140853  0.42993692  0.09596604  1
  N  N50  1  0.88278135  0.55815821  0.86198650  1
  N  N51  1  0.76930137  0.41391177  0.62306336  1
  N  N52  1  0.54196997  0.54139043  0.32275342  1
  N  N53  1  0.44005868  0.42966471  0.07234841  1
  N  N54  1  0.23670601  0.54845651  0.81730162  1
  N  N55  1  0.14059305  0.41502038  0.59072055  1
  N  N56  1  0.89386076  0.53243649  0.38949526  1
  N  N57  1  0.77533601  0.43007997  0.09566221  1
  N  N58  1  0.53235838  0.54747426  0.83250281  1
  N  N59  1  0.44403908  0.43339429  0.57260271  1
  N  N60  1  0.22217786  0.87116336  0.35845058  1
  N  N61  1  0.12188638  0.74065618  0.06234585  1
  N  N62  1  0.88595736  0.87627433  0.83905133  1
  N  N63  1  0.76501036  0.78120308  0.62517157  1
  N  N64  1  0.54731631  0.85566845  0.38284812  1
  N  N65  1  0.45250557  0.75750107  0.12658287  1
  N  N66  1  0.22965602  0.85549226  0.83064059  1
  N  N67  1  0.09868341  0.74686326  0.57457302  1
  N  N68  1  0.91139028  0.86108670  0.31662066  1
  N  N69  1  0.76668909  0.74914786  0.11729167  1
  N  N70  1  0.56146652  0.85065513  0.87910552  1
  N  N71  1  0.47024603  0.74856858  0.62482649  1
