# generated using pymatgen
data_Sc13Al23N36
_symmetry_space_group_name_H-M   'P 1'
_cell_length_a   10.02161528
_cell_length_b   10.03866967
_cell_length_c   10.01969476
_cell_angle_alpha   90.47117009
_cell_angle_beta   90.30278714
_cell_angle_gamma   59.90110079
_symmetry_Int_Tables_number   1
_chemical_formula_structural   Sc13Al23N36
_chemical_formula_sum   'Sc13 Al23 N36'
_cell_volume   872.06783366
_cell_formula_units_Z   1
loop_
 _symmetry_equiv_pos_site_id
 _symmetry_equiv_pos_as_xyz
  1  'x, y, z'
loop_
 _atom_site_type_symbol
 _atom_site_label
 _atom_site_symmetry_multiplicity
 _atom_site_fract_x
 _atom_site_fract_y
 _atom_site_fract_z
 _atom_site_occupancy
  Al  Al0  1  0.10991117  0.09474476  0.39893536  1
  Al  Al1  1  0.22042616  0.20044822  0.14286189  1
  Al  Al2  1  0.76982827  0.10584610  0.89040941  1
  Al  Al3  1  0.87946180  0.20622502  0.64243608  1
  Al  Al4  1  0.54961081  0.21876795  0.13765286  1
  Al  Al5  1  0.22582365  0.21011232  0.64077054  1
  Al  Al6  1  0.89077219  0.20680755  0.13965584  1
  Al  Al7  1  0.55722663  0.21141486  0.64098923  1
  Al  Al8  1  0.23176679  0.53926336  0.14311663  1
  Al  Al9  1  0.43857383  0.44074666  0.39022129  1
  Al  Al10  1  0.54804960  0.54196490  0.13981728  1
  Al  Al11  1  0.22881843  0.53459820  0.63852246  1
  Al  Al12  1  0.88548966  0.53482683  0.15501417  1
  Al  Al13  1  0.44335120  0.43451293  0.88762372  1
  Al  Al14  1  0.55236865  0.53519859  0.64280942  1
  Al  Al15  1  0.11224128  0.75852310  0.39466758  1
  Al  Al16  1  0.77422086  0.76398180  0.83801642  1
  Al  Al17  1  0.88690895  0.87888288  0.64506036  1
  Al  Al18  1  0.44347994  0.75606496  0.39500355  1
  Al  Al19  1  0.55429821  0.86221686  0.13949190  1
  Al  Al20  1  0.12471057  0.75221796  0.88347394  1
  Al  Al21  1  0.44638169  0.75374883  0.88768456  1
  Al  Al22  1  0.55341588  0.87110678  0.63731640  1
  Sc  Sc23  1  0.44348401  0.09430745  0.38085047  1
  Sc  Sc24  1  0.10973834  0.09265899  0.87469872  1
  Sc  Sc25  1  0.78143483  0.09223023  0.37838846  1
  Sc  Sc26  1  0.45258043  0.09172887  0.88043479  1
  Sc  Sc27  1  0.12701740  0.42239136  0.37132044  1
  Sc  Sc28  1  0.77043922  0.43451351  0.88832906  1
  Sc  Sc29  1  0.89396285  0.53246068  0.61701801  1
  Sc  Sc30  1  0.11198664  0.43918635  0.89515721  1
  Sc  Sc31  1  0.76511665  0.42179985  0.37749527  1
  Sc  Sc32  1  0.22386728  0.87021770  0.14424519  1
  Sc  Sc33  1  0.22476010  0.86688070  0.62116479  1
  Sc  Sc34  1  0.77522523  0.76746523  0.37278935  1
  Sc  Sc35  1  0.88823552  0.86586648  0.11028809  1
  N  N36  1  0.21591201  0.18739167  0.33108881  1
  N  N37  1  0.10282779  0.10810411  0.08545523  1
  N  N38  1  0.87596666  0.20123440  0.83078568  1
  N  N39  1  0.77794198  0.09200329  0.59317543  1
  N  N40  1  0.54265383  0.23337532  0.32742819  1
  N  N41  1  0.44659286  0.09223180  0.10045471  1
  N  N42  1  0.22210964  0.21298783  0.82968382  1
  N  N43  1  0.09888391  0.11704042  0.59380247  1
  N  N44  1  0.91097163  0.18975333  0.32809885  1
  N  N45  1  0.76499239  0.11707729  0.08407292  1
  N  N46  1  0.56089987  0.22160173  0.83146213  1
  N  N47  1  0.44760664  0.09307653  0.60256580  1
  N  N48  1  0.23322051  0.55543887  0.33072311  1
  N  N49  1  0.11326386  0.42693923  0.11631159  1
  N  N50  1  0.88458422  0.55264013  0.83067424  1
  N  N51  1  0.76378850  0.41597402  0.59421413  1
  N  N52  1  0.52813863  0.55456401  0.32754373  1
  N  N53  1  0.44250587  0.43022261  0.07909659  1
  N  N54  1  0.23475206  0.54445929  0.82685423  1
  N  N55  1  0.13786714  0.41632675  0.58671866  1
  N  N56  1  0.88991161  0.53245144  0.35475836  1
  N  N57  1  0.77475706  0.42758241  0.11005574  1
  N  N58  1  0.53824071  0.54631807  0.83221672  1
  N  N59  1  0.44453392  0.42957766  0.58205544  1
  N  N60  1  0.22061506  0.87231522  0.36919910  1
  N  N61  1  0.12764305  0.73836655  0.07120422  1
  N  N62  1  0.88627892  0.87687758  0.84669061  1
  N  N63  1  0.76900464  0.78255291  0.60534320  1
  N  N64  1  0.53868879  0.86312060  0.33340041  1
  N  N65  1  0.45726119  0.75098573  0.07836685  1
  N  N66  1  0.23320407  0.85438188  0.83677351  1
  N  N67  1  0.09730486  0.74959044  0.58622759  1
  N  N68  1  0.91282115  0.86265854  0.32409173  1
  N  N69  1  0.76924259  0.74611355  0.11929101  1
  N  N70  1  0.55913279  0.85322804  0.83164131  1
  N  N71  1  0.46829734  0.74525821  0.58347585  1
