# generated using pymatgen
data_Sc13Al23N36
_symmetry_space_group_name_H-M   'P 1'
_cell_length_a   10.06548667
_cell_length_b   10.10669820
_cell_length_c   10.01050654
_cell_angle_alpha   90.15406481
_cell_angle_beta   90.15095983
_cell_angle_gamma   59.87803440
_symmetry_Int_Tables_number   1
_chemical_formula_structural   Sc13Al23N36
_chemical_formula_sum   'Sc13 Al23 N36'
_cell_volume   880.83314314
_cell_formula_units_Z   1
loop_
 _symmetry_equiv_pos_site_id
 _symmetry_equiv_pos_as_xyz
  1  'x, y, z'
loop_
 _atom_site_type_symbol
 _atom_site_label
 _atom_site_symmetry_multiplicity
 _atom_site_fract_x
 _atom_site_fract_y
 _atom_site_fract_z
 _atom_site_occupancy
  Al  Al0  1  0.10940251  0.08852931  0.33401525  1
  Al  Al1  1  0.21665825  0.20837561  0.13036417  1
  Al  Al2  1  0.77625806  0.09922259  0.81474470  1
  Al  Al3  1  0.89413289  0.20495055  0.57638954  1
  Al  Al4  1  0.54543237  0.22019780  0.14235100  1
  Al  Al5  1  0.23034048  0.20671418  0.64161669  1
  Al  Al6  1  0.87511091  0.20942858  0.06969895  1
  Al  Al7  1  0.54781585  0.21743373  0.62898394  1
  Al  Al8  1  0.22684688  0.53792486  0.13537280  1
  Al  Al9  1  0.43441363  0.44069955  0.38591365  1
  Al  Al10  1  0.55132542  0.54206544  0.07478410  1
  Al  Al11  1  0.23115598  0.53727691  0.63239332  1
  Al  Al12  1  0.88162550  0.54167512  0.06595746  1
  Al  Al13  1  0.44179307  0.43327742  0.88425190  1
  Al  Al14  1  0.55656544  0.53830723  0.57219824  1
  Al  Al15  1  0.11210262  0.75903428  0.38272099  1
  Al  Al16  1  0.76902447  0.76680384  0.82401717  1
  Al  Al17  1  0.89194530  0.86964586  0.63357163  1
  Al  Al18  1  0.44482746  0.75584104  0.32788963  1
  Al  Al19  1  0.55937722  0.85722962  0.07532754  1
  Al  Al20  1  0.12209244  0.75315425  0.87669311  1
  Al  Al21  1  0.45091647  0.75288740  0.82354775  1
  Al  Al22  1  0.55601822  0.86892008  0.57943158  1
  Sc  Sc23  1  0.43859273  0.09334573  0.36868949  1
  Sc  Sc24  1  0.10971310  0.09434884  0.85412606  1
  Sc  Sc25  1  0.77808060  0.09423838  0.35250617  1
  Sc  Sc26  1  0.45982616  0.09273363  0.87471719  1
  Sc  Sc27  1  0.12227160  0.42555499  0.37139538  1
  Sc  Sc28  1  0.76280245  0.42747641  0.83785616  1
  Sc  Sc29  1  0.89035367  0.53462295  0.60313591  1
  Sc  Sc30  1  0.12172391  0.43672328  0.87415570  1
  Sc  Sc31  1  0.77593137  0.42476438  0.32549153  1
  Sc  Sc32  1  0.22537515  0.86541829  0.10567966  1
  Sc  Sc33  1  0.22544687  0.87170707  0.60368535  1
  Sc  Sc34  1  0.77735915  0.75534595  0.33613999  1
  Sc  Sc35  1  0.88364140  0.87568942  0.09911609  1
  N  N36  1  0.21063914  0.19620001  0.32105422  1
  N  N37  1  0.09621734  0.10967683  0.10041825  1
  N  N38  1  0.87427802  0.19501897  0.88161212  1
  N  N39  1  0.78253217  0.09139472  0.61086667  1
  N  N40  1  0.53196177  0.23555355  0.33371217  1
  N  N41  1  0.44767405  0.09072235  0.10080288  1
  N  N42  1  0.23167224  0.20843790  0.83405473  1
  N  N43  1  0.10541112  0.11252508  0.62523794  1
  N  N44  1  0.90807457  0.19623259  0.38696190  1
  N  N45  1  0.76242213  0.11875034  0.12874897  1
  N  N46  1  0.56041125  0.22674758  0.82064367  1
  N  N47  1  0.44787019  0.09368111  0.59902509  1
  N  N48  1  0.23156429  0.55529814  0.32328799  1
  N  N49  1  0.11005553  0.42997671  0.09727900  1
  N  N50  1  0.88004482  0.55561087  0.86388136  1
  N  N51  1  0.76504672  0.41409059  0.62288725  1
  N  N52  1  0.54050302  0.55026274  0.37986898  1
  N  N53  1  0.43853681  0.42580507  0.07877302  1
  N  N54  1  0.23822993  0.54951001  0.81917235  1
  N  N55  1  0.13795617  0.41676271  0.59567286  1
  N  N56  1  0.88960565  0.53239872  0.39215940  1
  N  N57  1  0.77558317  0.42876433  0.10347694  1
  N  N58  1  0.53352547  0.55437228  0.88596920  1
  N  N59  1  0.44140904  0.43063142  0.57854820  1
  N  N60  1  0.22158266  0.87150871  0.35382226  1
  N  N61  1  0.12154265  0.73623353  0.06434471  1
  N  N62  1  0.88860620  0.87501096  0.84057707  1
  N  N63  1  0.76578900  0.78087700  0.62885136  1
  N  N64  1  0.54491734  0.85751695  0.39030534  1
  N  N65  1  0.46360638  0.74760188  0.13682451  1
  N  N66  1  0.23307463  0.85594889  0.84735955  1
  N  N67  1  0.10083512  0.74994979  0.57706971  1
  N  N68  1  0.91053854  0.85989871  0.32187145  1
  N  N69  1  0.76927891  0.74724487  0.12037228  1
  N  N70  1  0.56267376  0.85055093  0.88303549  1
  N  N71  1  0.47008066  0.74584292  0.63415383  1
