# generated using pymatgen
data_Sc13Al23N36
_symmetry_space_group_name_H-M   'P 1'
_cell_length_a   10.04049294
_cell_length_b   10.08025459
_cell_length_c   10.07582297
_cell_angle_alpha   90.07599766
_cell_angle_beta   90.16423741
_cell_angle_gamma   59.97743474
_symmetry_Int_Tables_number   1
_chemical_formula_structural   Sc13Al23N36
_chemical_formula_sum   'Sc13 Al23 N36'
_cell_volume   882.95203642
_cell_formula_units_Z   1
loop_
 _symmetry_equiv_pos_site_id
 _symmetry_equiv_pos_as_xyz
  1  'x, y, z'
loop_
 _atom_site_type_symbol
 _atom_site_label
 _atom_site_symmetry_multiplicity
 _atom_site_fract_x
 _atom_site_fract_y
 _atom_site_fract_z
 _atom_site_occupancy
  Al  Al0  1  0.10565954  0.08904277  0.31491636  1
  Al  Al1  1  0.21821273  0.20911119  0.13168158  1
  Al  Al2  1  0.77737944  0.09929576  0.81501312  1
  Al  Al3  1  0.89549351  0.20490606  0.57501859  1
  Al  Al4  1  0.54453490  0.21986830  0.14495024  1
  Al  Al5  1  0.23004935  0.20762480  0.64551545  1
  Al  Al6  1  0.87388138  0.20940723  0.07237352  1
  Al  Al7  1  0.54789273  0.21775025  0.63098688  1
  Al  Al8  1  0.22666396  0.53666352  0.13717346  1
  Al  Al9  1  0.43394505  0.44061539  0.38778528  1
  Al  Al10  1  0.55321243  0.54066630  0.07530724  1
  Al  Al11  1  0.23135855  0.53887444  0.63389428  1
  Al  Al12  1  0.88188625  0.54117243  0.06674762  1
  Al  Al13  1  0.44212368  0.43335214  0.88589074  1
  Al  Al14  1  0.55577000  0.53902064  0.57317432  1
  Al  Al15  1  0.11198253  0.75872838  0.38158715  1
  Al  Al16  1  0.76978687  0.76684544  0.82476664  1
  Al  Al17  1  0.89310900  0.86992290  0.63450483  1
  Al  Al18  1  0.44380592  0.75621466  0.32679306  1
  Al  Al19  1  0.56055368  0.85651040  0.07541945  1
  Al  Al20  1  0.12117752  0.75340294  0.87883634  1
  Al  Al21  1  0.44999882  0.75349192  0.82484408  1
  Al  Al22  1  0.55612870  0.86852165  0.58151481  1
  Sc  Sc23  1  0.43659978  0.09365699  0.37309477  1
  Sc  Sc24  1  0.10880613  0.09403169  0.85085899  1
  Sc  Sc25  1  0.77715520  0.09449208  0.35450670  1
  Sc  Sc26  1  0.46038065  0.09290857  0.87698012  1
  Sc  Sc27  1  0.12255223  0.42429687  0.37518713  1
  Sc  Sc28  1  0.76357679  0.42637691  0.83775975  1
  Sc  Sc29  1  0.88990324  0.53527896  0.60409807  1
  Sc  Sc30  1  0.12168055  0.43777899  0.87574876  1
  Sc  Sc31  1  0.77559755  0.42471450  0.32702172  1
  Sc  Sc32  1  0.22974134  0.86169072  0.09407681  1
  Sc  Sc33  1  0.22566995  0.87629283  0.58872242  1
  Sc  Sc34  1  0.77605411  0.75506488  0.33645431  1
  Sc  Sc35  1  0.88389052  0.87597688  0.10273885  1
  N  N36  1  0.21028448  0.19658406  0.32097979  1
  N  N37  1  0.09431915  0.10818324  0.11126204  1
  N  N38  1  0.87464621  0.19441697  0.88633040  1
  N  N39  1  0.78283701  0.09205683  0.61202894  1
  N  N40  1  0.53054649  0.23556040  0.33506948  1
  N  N41  1  0.44789265  0.09004822  0.10081948  1
  N  N42  1  0.23149021  0.20878510  0.83726379  1
  N  N43  1  0.10388595  0.11338626  0.63211102  1
  N  N44  1  0.91009081  0.19491330  0.38723881  1
  N  N45  1  0.76129274  0.11904553  0.13236407  1
  N  N46  1  0.56118139  0.22703661  0.82112340  1
  N  N47  1  0.44703591  0.09379940  0.60137930  1
  N  N48  1  0.23126131  0.55440233  0.32392190  1
  N  N49  1  0.11006305  0.42931178  0.09678083  1
  N  N50  1  0.87985286  0.55560536  0.86576397  1
  N  N51  1  0.76489357  0.41382804  0.62395208  1
  N  N52  1  0.53988281  0.55101224  0.38214392  1
  N  N53  1  0.43841338  0.42523473  0.07938890  1
  N  N54  1  0.23871184  0.55086830  0.81936264  1
  N  N55  1  0.13774536  0.41737735  0.59816824  1
  N  N56  1  0.88928743  0.53257037  0.39472506  1
  N  N57  1  0.77614432  0.42820941  0.10628781  1
  N  N58  1  0.53499737  0.55393815  0.88761296  1
  N  N59  1  0.44112574  0.43044881  0.57925063  1
  N  N60  1  0.22123672  0.87261772  0.35589137  1
  N  N61  1  0.12038977  0.73438331  0.06581329  1
  N  N62  1  0.89030448  0.87490724  0.84013749  1
  N  N63  1  0.76590541  0.78114702  0.63109194  1
  N  N64  1  0.54408913  0.85712644  0.39346373  1
  N  N65  1  0.46584048  0.74591953  0.13821254  1
  N  N66  1  0.23540617  0.85624576  0.86328479  1
  N  N67  1  0.10206216  0.75148718  0.57654346  1
  N  N68  1  0.90954994  0.85990056  0.32326926  1
  N  N69  1  0.76992084  0.74661085  0.12202592  1
  N  N70  1  0.56369841  0.85042753  0.88425555  1
  N  N71  1  0.46710284  0.74716142  0.63677574  1
