# generated using pymatgen
data_Sc13Al23N36
_symmetry_space_group_name_H-M   'P 1'
_cell_length_a   10.02495144
_cell_length_b   10.08322835
_cell_length_c   10.05642672
_cell_angle_alpha   90.66019611
_cell_angle_beta   90.04264171
_cell_angle_gamma   59.77702149
_symmetry_Int_Tables_number   1
_chemical_formula_structural   Sc13Al23N36
_chemical_formula_sum   'Sc13 Al23 N36'
_cell_volume   878.29364399
_cell_formula_units_Z   1
loop_
 _symmetry_equiv_pos_site_id
 _symmetry_equiv_pos_as_xyz
  1  'x, y, z'
loop_
 _atom_site_type_symbol
 _atom_site_label
 _atom_site_symmetry_multiplicity
 _atom_site_fract_x
 _atom_site_fract_y
 _atom_site_fract_z
 _atom_site_occupancy
  Al  Al0  1  0.11011518  0.09528382  0.39938475  1
  Al  Al1  1  0.22000679  0.20177447  0.14389609  1
  Al  Al2  1  0.77010842  0.10592915  0.89404361  1
  Al  Al3  1  0.88164398  0.20362451  0.64552735  1
  Al  Al4  1  0.54912692  0.21878145  0.14098721  1
  Al  Al5  1  0.22704688  0.20938638  0.64267887  1
  Al  Al6  1  0.88888459  0.20995256  0.14237074  1
  Al  Al7  1  0.55732750  0.21102880  0.64462273  1
  Al  Al8  1  0.22992196  0.53958479  0.14661623  1
  Al  Al9  1  0.43914657  0.43886103  0.39517317  1
  Al  Al10  1  0.55015581  0.53709959  0.14766817  1
  Al  Al11  1  0.22908726  0.53527528  0.64222070  1
  Al  Al12  1  0.88670507  0.53298309  0.14199993  1
  Al  Al13  1  0.44258989  0.43466421  0.89372209  1
  Al  Al14  1  0.55412674  0.52970551  0.64791313  1
  Al  Al15  1  0.11140144  0.75792677  0.39601718  1
  Al  Al16  1  0.76901221  0.76687475  0.82904418  1
  Al  Al17  1  0.88646396  0.88044647  0.65164383  1
  Al  Al18  1  0.44166087  0.76035859  0.33956357  1
  Al  Al19  1  0.55836291  0.85700107  0.08291575  1
  Al  Al20  1  0.12378755  0.75214258  0.88636732  1
  Al  Al21  1  0.44827357  0.75582264  0.83009492  1
  Al  Al22  1  0.55383501  0.87127164  0.58683090  1
  Sc  Sc23  1  0.44359482  0.09522869  0.37776913  1
  Sc  Sc24  1  0.11004364  0.09260052  0.87639546  1
  Sc  Sc25  1  0.78215849  0.09186362  0.38140394  1
  Sc  Sc26  1  0.45316246  0.09247383  0.87730387  1
  Sc  Sc27  1  0.12679390  0.42222396  0.37778745  1
  Sc  Sc28  1  0.77077282  0.43190153  0.88715067  1
  Sc  Sc29  1  0.89257788  0.53617749  0.62024094  1
  Sc  Sc30  1  0.11370106  0.43792182  0.89329082  1
  Sc  Sc31  1  0.76879830  0.42094930  0.38756626  1
  Sc  Sc32  1  0.21312534  0.87652253  0.13921234  1
  Sc  Sc33  1  0.22492000  0.86736765  0.61579295  1
  Sc  Sc34  1  0.77692789  0.76346298  0.35566919  1
  Sc  Sc35  1  0.88598441  0.86787746  0.10918555  1
  N  N36  1  0.21562956  0.18797215  0.33154884  1
  N  N37  1  0.10000520  0.11357151  0.08602499  1
  N  N38  1  0.87759769  0.19788945  0.83231156  1
  N  N39  1  0.77891929  0.09107597  0.59567191  1
  N  N40  1  0.54335544  0.23242673  0.33022317  1
  N  N41  1  0.44699575  0.09322257  0.10353387  1
  N  N42  1  0.22315825  0.21076060  0.83069286  1
  N  N43  1  0.10038800  0.11670807  0.59347525  1
  N  N44  1  0.91061330  0.19069829  0.32991176  1
  N  N45  1  0.76502888  0.11880511  0.08694969  1
  N  N46  1  0.56122007  0.22235713  0.83504890  1
  N  N47  1  0.44835404  0.09580300  0.60714467  1
  N  N48  1  0.23339261  0.55408586  0.33384662  1
  N  N49  1  0.11194452  0.42778063  0.11596176  1
  N  N50  1  0.88335898  0.55424728  0.84075370  1
  N  N51  1  0.76599730  0.41451904  0.60354826  1
  N  N52  1  0.53478262  0.54575448  0.33841587  1
  N  N53  1  0.44179430  0.43032640  0.08437634  1
  N  N54  1  0.23537204  0.54516380  0.82959030  1
  N  N55  1  0.13839337  0.41648989  0.59359730  1
  N  N56  1  0.89154196  0.53246214  0.37574059  1
  N  N57  1  0.77408700  0.42904464  0.10958076  1
  N  N58  1  0.53863290  0.54236265  0.84046693  1
  N  N59  1  0.44491321  0.42843597  0.58592870  1
  N  N60  1  0.21998025  0.87206195  0.37054099  1
  N  N61  1  0.12512977  0.73655612  0.07323060  1
  N  N62  1  0.88535244  0.87797995  0.85380249  1
  N  N63  1  0.76454874  0.78633556  0.63178925  1
  N  N64  1  0.54317485  0.86021985  0.39875284  1
  N  N65  1  0.45313429  0.75773496  0.14174046  1
  N  N66  1  0.22967421  0.85574930  0.84132789  1
  N  N67  1  0.09625655  0.74963733  0.58799182  1
  N  N68  1  0.91337924  0.86365490  0.32364662  1
  N  N69  1  0.76668961  0.74672351  0.13692238  1
  N  N70  1  0.56366205  0.84766666  0.89160236  1
  N  N71  1  0.46849585  0.74922715  0.63723420  1
