# generated using pymatgen
data_Sc13Al23N36
_symmetry_space_group_name_H-M   'P 1'
_cell_length_a   10.06501299
_cell_length_b   10.10563473
_cell_length_c   10.01700656
_cell_angle_alpha   90.19913153
_cell_angle_beta   90.14953050
_cell_angle_gamma   59.86862426
_symmetry_Int_Tables_number   1
_chemical_formula_structural   Sc13Al23N36
_chemical_formula_sum   'Sc13 Al23 N36'
_cell_volume   881.18527382
_cell_formula_units_Z   1
loop_
 _symmetry_equiv_pos_site_id
 _symmetry_equiv_pos_as_xyz
  1  'x, y, z'
loop_
 _atom_site_type_symbol
 _atom_site_label
 _atom_site_symmetry_multiplicity
 _atom_site_fract_x
 _atom_site_fract_y
 _atom_site_fract_z
 _atom_site_occupancy
  Al  Al0  1  0.11318467  0.08827507  0.36011388  1
  Al  Al1  1  0.21489369  0.20715621  0.13077453  1
  Al  Al2  1  0.77571451  0.09904980  0.81474994  1
  Al  Al3  1  0.89150162  0.20589391  0.57722033  1
  Al  Al4  1  0.54552202  0.22030907  0.14185765  1
  Al  Al5  1  0.23112116  0.20677002  0.64019402  1
  Al  Al6  1  0.87639366  0.20911152  0.06813786  1
  Al  Al7  1  0.54770343  0.21730055  0.62898792  1
  Al  Al8  1  0.22689136  0.53839496  0.13522895  1
  Al  Al9  1  0.43454144  0.44065436  0.38586473  1
  Al  Al10  1  0.55048830  0.54273662  0.07471015  1
  Al  Al11  1  0.23104184  0.53686795  0.63249118  1
  Al  Al12  1  0.88166586  0.54165829  0.06587647  1
  Al  Al13  1  0.44162413  0.43331050  0.88428092  1
  Al  Al14  1  0.55698513  0.53809862  0.57208606  1
  Al  Al15  1  0.11192097  0.75877974  0.38346714  1
  Al  Al16  1  0.76895433  0.76682791  0.82402721  1
  Al  Al17  1  0.89183516  0.86946217  0.63383664  1
  Al  Al18  1  0.44544291  0.75543501  0.32839105  1
  Al  Al19  1  0.55886303  0.85743378  0.07543576  1
  Al  Al20  1  0.12259373  0.75323014  0.87712380  1
  Al  Al21  1  0.45105414  0.75286610  0.82350794  1
  Al  Al22  1  0.55614894  0.86903704  0.57912609  1
  Sc  Sc23  1  0.43918241  0.09327612  0.36770219  1
  Sc  Sc24  1  0.11019458  0.09399751  0.85640672  1
  Sc  Sc25  1  0.77831375  0.09416989  0.35136902  1
  Sc  Sc26  1  0.45902800  0.09297443  0.87499146  1
  Sc  Sc27  1  0.12221460  0.42582027  0.37056104  1
  Sc  Sc28  1  0.76246401  0.42813064  0.83814055  1
  Sc  Sc29  1  0.89053268  0.53461936  0.60287638  1
  Sc  Sc30  1  0.12192233  0.43607865  0.87456793  1
  Sc  Sc31  1  0.77620127  0.42455634  0.32446761  1
  Sc  Sc32  1  0.22241991  0.86937682  0.11167678  1
  Sc  Sc33  1  0.22662154  0.86850343  0.60745074  1
  Sc  Sc34  1  0.77753711  0.75524679  0.33586939  1
  Sc  Sc35  1  0.88367396  0.87549205  0.09858882  1
  N  N36  1  0.21008690  0.19529120  0.32109531  1
  N  N37  1  0.09770273  0.11065475  0.08852970  1
  N  N38  1  0.87375810  0.19544707  0.87913067  1
  N  N39  1  0.78224013  0.09114439  0.61110430  1
  N  N40  1  0.53220250  0.23559729  0.33314218  1
  N  N41  1  0.44725956  0.09099319  0.10095554  1
  N  N42  1  0.23129701  0.20824730  0.83102714  1
  N  N43  1  0.10745143  0.11144435  0.61499476  1
  N  N44  1  0.90606032  0.19734722  0.38757156  1
  N  N45  1  0.76301729  0.11877095  0.12785601  1
  N  N46  1  0.55981320  0.22665853  0.82062869  1
  N  N47  1  0.44835249  0.09370688  0.59788942  1
  N  N48  1  0.23174614  0.55545289  0.32312790  1
  N  N49  1  0.11023289  0.42982979  0.09771979  1
  N  N50  1  0.88033359  0.55569612  0.86395639  1
  N  N51  1  0.76500664  0.41451099  0.62349361  1
  N  N52  1  0.54095006  0.54992153  0.37985907  1
  N  N53  1  0.43850463  0.42587900  0.07863316  1
  N  N54  1  0.23796927  0.54926295  0.81930605  1
  N  N55  1  0.13808559  0.41674191  0.59450978  1
  N  N56  1  0.88962533  0.53228273  0.39195678  1
  N  N57  1  0.77544512  0.42881577  0.10279606  1
  N  N58  1  0.53300879  0.55471970  0.88608336  1
  N  N59  1  0.44149164  0.43063752  0.57845538  1
  N  N60  1  0.22183931  0.87112727  0.35510174  1
  N  N61  1  0.12209445  0.73723585  0.06448780  1
  N  N62  1  0.88844282  0.87496008  0.84079448  1
  N  N63  1  0.76573891  0.78083266  0.62897261  1
  N  N64  1  0.54508711  0.85758749  0.39015488  1
  N  N65  1  0.46236302  0.74844805  0.13711981  1
  N  N66  1  0.23252879  0.85581088  0.84278136  1
  N  N67  1  0.10042798  0.74926948  0.57707690  1
  N  N68  1  0.91080296  0.85968964  0.32155705  1
  N  N69  1  0.76898166  0.74729895  0.12035769  1
  N  N70  1  0.56246385  0.85068223  0.88317858  1
  N  N71  1  0.47124565  0.74527611  0.63406815  1
