# generated using pymatgen
data_Sc13Al23N36
_symmetry_space_group_name_H-M   'P 1'
_cell_length_a   10.04765716
_cell_length_b   10.08742078
_cell_length_c   10.05420182
_cell_angle_alpha   90.07616012
_cell_angle_beta   90.15918740
_cell_angle_gamma   59.96089160
_symmetry_Int_Tables_number   1
_chemical_formula_structural   Sc13Al23N36
_chemical_formula_sum   'Sc13 Al23 N36'
_cell_volume   882.16579724
_cell_formula_units_Z   1
loop_
 _symmetry_equiv_pos_site_id
 _symmetry_equiv_pos_as_xyz
  1  'x, y, z'
loop_
 _atom_site_type_symbol
 _atom_site_label
 _atom_site_symmetry_multiplicity
 _atom_site_fract_x
 _atom_site_fract_y
 _atom_site_fract_z
 _atom_site_occupancy
  Al  Al0  1  0.10586778  0.08903795  0.31427764  1
  Al  Al1  1  0.21824439  0.20914359  0.13029694  1
  Al  Al2  1  0.77723011  0.09930402  0.81416957  1
  Al  Al3  1  0.89559620  0.20488875  0.57420159  1
  Al  Al4  1  0.54474301  0.21987834  0.14385453  1
  Al  Al5  1  0.23003912  0.20746992  0.64442494  1
  Al  Al6  1  0.87386414  0.20942134  0.07150082  1
  Al  Al7  1  0.54784722  0.21777122  0.62967761  1
  Al  Al8  1  0.22666478  0.53678376  0.13605450  1
  Al  Al9  1  0.43396046  0.44066784  0.38660575  1
  Al  Al10  1  0.55312057  0.54071459  0.07457214  1
  Al  Al11  1  0.23136759  0.53878426  0.63281367  1
  Al  Al12  1  0.88192882  0.54123259  0.06588715  1
  Al  Al13  1  0.44215114  0.43329717  0.88480483  1
  Al  Al14  1  0.55570909  0.53901402  0.57224344  1
  Al  Al15  1  0.11206678  0.75884064  0.38071906  1
  Al  Al16  1  0.76968606  0.76686622  0.82380755  1
  Al  Al17  1  0.89293296  0.86995972  0.63329175  1
  Al  Al18  1  0.44374930  0.75628315  0.32599981  1
  Al  Al19  1  0.56058060  0.85653341  0.07464558  1
  Al  Al20  1  0.12115983  0.75337330  0.87754091  1
  Al  Al21  1  0.45008903  0.75338448  0.82391491  1
  Al  Al22  1  0.55598466  0.86863537  0.58046048  1
  Sc  Sc23  1  0.43678508  0.09352154  0.37132896  1
  Sc  Sc24  1  0.10879656  0.09415248  0.85055993  1
  Sc  Sc25  1  0.77728930  0.09447162  0.35379996  1
  Sc  Sc26  1  0.46050280  0.09273923  0.87556268  1
  Sc  Sc27  1  0.12255495  0.42429711  0.37385804  1
  Sc  Sc28  1  0.76350733  0.42639306  0.83699803  1
  Sc  Sc29  1  0.88995312  0.53520609  0.60339061  1
  Sc  Sc30  1  0.12162267  0.43771183  0.87428689  1
  Sc  Sc31  1  0.77563352  0.42477950  0.32640323  1
  Sc  Sc32  1  0.22960766  0.86164900  0.09366473  1
  Sc  Sc33  1  0.22548934  0.87612805  0.58922030  1
  Sc  Sc34  1  0.77627562  0.75514741  0.33599428  1
  Sc  Sc35  1  0.88384809  0.87596224  0.10151250  1
  N  N36  1  0.21032086  0.19653311  0.32006779  1
  N  N37  1  0.09449882  0.10818280  0.10976129  1
  N  N38  1  0.87458515  0.19443626  0.88503397  1
  N  N39  1  0.78284451  0.09203473  0.61081774  1
  N  N40  1  0.53074673  0.23550354  0.33441330  1
  N  N41  1  0.44808083  0.09003757  0.10013539  1
  N  N42  1  0.23155736  0.20862125  0.83674569  1
  N  N43  1  0.10390397  0.11350281  0.63110840  1
  N  N44  1  0.91014489  0.19489997  0.38600477  1
  N  N45  1  0.76135279  0.11895538  0.13112195  1
  N  N46  1  0.56117705  0.22697163  0.82026616  1
  N  N47  1  0.44705385  0.09375559  0.60056687  1
  N  N48  1  0.23119534  0.55447717  0.32318526  1
  N  N49  1  0.11004433  0.42946538  0.09594349  1
  N  N50  1  0.87981491  0.55558376  0.86437808  1
  N  N51  1  0.76488030  0.41386384  0.62264535  1
  N  N52  1  0.53978751  0.55098626  0.38079442  1
  N  N53  1  0.43849553  0.42532515  0.07867289  1
  N  N54  1  0.23871838  0.55070742  0.81865039  1
  N  N55  1  0.13774971  0.41732840  0.59754255  1
  N  N56  1  0.88948249  0.53250902  0.39356732  1
  N  N57  1  0.77616901  0.42824721  0.10514187  1
  N  N58  1  0.53488744  0.55386460  0.88642772  1
  N  N59  1  0.44113239  0.43056812  0.57844551  1
  N  N60  1  0.22121057  0.87259817  0.35471012  1
  N  N61  1  0.12041971  0.73456916  0.06489931  1
  N  N62  1  0.88999528  0.87494888  0.83935316  1
  N  N63  1  0.76588974  0.78119075  0.62960856  1
  N  N64  1  0.54411017  0.85718187  0.39206092  1
  N  N65  1  0.46569170  0.74606643  0.13695250  1
  N  N66  1  0.23515413  0.85621719  0.86109142  1
  N  N67  1  0.10201985  0.75145035  0.57597326  1
  N  N68  1  0.90960605  0.85998189  0.32257317  1
  N  N69  1  0.76996241  0.74665552  0.12099448  1
  N  N70  1  0.56361950  0.85038772  0.88309981  1
  N  N71  1  0.46724447  0.74711906  0.63548522  1
