# generated using pymatgen
data_Sc13Al23N36
_symmetry_space_group_name_H-M   'P 1'
_cell_length_a   10.12796132
_cell_length_b   10.16733634
_cell_length_c   9.78062878
_cell_angle_alpha   90.09120390
_cell_angle_beta   90.17787011
_cell_angle_gamma   59.96423154
_symmetry_Int_Tables_number   1
_chemical_formula_structural   Sc13Al23N36
_chemical_formula_sum   'Sc13 Al23 N36'
_cell_volume   871.90244307
_cell_formula_units_Z   1
loop_
 _symmetry_equiv_pos_site_id
 _symmetry_equiv_pos_as_xyz
  1  'x, y, z'
loop_
 _atom_site_type_symbol
 _atom_site_label
 _atom_site_symmetry_multiplicity
 _atom_site_fract_x
 _atom_site_fract_y
 _atom_site_fract_z
 _atom_site_occupancy
  Al  Al0  1  0.10697519  0.09007480  0.31076787  1
  Al  Al1  1  0.21861116  0.20848224  0.10219222  1
  Al  Al2  1  0.77461062  0.09971880  0.81382557  1
  Al  Al3  1  0.89558956  0.20570228  0.57417731  1
  Al  Al4  1  0.54848938  0.21966859  0.13877144  1
  Al  Al5  1  0.22830777  0.20534026  0.61875110  1
  Al  Al6  1  0.87404839  0.20934168  0.07034022  1
  Al  Al7  1  0.54664192  0.21836592  0.62229109  1
  Al  Al8  1  0.22720248  0.53910260  0.13045475  1
  Al  Al9  1  0.43404208  0.44085407  0.38127981  1
  Al  Al10  1  0.55286847  0.54105038  0.07481777  1
  Al  Al11  1  0.23159108  0.53824860  0.62832066  1
  Al  Al12  1  0.88305149  0.54248987  0.06563877  1
  Al  Al13  1  0.44281856  0.43248998  0.88005931  1
  Al  Al14  1  0.55445677  0.53927740  0.57086725  1
  Al  Al15  1  0.11278436  0.75931389  0.37771097  1
  Al  Al16  1  0.76951880  0.76711405  0.82157246  1
  Al  Al17  1  0.89155815  0.87076521  0.62728979  1
  Al  Al18  1  0.44360408  0.75642636  0.32490535  1
  Al  Al19  1  0.56265981  0.85608855  0.07321798  1
  Al  Al20  1  0.12131468  0.75305805  0.87138286  1
  Al  Al21  1  0.45046959  0.75229916  0.82228517  1
  Al  Al22  1  0.55339114  0.87052924  0.57761104  1
  Sc  Sc23  1  0.43965968  0.08997232  0.34647374  1
  Sc  Sc24  1  0.10777329  0.09390157  0.85215846  1
  Sc  Sc25  1  0.77879435  0.09419624  0.35415751  1
  Sc  Sc26  1  0.45988609  0.09028788  0.86412851  1
  Sc  Sc27  1  0.11981326  0.42502337  0.35370875  1
  Sc  Sc28  1  0.76371078  0.42710301  0.83739143  1
  Sc  Sc29  1  0.89067704  0.53521497  0.60164984  1
  Sc  Sc30  1  0.12065947  0.43636164  0.86371859  1
  Sc  Sc31  1  0.77540700  0.42455627  0.32865643  1
  Sc  Sc32  1  0.22926047  0.86135073  0.09497497  1
  Sc  Sc33  1  0.22498173  0.87494309  0.59396916  1
  Sc  Sc34  1  0.77704676  0.75683629  0.33948947  1
  Sc  Sc35  1  0.88391237  0.87607336  0.09667015  1
  N  N36  1  0.21111727  0.19530127  0.31911342  1
  N  N37  1  0.09332686  0.10637658  0.10560408  1
  N  N38  1  0.87382506  0.19517337  0.87784231  1
  N  N39  1  0.78252683  0.09228326  0.60620853  1
  N  N40  1  0.53344167  0.23453856  0.33672367  1
  N  N41  1  0.45631707  0.08573865  0.10360968  1
  N  N42  1  0.22870040  0.20549643  0.87944910  1
  N  N43  1  0.10524240  0.11597053  0.62877337  1
  N  N44  1  0.91146574  0.19409596  0.38135267  1
  N  N45  1  0.76221952  0.11819636  0.12543619  1
  N  N46  1  0.56035137  0.22600482  0.81923662  1
  N  N47  1  0.44456847  0.09312173  0.60607674  1
  N  N48  1  0.23108080  0.55515410  0.32335560  1
  N  N49  1  0.10749138  0.43502230  0.09955175  1
  N  N50  1  0.87987526  0.55608303  0.85789690  1
  N  N51  1  0.76482300  0.41527517  0.61536776  1
  N  N52  1  0.53860511  0.55060708  0.37366275  1
  N  N53  1  0.43987178  0.42612899  0.07898538  1
  N  N54  1  0.23879007  0.54924918  0.81960373  1
  N  N55  1  0.13796990  0.41567858  0.60277849  1
  N  N56  1  0.89067114  0.53241530  0.38712507  1
  N  N57  1  0.77677583  0.42852155  0.10061511  1
  N  N58  1  0.53477422  0.55241422  0.88028417  1
  N  N59  1  0.44092373  0.43190724  0.57830180  1
  N  N60  1  0.22118243  0.87243040  0.35033070  1
  N  N61  1  0.12028677  0.73738893  0.06386746  1
  N  N62  1  0.88750794  0.87566786  0.83810776  1
  N  N63  1  0.76549882  0.78209926  0.62034240  1
  N  N64  1  0.54348644  0.85824553  0.38539038  1
  N  N65  1  0.46520542  0.74730022  0.13038999  1
  N  N66  1  0.23401651  0.85573223  0.85049229  1
  N  N67  1  0.10229175  0.75138879  0.57784397  1
  N  N68  1  0.90959388  0.86089242  0.32446517  1
  N  N69  1  0.77105481  0.74740783  0.11715203  1
  N  N70  1  0.56362169  0.84972590  0.87684174  1
  N  N71  1  0.46653660  0.74733602  0.62879998  1
