# generated using pymatgen
data_Sc13Al23N36
_symmetry_space_group_name_H-M   'P 1'
_cell_length_a   10.03873394
_cell_length_b   10.07817761
_cell_length_c   10.08186879
_cell_angle_alpha   90.07711319
_cell_angle_beta   90.16615042
_cell_angle_gamma   59.98150247
_symmetry_Int_Tables_number   1
_chemical_formula_structural   Sc13Al23N36
_chemical_formula_sum   'Sc13 Al23 N36'
_cell_volume   883.18119909
_cell_formula_units_Z   1
loop_
 _symmetry_equiv_pos_site_id
 _symmetry_equiv_pos_as_xyz
  1  'x, y, z'
loop_
 _atom_site_type_symbol
 _atom_site_label
 _atom_site_symmetry_multiplicity
 _atom_site_fract_x
 _atom_site_fract_y
 _atom_site_fract_z
 _atom_site_occupancy
  Al  Al0  1  0.10560233  0.08903160  0.31377922  1
  Al  Al1  1  0.21830235  0.20900456  0.13075720  1
  Al  Al2  1  0.77743842  0.09929437  0.81396268  1
  Al  Al3  1  0.89546881  0.20488926  0.57392060  1
  Al  Al4  1  0.54442595  0.21981088  0.14388121  1
  Al  Al5  1  0.22996810  0.20776019  0.64448990  1
  Al  Al6  1  0.87386719  0.20942518  0.07129618  1
  Al  Al7  1  0.54796336  0.21774883  0.63007879  1
  Al  Al8  1  0.22672221  0.53666597  0.13620101  1
  Al  Al9  1  0.43395556  0.44057432  0.38678808  1
  Al  Al10  1  0.55324694  0.54065767  0.07420442  1
  Al  Al11  1  0.23136619  0.53884992  0.63281121  1
  Al  Al12  1  0.88182986  0.54117753  0.06574526  1
  Al  Al13  1  0.44213254  0.43335954  0.88487232  1
  Al  Al14  1  0.55581536  0.53900054  0.57209465  1
  Al  Al15  1  0.11195124  0.75872211  0.38052391  1
  Al  Al16  1  0.76987917  0.76677748  0.82374527  1
  Al  Al17  1  0.89317806  0.86989977  0.63355710  1
  Al  Al18  1  0.44382187  0.75621944  0.32570565  1
  Al  Al19  1  0.56049829  0.85658132  0.07423756  1
  Al  Al20  1  0.12122918  0.75339712  0.87783719  1
  Al  Al21  1  0.44999066  0.75348343  0.82378130  1
  Al  Al22  1  0.55623619  0.86839468  0.58058205  1
  Sc  Sc23  1  0.43649881  0.09374460  0.37255958  1
  Sc  Sc24  1  0.10879682  0.09403201  0.84962827  1
  Sc  Sc25  1  0.77709979  0.09449854  0.35331218  1
  Sc  Sc26  1  0.46031186  0.09293650  0.87583749  1
  Sc  Sc27  1  0.12249789  0.42433469  0.37396321  1
  Sc  Sc28  1  0.76362961  0.42640560  0.83661474  1
  Sc  Sc29  1  0.88999939  0.53524967  0.60284734  1
  Sc  Sc30  1  0.12172756  0.43784917  0.87507620  1
  Sc  Sc31  1  0.77556392  0.42468496  0.32587979  1
  Sc  Sc32  1  0.22978693  0.86170431  0.09288424  1
  Sc  Sc33  1  0.22573707  0.87633225  0.58729447  1
  Sc  Sc34  1  0.77591895  0.75511437  0.33519261  1
  Sc  Sc35  1  0.88392200  0.87598379  0.10170607  1
  N  N36  1  0.21033470  0.19651948  0.31991001  1
  N  N37  1  0.09426041  0.10818145  0.11035398  1
  N  N38  1  0.87465478  0.19445541  0.88537106  1
  N  N39  1  0.78284190  0.09205519  0.61107689  1
  N  N40  1  0.53045266  0.23554112  0.33389527  1
  N  N41  1  0.44780991  0.09006267  0.09950465  1
  N  N42  1  0.23136805  0.20896277  0.83606164  1
  N  N43  1  0.10387308  0.11336050  0.63107468  1
  N  N44  1  0.91007334  0.19489434  0.38625868  1
  N  N45  1  0.76124796  0.11908080  0.13135911  1
  N  N46  1  0.56120739  0.22704983  0.82006813  1
  N  N47  1  0.44705705  0.09376831  0.60046996  1
  N  N48  1  0.23131088  0.55441879  0.32281416  1
  N  N49  1  0.11007806  0.42927147  0.09588153  1
  N  N50  1  0.87993508  0.55558080  0.86494444  1
  N  N51  1  0.76494179  0.41382647  0.62295968  1
  N  N52  1  0.53990350  0.55102146  0.38118802  1
  N  N53  1  0.43839305  0.42520123  0.07826186  1
  N  N54  1  0.23873055  0.55088546  0.81818648  1
  N  N55  1  0.13780764  0.41736071  0.59675719  1
  N  N56  1  0.88918097  0.53264411  0.39361533  1
  N  N57  1  0.77612212  0.42820810  0.10533053  1
  N  N58  1  0.53506215  0.55393344  0.88663820  1
  N  N59  1  0.44117181  0.43037913  0.57814254  1
  N  N60  1  0.22124811  0.87262282  0.35489588  1
  N  N61  1  0.12041410  0.73431068  0.06470184  1
  N  N62  1  0.89042140  0.87489179  0.83905257  1
  N  N63  1  0.76598160  0.78106033  0.63022850  1
  N  N64  1  0.54406204  0.85714088  0.39262002  1
  N  N65  1  0.46589266  0.74590970  0.13724601  1
  N  N66  1  0.23549351  0.85626895  0.86254769  1
  N  N67  1  0.10207716  0.75150528  0.57538477  1
  N  N68  1  0.90954716  0.85986898  0.32209549  1
  N  N69  1  0.76985848  0.74667270  0.12094797  1
  N  N70  1  0.56374702  0.85039833  0.88319046  1
  N  N71  1  0.46707846  0.74712044  0.63582562  1
