# generated using pymatgen
data_Sc13Al23N36
_symmetry_space_group_name_H-M   'P 1'
_cell_length_a   10.00500908
_cell_length_b   10.05588234
_cell_length_c   10.13512127
_cell_angle_alpha   90.27079018
_cell_angle_beta   90.40939966
_cell_angle_gamma   60.05924449
_symmetry_Int_Tables_number   1
_chemical_formula_structural   Sc13Al23N36
_chemical_formula_sum   'Sc13 Al23 N36'
_cell_volume   883.57767499
_cell_formula_units_Z   1
loop_
 _symmetry_equiv_pos_site_id
 _symmetry_equiv_pos_as_xyz
  1  'x, y, z'
loop_
 _atom_site_type_symbol
 _atom_site_label
 _atom_site_symmetry_multiplicity
 _atom_site_fract_x
 _atom_site_fract_y
 _atom_site_fract_z
 _atom_site_occupancy
  Al  Al0  1  0.10788360  0.09369057  0.31827345  1
  Al  Al1  1  0.21980877  0.20902487  0.07479093  1
  Al  Al2  1  0.77805615  0.09886810  0.81229772  1
  Al  Al3  1  0.89177365  0.20602162  0.56938154  1
  Al  Al4  1  0.54727676  0.22113560  0.13705236  1
  Al  Al5  1  0.22366158  0.20462037  0.57017440  1
  Al  Al6  1  0.87948246  0.20954840  0.06986877  1
  Al  Al7  1  0.54824109  0.21717591  0.62537380  1
  Al  Al8  1  0.22948836  0.53916894  0.12877186  1
  Al  Al9  1  0.43314063  0.43935197  0.38312532  1
  Al  Al10  1  0.55378452  0.54292190  0.06776407  1
  Al  Al11  1  0.23096306  0.53898301  0.62857343  1
  Al  Al12  1  0.88559532  0.54124173  0.05947418  1
  Al  Al13  1  0.44251833  0.43293148  0.88119152  1
  Al  Al14  1  0.55570653  0.53874929  0.56830637  1
  Al  Al15  1  0.11189369  0.75761584  0.37513917  1
  Al  Al16  1  0.77092746  0.76538739  0.81937142  1
  Al  Al17  1  0.89319604  0.86925169  0.63062495  1
  Al  Al18  1  0.44369669  0.75543013  0.32169311  1
  Al  Al19  1  0.55979575  0.85934812  0.06679326  1
  Al  Al20  1  0.12238662  0.75372460  0.87577539  1
  Al  Al21  1  0.44976956  0.75331536  0.81850239  1
  Al  Al22  1  0.55477150  0.87095790  0.57402309  1
  Sc  Sc23  1  0.43985376  0.08751508  0.33320176  1
  Sc  Sc24  1  0.10940645  0.09386082  0.83199220  1
  Sc  Sc25  1  0.77792363  0.09338516  0.34757727  1
  Sc  Sc26  1  0.45439269  0.09000688  0.83982743  1
  Sc  Sc27  1  0.11567242  0.42582129  0.33215437  1
  Sc  Sc28  1  0.76611296  0.42555801  0.83378351  1
  Sc  Sc29  1  0.88901798  0.53562520  0.59036511  1
  Sc  Sc30  1  0.12091318  0.43214215  0.84008015  1
  Sc  Sc31  1  0.77223286  0.42441388  0.31824754  1
  Sc  Sc32  1  0.22836619  0.86939104  0.08984436  1
  Sc  Sc33  1  0.22685010  0.87342741  0.57877309  1
  Sc  Sc34  1  0.77471196  0.75507256  0.32654427  1
  Sc  Sc35  1  0.88462536  0.87651176  0.09648520  1
  N  N36  1  0.21118691  0.19403591  0.38127675  1
  N  N37  1  0.09690907  0.11592742  0.12537669  1
  N  N38  1  0.87948142  0.19154385  0.88440643  1
  N  N39  1  0.78230287  0.09180991  0.60871527  1
  N  N40  1  0.53182942  0.23519570  0.32825487  1
  N  N41  1  0.44857041  0.08728354  0.11003940  1
  N  N42  1  0.22640969  0.20434854  0.89031579  1
  N  N43  1  0.10339584  0.11276361  0.62421526  1
  N  N44  1  0.90709906  0.19704137  0.38373139  1
  N  N45  1  0.76436545  0.11965456  0.12725982  1
  N  N46  1  0.56090913  0.22685794  0.81656170  1
  N  N47  1  0.44457071  0.09229605  0.61249500  1
  N  N48  1  0.23224310  0.55415599  0.31697439  1
  N  N49  1  0.10972388  0.43074043  0.10691472  1
  N  N50  1  0.88103349  0.55578566  0.86436502  1
  N  N51  1  0.76480215  0.41424290  0.62083305  1
  N  N52  1  0.53913954  0.55098406  0.37843463  1
  N  N53  1  0.44047397  0.42595235  0.07286057  1
  N  N54  1  0.23952434  0.55203958  0.81500745  1
  N  N55  1  0.13434544  0.41590099  0.61591030  1
  N  N56  1  0.88896499  0.53172503  0.38455077  1
  N  N57  1  0.77679702  0.42952869  0.09981030  1
  N  N58  1  0.53639021  0.55386462  0.88136796  1
  N  N59  1  0.44022456  0.42922538  0.57314674  1
  N  N60  1  0.22146463  0.87265372  0.35272667  1
  N  N61  1  0.12215683  0.73789624  0.06160427  1
  N  N62  1  0.89165221  0.87421742  0.83493660  1
  N  N63  1  0.76556331  0.78027430  0.62679616  1
  N  N64  1  0.54429168  0.85787012  0.38874660  1
  N  N65  1  0.46554712  0.74758500  0.13343307  1
  N  N66  1  0.23577704  0.85825380  0.86047207  1
  N  N67  1  0.10158674  0.75011744  0.56957060  1
  N  N68  1  0.90952544  0.85855067  0.31607110  1
  N  N69  1  0.76981517  0.74783768  0.11427792  1
  N  N70  1  0.56358855  0.85138253  0.87835867  1
  N  N71  1  0.46649256  0.74724522  0.63116187  1
