# generated using pymatgen
data_Sc13Al23N36
_symmetry_space_group_name_H-M   'P 1'
_cell_length_a   9.94093545
_cell_length_b   9.97313326
_cell_length_c   10.17816348
_cell_angle_alpha   89.88835843
_cell_angle_beta   89.82115872
_cell_angle_gamma   59.97520458
_symmetry_Int_Tables_number   1
_chemical_formula_structural   Sc13Al23N36
_chemical_formula_sum   'Sc13 Al23 N36'
_cell_volume   873.67157461
_cell_formula_units_Z   1
loop_
 _symmetry_equiv_pos_site_id
 _symmetry_equiv_pos_as_xyz
  1  'x, y, z'
loop_
 _atom_site_type_symbol
 _atom_site_label
 _atom_site_symmetry_multiplicity
 _atom_site_fract_x
 _atom_site_fract_y
 _atom_site_fract_z
 _atom_site_occupancy
  Al  Al0  1  0.10997979  0.09534114  0.30439660  1
  Al  Al1  1  0.22066533  0.20870239  0.05824825  1
  Al  Al2  1  0.77507626  0.09531416  0.80002969  1
  Al  Al3  1  0.88851337  0.20648981  0.55749915  1
  Al  Al4  1  0.55606240  0.21551154  0.05496080  1
  Al  Al5  1  0.22449269  0.20354794  0.55293183  1
  Al  Al6  1  0.88325488  0.20794463  0.05597156  1
  Al  Al7  1  0.54753059  0.21569700  0.56149681  1
  Al  Al8  1  0.22860533  0.53749465  0.05668948  1
  Al  Al9  1  0.43905851  0.43879108  0.31000571  1
  Al  Al10  1  0.55113087  0.53998015  0.05607746  1
  Al  Al11  1  0.22906201  0.53725084  0.55730032  1
  Al  Al12  1  0.88730125  0.54186079  0.04501170  1
  Al  Al13  1  0.44264303  0.43627709  0.80871694  1
  Al  Al14  1  0.55185438  0.53616884  0.55836595  1
  Al  Al15  1  0.11752468  0.75692488  0.30911364  1
  Al  Al16  1  0.77283197  0.76815037  0.80248875  1
  Al  Al17  1  0.88975883  0.87131720  0.56424481  1
  Al  Al18  1  0.44478453  0.75668161  0.30807968  1
  Al  Al19  1  0.56163144  0.85959777  0.05300597  1
  Al  Al20  1  0.11357892  0.75707407  0.80521966  1
  Al  Al21  1  0.44753005  0.75255869  0.80727345  1
  Al  Al22  1  0.55267563  0.87187787  0.56079386  1
  Sc  Sc23  1  0.44487010  0.09229510  0.31231002  1
  Sc  Sc24  1  0.11012061  0.09015815  0.81419897  1
  Sc  Sc25  1  0.77716783  0.09783880  0.32583194  1
  Sc  Sc26  1  0.45382852  0.08902987  0.81811032  1
  Sc  Sc27  1  0.11728890  0.42933054  0.31158790  1
  Sc  Sc28  1  0.76741769  0.42560644  0.82313576  1
  Sc  Sc29  1  0.88774182  0.53689697  0.57541974  1
  Sc  Sc30  1  0.12213102  0.42996658  0.81531613  1
  Sc  Sc31  1  0.77224981  0.42763179  0.30461187  1
  Sc  Sc32  1  0.22821096  0.86705345  0.07144536  1
  Sc  Sc33  1  0.22417806  0.86914900  0.55689477  1
  Sc  Sc34  1  0.77645818  0.75937687  0.31622390  1
  Sc  Sc35  1  0.88510669  0.87573361  0.05673876  1
  N  N36  1  0.21488610  0.19568836  0.36487488  1
  N  N37  1  0.09888259  0.11474344  0.11315651  1
  N  N38  1  0.88055400  0.18884777  0.87148298  1
  N  N39  1  0.77604453  0.09591410  0.60638211  1
  N  N40  1  0.53829499  0.23266060  0.37540083  1
  N  N41  1  0.45067517  0.09062172  0.09517264  1
  N  N42  1  0.22504226  0.20236936  0.87507075  1
  N  N43  1  0.10408431  0.10969213  0.60727581  1
  N  N44  1  0.90664266  0.19929036  0.37131554  1
  N  N45  1  0.76621890  0.11449253  0.11677615  1
  N  N46  1  0.56311083  0.22115489  0.86434685  1
  N  N47  1  0.44396749  0.09377249  0.60186541  1
  N  N48  1  0.23215837  0.55153593  0.37101580  1
  N  N49  1  0.11121966  0.43061534  0.09405693  1
  N  N50  1  0.88207670  0.55662985  0.85149184  1
  N  N51  1  0.76412587  0.41606175  0.60994953  1
  N  N52  1  0.53619902  0.54954898  0.37007299  1
  N  N53  1  0.44385651  0.42934747  0.11837547  1
  N  N54  1  0.23351799  0.55049982  0.87092886  1
  N  N55  1  0.13547594  0.41595519  0.60186199  1
  N  N56  1  0.88972943  0.53363464  0.37026824  1
  N  N57  1  0.77718339  0.42936674  0.08600760  1
  N  N58  1  0.53306904  0.54959936  0.87167816  1
  N  N59  1  0.44199738  0.43181908  0.62017198  1
  N  N60  1  0.22225624  0.87376635  0.33992625  1
  N  N61  1  0.11664213  0.74180909  0.12248164  1
  N  N62  1  0.88492021  0.87553940  0.84740183  1
  N  N63  1  0.76466868  0.78298210  0.61317609  1
  N  N64  1  0.54351614  0.86159567  0.37502633  1
  N  N65  1  0.46709505  0.74716237  0.12091054  1
  N  N66  1  0.23130221  0.85323190  0.85535910  1
  N  N67  1  0.10453292  0.74918550  0.61858579  1
  N  N68  1  0.90987526  0.86085883  0.37383211  1
  N  N69  1  0.77314384  0.75057190  0.10600864  1
  N  N70  1  0.56342088  0.84957952  0.86586615  1
  N  N71  1  0.46271278  0.74879991  0.61971434  1
