# generated using pymatgen
data_Sc13Al23N36
_symmetry_space_group_name_H-M   'P 1'
_cell_length_a   10.06654113
_cell_length_b   10.12985545
_cell_length_c   10.01458009
_cell_angle_alpha   90.47036173
_cell_angle_beta   89.87658766
_cell_angle_gamma   59.75842432
_symmetry_Int_Tables_number   1
_chemical_formula_structural   Sc13Al23N36
_chemical_formula_sum   'Sc13 Al23 N36'
_cell_volume   882.18243561
_cell_formula_units_Z   1
loop_
 _symmetry_equiv_pos_site_id
 _symmetry_equiv_pos_as_xyz
  1  'x, y, z'
loop_
 _atom_site_type_symbol
 _atom_site_label
 _atom_site_symmetry_multiplicity
 _atom_site_fract_x
 _atom_site_fract_y
 _atom_site_fract_z
 _atom_site_occupancy
  Al  Al0  1  0.11821711  0.09053721  0.39451517  1
  Al  Al1  1  0.21157975  0.20699327  0.13007962  1
  Al  Al2  1  0.77262417  0.09985997  0.81251063  1
  Al  Al3  1  0.88701184  0.20669867  0.57787010  1
  Al  Al4  1  0.54458097  0.22235243  0.13696521  1
  Al  Al5  1  0.23450340  0.20537615  0.63351740  1
  Al  Al6  1  0.87726656  0.20882758  0.06277623  1
  Al  Al7  1  0.54768267  0.21578479  0.62406996  1
  Al  Al8  1  0.22599844  0.54162029  0.13212239  1
  Al  Al9  1  0.43893863  0.44240569  0.38172806  1
  Al  Al10  1  0.54748426  0.53860771  0.12659242  1
  Al  Al11  1  0.23037547  0.53633608  0.62982161  1
  Al  Al12  1  0.88251085  0.54381898  0.06443376  1
  Al  Al13  1  0.44241641  0.43469419  0.88140663  1
  Al  Al14  1  0.55368961  0.53137943  0.63560951  1
  Al  Al15  1  0.11080485  0.75827205  0.38243836  1
  Al  Al16  1  0.76820243  0.76772618  0.82113998  1
  Al  Al17  1  0.89083174  0.86913935  0.63237179  1
  Al  Al18  1  0.44525231  0.75621716  0.32584703  1
  Al  Al19  1  0.55605712  0.85850638  0.07165268  1
  Al  Al20  1  0.12334074  0.75337402  0.87504828  1
  Al  Al21  1  0.44712594  0.75809091  0.81976540  1
  Al  Al22  1  0.55684877  0.86892727  0.57243153  1
  Sc  Sc23  1  0.44096024  0.09138499  0.35842196  1
  Sc  Sc24  1  0.11175415  0.09130019  0.85524124  1
  Sc  Sc25  1  0.77841255  0.09541521  0.34583178  1
  Sc  Sc26  1  0.45693063  0.09305497  0.87209253  1
  Sc  Sc27  1  0.12683386  0.42407336  0.36776199  1
  Sc  Sc28  1  0.76697566  0.42914179  0.84863742  1
  Sc  Sc29  1  0.89139513  0.53440718  0.60126533  1
  Sc  Sc30  1  0.12387816  0.43316756  0.87184735  1
  Sc  Sc31  1  0.78499193  0.41975522  0.32693467  1
  Sc  Sc32  1  0.21191502  0.87930073  0.12580515  1
  Sc  Sc33  1  0.22873090  0.86179991  0.60508321  1
  Sc  Sc34  1  0.78078702  0.75417983  0.33239305  1
  Sc  Sc35  1  0.88179154  0.87634681  0.09277083  1
  N  N36  1  0.20894721  0.19232333  0.31968634  1
  N  N37  1  0.09774360  0.11380292  0.07452176  1
  N  N38  1  0.87387044  0.19430826  0.87236473  1
  N  N39  1  0.78158854  0.09024845  0.60944403  1
  N  N40  1  0.53055360  0.23646565  0.32835935  1
  N  N41  1  0.44551960  0.09364232  0.09757310  1
  N  N42  1  0.23075480  0.20573875  0.82217268  1
  N  N43  1  0.11276997  0.10861765  0.59555572  1
  N  N44  1  0.90642992  0.19504202  0.38782067  1
  N  N45  1  0.76293289  0.12010025  0.12245877  1
  N  N46  1  0.55608694  0.22655464  0.81667886  1
  N  N47  1  0.45042683  0.09326602  0.58945310  1
  N  N48  1  0.23297706  0.55586941  0.32042303  1
  N  N49  1  0.11136838  0.42999580  0.09609478  1
  N  N50  1  0.88276846  0.55823592  0.86286933  1
  N  N51  1  0.76963266  0.41361909  0.62435828  1
  N  N52  1  0.54246264  0.54102930  0.32281273  1
  N  N53  1  0.43995738  0.42973906  0.07240219  1
  N  N54  1  0.23658847  0.54849699  0.81735329  1
  N  N55  1  0.14069308  0.41495050  0.59067257  1
  N  N56  1  0.89382273  0.53245792  0.39004793  1
  N  N57  1  0.77525311  0.43015215  0.09583554  1
  N  N58  1  0.53223211  0.54754408  0.83254013  1
  N  N59  1  0.44419022  0.43330763  0.57266224  1
  N  N60  1  0.22224594  0.87115270  0.35917112  1
  N  N61  1  0.12202503  0.74077872  0.06232391  1
  N  N62  1  0.88596634  0.87626390  0.83944656  1
  N  N63  1  0.76497149  0.78110682  0.62631547  1
  N  N64  1  0.54767683  0.85550506  0.38354229  1
  N  N65  1  0.45209561  0.75780733  0.12758168  1
  N  N66  1  0.22943763  0.85545127  0.82973477  1
  N  N67  1  0.09852321  0.74670835  0.57453521  1
  N  N68  1  0.91161701  0.86097855  0.31620269  1
  N  N69  1  0.76640127  0.74924698  0.11753304  1
  N  N70  1  0.56115788  0.85069370  0.87976199  1
  N  N71  1  0.47049389  0.74848674  0.62516308  1
