# generated using pymatgen
data_Sc13Al23N36
_symmetry_space_group_name_H-M   'P 1'
_cell_length_a   10.05878770
_cell_length_b   10.09906617
_cell_length_c   10.02198562
_cell_angle_alpha   90.08764439
_cell_angle_beta   90.15419618
_cell_angle_gamma   59.92377576
_symmetry_Int_Tables_number   1
_chemical_formula_structural   Sc13Al23N36
_chemical_formula_sum   'Sc13 Al23 N36'
_cell_volume   880.99936749
_cell_formula_units_Z   1
loop_
 _symmetry_equiv_pos_site_id
 _symmetry_equiv_pos_as_xyz
  1  'x, y, z'
loop_
 _atom_site_type_symbol
 _atom_site_label
 _atom_site_symmetry_multiplicity
 _atom_site_fract_x
 _atom_site_fract_y
 _atom_site_fract_z
 _atom_site_occupancy
  Al  Al0  1  0.10636972  0.08906330  0.31580456  1
  Al  Al1  1  0.21821996  0.20916869  0.12986446  1
  Al  Al2  1  0.77699178  0.09930531  0.81442100  1
  Al  Al3  1  0.89566075  0.20476499  0.57452696  1
  Al  Al4  1  0.54506247  0.21992335  0.14338918  1
  Al  Al5  1  0.23000137  0.20719497  0.64379016  1
  Al  Al6  1  0.87391929  0.20947359  0.07144453  1
  Al  Al7  1  0.54788001  0.21771343  0.62912194  1
  Al  Al8  1  0.22671557  0.53709324  0.13572848  1
  Al  Al9  1  0.43407626  0.44073142  0.38615775  1
  Al  Al10  1  0.55275064  0.54095062  0.07481712  1
  Al  Al11  1  0.23134028  0.53836622  0.63246844  1
  Al  Al12  1  0.88184350  0.54139475  0.06599290  1
  Al  Al13  1  0.44212972  0.43323042  0.88447458  1
  Al  Al14  1  0.55577663  0.53885131  0.57220717  1
  Al  Al15  1  0.11222848  0.75910699  0.38102200  1
  Al  Al16  1  0.76943552  0.76684089  0.82383891  1
  Al  Al17  1  0.89253609  0.86993195  0.63303258  1
  Al  Al18  1  0.44370129  0.75641505  0.32646126  1
  Al  Al19  1  0.56035577  0.85672881  0.07489866  1
  Al  Al20  1  0.12126201  0.75325732  0.87680561  1
  Al  Al21  1  0.45034825  0.75316851  0.82381677  1
  Al  Al22  1  0.55584288  0.86875880  0.58012192  1
  Sc  Sc23  1  0.43724322  0.09340933  0.37010776  1
  Sc  Sc24  1  0.10890256  0.09442223  0.85160856  1
  Sc  Sc25  1  0.77762949  0.09437625  0.35379192  1
  Sc  Sc26  1  0.46058592  0.09254417  0.87473283  1
  Sc  Sc27  1  0.12245965  0.42455839  0.37289809  1
  Sc  Sc28  1  0.76335425  0.42651293  0.83729597  1
  Sc  Sc29  1  0.89005219  0.53500793  0.60350577  1
  Sc  Sc30  1  0.12153636  0.43754480  0.87371906  1
  Sc  Sc31  1  0.77568598  0.42485510  0.32667659  1
  Sc  Sc32  1  0.22898095  0.86188145  0.09564313  1
  Sc  Sc33  1  0.22516508  0.87534930  0.59316313  1
  Sc  Sc34  1  0.77667173  0.75533287  0.33644037  1
  Sc  Sc35  1  0.88377752  0.87588548  0.10067503  1
  N  N36  1  0.21046640  0.19648873  0.32032528  1
  N  N37  1  0.09480713  0.10835431  0.10883807  1
  N  N38  1  0.87458369  0.19449105  0.88430889  1
  N  N39  1  0.78287948  0.09187685  0.61052308  1
  N  N40  1  0.53120516  0.23543486  0.33458509  1
  N  N41  1  0.44820595  0.09016396  0.10042664  1
  N  N42  1  0.23165261  0.20848971  0.83693316  1
  N  N43  1  0.10401767  0.11354691  0.63072721  1
  N  N44  1  0.91005579  0.19499010  0.38568192  1
  N  N45  1  0.76152781  0.11878084  0.13032672  1
  N  N46  1  0.56113795  0.22686160  0.82040692  1
  N  N47  1  0.44720904  0.09366900  0.60057356  1
  N  N48  1  0.23119316  0.55472731  0.32340607  1
  N  N49  1  0.10997584  0.42975838  0.09631447  1
  N  N50  1  0.87976706  0.55552869  0.86382585  1
  N  N51  1  0.76493786  0.41385180  0.62218848  1
  N  N52  1  0.53975329  0.55089216  0.38014212  1
  N  N53  1  0.43858661  0.42550199  0.07888701  1
  N  N54  1  0.23865664  0.55027648  0.81888297  1
  N  N55  1  0.13775752  0.41714945  0.59750113  1
  N  N56  1  0.88964483  0.53249788  0.39299289  1
  N  N57  1  0.77606497  0.42838246  0.10466091  1
  N  N58  1  0.53456276  0.55384094  0.88602119  1
  N  N59  1  0.44121215  0.43066583  0.57857107  1
  N  N60  1  0.22116874  0.87249921  0.35413572  1
  N  N61  1  0.12065524  0.73492536  0.06466803  1
  N  N62  1  0.88939183  0.87499320  0.83973128  1
  N  N63  1  0.76585339  0.78114547  0.62888731  1
  N  N64  1  0.54426495  0.85733030  0.39119504  1
  N  N65  1  0.46522920  0.74644552  0.13650671  1
  N  N66  1  0.23450309  0.85619352  0.85755151  1
  N  N67  1  0.10176287  0.75117550  0.57657382  1
  N  N68  1  0.90986249  0.86002808  0.32259876  1
  N  N69  1  0.76985519  0.74686088  0.12066147  1
  N  N70  1  0.56332258  0.85038610  0.88279357  1
  N  N71  1  0.46782596  0.74685578  0.63481723  1
