# generated using pymatgen
data_Sc13Al23N36
_symmetry_space_group_name_H-M   'P 1'
_cell_length_a   9.97546706
_cell_length_b   9.99759014
_cell_length_c   10.10274816
_cell_angle_alpha   90.18534815
_cell_angle_beta   90.13210138
_cell_angle_gamma   59.94409247
_symmetry_Int_Tables_number   1
_chemical_formula_structural   Sc13Al23N36
_chemical_formula_sum   'Sc13 Al23 N36'
_cell_volume   872.07006175
_cell_formula_units_Z   1
loop_
 _symmetry_equiv_pos_site_id
 _symmetry_equiv_pos_as_xyz
  1  'x, y, z'
loop_
 _atom_site_type_symbol
 _atom_site_label
 _atom_site_symmetry_multiplicity
 _atom_site_fract_x
 _atom_site_fract_y
 _atom_site_fract_z
 _atom_site_occupancy
  Al  Al0  1  0.10951399  0.09500476  0.39864288  1
  Al  Al1  1  0.22062985  0.20131300  0.14345591  1
  Al  Al2  1  0.77010148  0.10443205  0.88960032  1
  Al  Al3  1  0.88038662  0.20574428  0.64208252  1
  Al  Al4  1  0.54933703  0.21860268  0.13767578  1
  Al  Al5  1  0.22540945  0.20957870  0.63991997  1
  Al  Al6  1  0.89021067  0.20798591  0.14027728  1
  Al  Al7  1  0.55695751  0.21093596  0.64154837  1
  Al  Al8  1  0.23166170  0.53922025  0.14262832  1
  Al  Al9  1  0.43846185  0.44028884  0.38984916  1
  Al  Al10  1  0.54847613  0.54141211  0.13945619  1
  Al  Al11  1  0.22799391  0.53500217  0.63834866  1
  Al  Al12  1  0.88491239  0.53707800  0.14803567  1
  Al  Al13  1  0.44314922  0.43467141  0.88710884  1
  Al  Al14  1  0.55299584  0.53579066  0.64133398  1
  Al  Al15  1  0.11136251  0.75847927  0.39531287  1
  Al  Al16  1  0.77262031  0.75864409  0.88843561  1
  Al  Al17  1  0.88345857  0.87564927  0.65020451  1
  Al  Al18  1  0.44557427  0.75623729  0.39359176  1
  Al  Al19  1  0.55329312  0.86347249  0.13585123  1
  Al  Al20  1  0.12356348  0.75275451  0.88328782  1
  Al  Al21  1  0.44600282  0.75329998  0.88684682  1
  Al  Al22  1  0.55959089  0.86789651  0.64395132  1
  Sc  Sc23  1  0.44422402  0.09199154  0.38246781  1
  Sc  Sc24  1  0.11022269  0.09128250  0.87603769  1
  Sc  Sc25  1  0.78091478  0.09214211  0.38171345  1
  Sc  Sc26  1  0.45250104  0.09132936  0.88055491  1
  Sc  Sc27  1  0.12351179  0.42447523  0.37173639  1
  Sc  Sc28  1  0.76996034  0.43172288  0.88850160  1
  Sc  Sc29  1  0.89087721  0.53867108  0.62698690  1
  Sc  Sc30  1  0.11432474  0.43644796  0.89515602  1
  Sc  Sc31  1  0.76681917  0.42411204  0.37779598  1
  Sc  Sc32  1  0.22542667  0.86972928  0.14590518  1
  Sc  Sc33  1  0.22553077  0.86651278  0.62028137  1
  Sc  Sc34  1  0.77432713  0.76875028  0.38068943  1
  Sc  Sc35  1  0.89061774  0.86990292  0.11212245  1
  N  N36  1  0.21606551  0.18824614  0.33034193  1
  N  N37  1  0.10317717  0.10807186  0.08556395  1
  N  N38  1  0.87697703  0.19964042  0.82873372  1
  N  N39  1  0.77801862  0.09101971  0.59445864  1
  N  N40  1  0.54233995  0.23204459  0.32654490  1
  N  N41  1  0.44595536  0.09327702  0.09823062  1
  N  N42  1  0.22236134  0.21146424  0.82707521  1
  N  N43  1  0.09911190  0.11642185  0.59124253  1
  N  N44  1  0.90975411  0.19075155  0.32737824  1
  N  N45  1  0.76486294  0.11855382  0.08230642  1
  N  N46  1  0.56038127  0.22184254  0.83068402  1
  N  N47  1  0.44841190  0.09149739  0.60222045  1
  N  N48  1  0.23250107  0.55556554  0.32926467  1
  N  N49  1  0.11410647  0.42732155  0.11348972  1
  N  N50  1  0.88423227  0.55265711  0.83552900  1
  N  N51  1  0.76582270  0.41710055  0.59307085  1
  N  N52  1  0.52904282  0.55409461  0.32618242  1
  N  N53  1  0.44265108  0.43032223  0.07794913  1
  N  N54  1  0.23437021  0.54468026  0.82561620  1
  N  N55  1  0.13471622  0.41779284  0.58591218  1
  N  N56  1  0.88707265  0.53797234  0.34024338  1
  N  N57  1  0.77422283  0.42823513  0.10726639  1
  N  N58  1  0.53806963  0.54638426  0.82935097  1
  N  N59  1  0.44445330  0.42970491  0.58055279  1
  N  N60  1  0.22110411  0.87217969  0.36890906  1
  N  N61  1  0.12864979  0.73933407  0.07021698  1
  N  N62  1  0.88473905  0.87503971  0.84938855  1
  N  N63  1  0.76825512  0.78333694  0.59149724  1
  N  N64  1  0.54203327  0.86082623  0.32280852  1
  N  N65  1  0.45727891  0.75036809  0.07595391  1
  N  N66  1  0.23336617  0.85396682  0.83401527  1
  N  N67  1  0.09566227  0.75004170  0.58559822  1
  N  N68  1  0.91133163  0.86224384  0.32113434  1
  N  N69  1  0.76830737  0.74792640  0.08544864  1
  N  N70  1  0.56201012  0.85132044  0.83297452  1
  N  N71  1  0.47094024  0.74637820  0.58078268  1
