# generated using pymatgen
data_Sc13Al23N36
_symmetry_space_group_name_H-M   'P 1'
_cell_length_a   10.09905968
_cell_length_b   10.14227176
_cell_length_c   9.91105312
_cell_angle_alpha   90.36457313
_cell_angle_beta   90.06289371
_cell_angle_gamma   59.77395406
_symmetry_Int_Tables_number   1
_chemical_formula_structural   Sc13Al23N36
_chemical_formula_sum   'Sc13 Al23 N36'
_cell_volume   877.12762967
_cell_formula_units_Z   1
loop_
 _symmetry_equiv_pos_site_id
 _symmetry_equiv_pos_as_xyz
  1  'x, y, z'
loop_
 _atom_site_type_symbol
 _atom_site_label
 _atom_site_symmetry_multiplicity
 _atom_site_fract_x
 _atom_site_fract_y
 _atom_site_fract_z
 _atom_site_occupancy
  Al  Al0  1  0.11700822  0.09069378  0.39414106  1
  Al  Al1  1  0.21194928  0.20621698  0.13086351  1
  Al  Al2  1  0.77328144  0.09934295  0.81612616  1
  Al  Al3  1  0.88654836  0.20733849  0.57979238  1
  Al  Al4  1  0.54632322  0.22070600  0.13955868  1
  Al  Al5  1  0.23366102  0.20606648  0.63562758  1
  Al  Al6  1  0.87754267  0.20914154  0.06448882  1
  Al  Al7  1  0.54751277  0.21704105  0.62621274  1
  Al  Al8  1  0.22657493  0.54035841  0.13409725  1
  Al  Al9  1  0.43523764  0.44034119  0.38314933  1
  Al  Al10  1  0.54784752  0.54489234  0.07694540  1
  Al  Al11  1  0.23128298  0.53589600  0.63152981  1
  Al  Al12  1  0.88207561  0.54258667  0.06636972  1
  Al  Al13  1  0.44164504  0.43356817  0.88368756  1
  Al  Al14  1  0.55827333  0.53694976  0.57102187  1
  Al  Al15  1  0.11134037  0.75881980  0.38423836  1
  Al  Al16  1  0.76857132  0.76732642  0.82371323  1
  Al  Al17  1  0.89097916  0.86963960  0.63281011  1
  Al  Al18  1  0.44557621  0.75500007  0.32946040  1
  Al  Al19  1  0.55737010  0.85818693  0.07595029  1
  Al  Al20  1  0.12377231  0.75331506  0.87681082  1
  Al  Al21  1  0.45080340  0.75251013  0.82384163  1
  Al  Al22  1  0.55591246  0.86925149  0.57802323  1
  Sc  Sc23  1  0.44082909  0.09138555  0.36034460  1
  Sc  Sc24  1  0.11133361  0.09221402  0.85539136  1
  Sc  Sc25  1  0.77963330  0.09460281  0.35054925  1
  Sc  Sc26  1  0.45767064  0.09240031  0.87177175  1
  Sc  Sc27  1  0.12305675  0.42494943  0.36677272  1
  Sc  Sc28  1  0.76199527  0.43037400  0.84053145  1
  Sc  Sc29  1  0.89159401  0.53432928  0.60326469  1
  Sc  Sc30  1  0.12263158  0.43411069  0.87208274  1
  Sc  Sc31  1  0.77921770  0.42239890  0.32412610  1
  Sc  Sc32  1  0.21564203  0.87706731  0.12313780  1
  Sc  Sc33  1  0.23013638  0.86100557  0.60855584  1
  Sc  Sc34  1  0.77879911  0.75537751  0.33849760  1
  Sc  Sc35  1  0.88289143  0.87524988  0.09639035  1
  N  N36  1  0.20943674  0.19247994  0.32311361  1
  N  N37  1  0.09761739  0.11307049  0.07728534  1
  N  N38  1  0.87402095  0.19607146  0.87138855  1
  N  N39  1  0.78103611  0.09072830  0.61002139  1
  N  N40  1  0.53356982  0.23457213  0.33310371  1
  N  N41  1  0.44632635  0.09168036  0.10171492  1
  N  N42  1  0.23046329  0.20655562  0.82688612  1
  N  N43  1  0.11193709  0.10852070  0.59934434  1
  N  N44  1  0.90579541  0.19714449  0.38768620  1
  N  N45  1  0.76370832  0.11887557  0.12289702  1
  N  N46  1  0.55800059  0.22666841  0.82089107  1
  N  N47  1  0.45000695  0.09286286  0.59637737  1
  N  N48  1  0.23165375  0.55577930  0.32389938  1
  N  N49  1  0.11039667  0.42996100  0.09890424  1
  N  N50  1  0.88149561  0.55642859  0.86181177  1
  N  N51  1  0.76531958  0.41577580  0.62289012  1
  N  N52  1  0.54235685  0.54808871  0.37548927  1
  N  N53  1  0.43850381  0.42681678  0.07985454  1
  N  N54  1  0.23775048  0.54845714  0.82078758  1
  N  N55  1  0.13891845  0.41612751  0.59409280  1
  N  N56  1  0.89130676  0.53157359  0.38996212  1
  N  N57  1  0.77554515  0.42935356  0.09952445  1
  N  N58  1  0.53200640  0.55500275  0.88567315  1
  N  N59  1  0.44213968  0.43120287  0.57808251  1
  N  N60  1  0.22168438  0.87168645  0.36048172  1
  N  N61  1  0.12238818  0.74043417  0.06608677  1
  N  N62  1  0.88657773  0.87569553  0.84169431  1
  N  N63  1  0.76592213  0.78090177  0.62577347  1
  N  N64  1  0.54547807  0.85699959  0.38751518  1
  N  N65  1  0.45713256  0.75247514  0.13556833  1
  N  N66  1  0.23179228  0.85505895  0.83593314  1
  N  N67  1  0.09966995  0.74768458  0.57884635  1
  N  N68  1  0.91081663  0.86034787  0.32202515  1
  N  N69  1  0.76769564  0.74820806  0.11987183  1
  N  N70  1  0.56181370  0.85074060  0.88150685  1
  N  N71  1  0.47348260  0.74351519  0.63203679  1
