# generated using pymatgen
data_Sc13Al23N36
_symmetry_space_group_name_H-M   'P 1'
_cell_length_a   10.04112582
_cell_length_b   10.08700496
_cell_length_c   10.00054073
_cell_angle_alpha   90.79898167
_cell_angle_beta   90.29765043
_cell_angle_gamma   59.81159310
_symmetry_Int_Tables_number   1
_chemical_formula_structural   Sc13Al23N36
_chemical_formula_sum   'Sc13 Al23 N36'
_cell_volume   875.44309573
_cell_formula_units_Z   1
loop_
 _symmetry_equiv_pos_site_id
 _symmetry_equiv_pos_as_xyz
  1  'x, y, z'
loop_
 _atom_site_type_symbol
 _atom_site_label
 _atom_site_symmetry_multiplicity
 _atom_site_fract_x
 _atom_site_fract_y
 _atom_site_fract_z
 _atom_site_occupancy
  Al  Al0  1  0.11053649  0.09496963  0.39917852  1
  Al  Al1  1  0.22082464  0.20019305  0.14051207  1
  Al  Al2  1  0.77025265  0.10681866  0.89108801  1
  Al  Al3  1  0.87939815  0.20708544  0.64320172  1
  Al  Al4  1  0.55018415  0.21886015  0.13710763  1
  Al  Al5  1  0.22577994  0.21135759  0.64063596  1
  Al  Al6  1  0.89111773  0.20674220  0.13982220  1
  Al  Al7  1  0.55700381  0.21154660  0.64191650  1
  Al  Al8  1  0.23147356  0.53952631  0.14389237  1
  Al  Al9  1  0.43899026  0.43850600  0.39254920  1
  Al  Al10  1  0.54675320  0.54269542  0.14532414  1
  Al  Al11  1  0.22841680  0.53458946  0.63950198  1
  Al  Al12  1  0.88715392  0.53211655  0.15659394  1
  Al  Al13  1  0.44305307  0.43502980  0.89035857  1
  Al  Al14  1  0.55475942  0.52913767  0.64335653  1
  Al  Al15  1  0.11144683  0.75752503  0.39457145  1
  Al  Al16  1  0.77080653  0.76677304  0.82208594  1
  Al  Al17  1  0.88687727  0.88056042  0.64707812  1
  Al  Al18  1  0.43969954  0.75565107  0.38312840  1
  Al  Al19  1  0.56159625  0.85438750  0.07706933  1
  Al  Al20  1  0.12367345  0.75223583  0.88417397  1
  Al  Al21  1  0.44593818  0.75454963  0.84380410  1
  Al  Al22  1  0.55309072  0.87428026  0.58643770  1
  Sc  Sc23  1  0.44436609  0.09454588  0.37151138  1
  Sc  Sc24  1  0.10877990  0.09459979  0.87383912  1
  Sc  Sc25  1  0.78229630  0.09182777  0.37879540  1
  Sc  Sc26  1  0.45185812  0.09471178  0.87368321  1
  Sc  Sc27  1  0.12907033  0.42072079  0.37199479  1
  Sc  Sc28  1  0.77043011  0.43608379  0.89145036  1
  Sc  Sc29  1  0.89331391  0.53310484  0.61609286  1
  Sc  Sc30  1  0.11016744  0.44128796  0.89488534  1
  Sc  Sc31  1  0.76848488  0.41927275  0.37811624  1
  Sc  Sc32  1  0.22133851  0.87234767  0.14047879  1
  Sc  Sc33  1  0.21971985  0.86954229  0.61850947  1
  Sc  Sc34  1  0.77680210  0.76511716  0.35791549  1
  Sc  Sc35  1  0.88716758  0.86626543  0.10768343  1
  N  N36  1  0.21640285  0.18604359  0.32967171  1
  N  N37  1  0.10158331  0.11104092  0.08395229  1
  N  N38  1  0.87493370  0.20326212  0.83167810  1
  N  N39  1  0.77862419  0.09194518  0.59410800  1
  N  N40  1  0.54387132  0.23306375  0.32748994  1
  N  N41  1  0.44797888  0.09187117  0.10103260  1
  N  N42  1  0.22065178  0.21479544  0.83010046  1
  N  N43  1  0.09870849  0.11871094  0.59390345  1
  N  N44  1  0.91258919  0.18773582  0.32830703  1
  N  N45  1  0.76589095  0.11717046  0.08480882  1
  N  N46  1  0.56145376  0.22282723  0.83301222  1
  N  N47  1  0.44713612  0.09694241  0.60614932  1
  N  N48  1  0.23396384  0.55448221  0.33200216  1
  N  N49  1  0.11339262  0.42676424  0.11682655  1
  N  N50  1  0.88290160  0.55431299  0.83165557  1
  N  N51  1  0.76495320  0.41512654  0.59414224  1
  N  N52  1  0.53138837  0.54969435  0.33636362  1
  N  N53  1  0.44275089  0.43043234  0.08181899  1
  N  N54  1  0.23494338  0.54466430  0.82791189  1
  N  N55  1  0.13741834  0.41683923  0.58765863  1
  N  N56  1  0.89267590  0.53029002  0.35839930  1
  N  N57  1  0.77442423  0.42773354  0.11361217  1
  N  N58  1  0.54037475  0.54186203  0.83435518  1
  N  N59  1  0.44433517  0.42791221  0.58372228  1
  N  N60  1  0.22007770  0.87170487  0.37238356  1
  N  N61  1  0.12602970  0.73703133  0.07179579  1
  N  N62  1  0.88590138  0.87796005  0.84913249  1
  N  N63  1  0.76666335  0.78450658  0.62166485  1
  N  N64  1  0.54337778  0.86181750  0.39492374  1
  N  N65  1  0.45399312  0.75234434  0.10769207  1
  N  N66  1  0.22860339  0.85664569  0.83710079  1
  N  N67  1  0.09578765  0.74882471  0.58644243  1
  N  N68  1  0.91358971  0.86348484  0.32325520  1
  N  N69  1  0.76746815  0.74627265  0.13506432  1
  N  N70  1  0.56550659  0.84983979  0.88005424  1
  N  N71  1  0.46435320  0.74711896  0.61594058  1
