# generated using pymatgen
data_Sc13Al23N36
_symmetry_space_group_name_H-M   'P 1'
_cell_length_a   10.05507868
_cell_length_b   10.09561938
_cell_length_c   9.98082166
_cell_angle_alpha   90.03641858
_cell_angle_beta   90.35219999
_cell_angle_gamma   60.05503766
_symmetry_Int_Tables_number   1
_chemical_formula_structural   Sc13Al23N36
_chemical_formula_sum   'Sc13 Al23 N36'
_cell_volume   877.90200994
_cell_formula_units_Z   1
loop_
 _symmetry_equiv_pos_site_id
 _symmetry_equiv_pos_as_xyz
  1  'x, y, z'
loop_
 _atom_site_type_symbol
 _atom_site_label
 _atom_site_symmetry_multiplicity
 _atom_site_fract_x
 _atom_site_fract_y
 _atom_site_fract_z
 _atom_site_occupancy
  Al  Al0  1  0.10885423  0.09289551  0.31472831  1
  Al  Al1  1  0.22052679  0.20931420  0.07323182  1
  Al  Al2  1  0.77374809  0.10120971  0.80707901  1
  Al  Al3  1  0.89242878  0.20571085  0.56693660  1
  Al  Al4  1  0.55034148  0.21430952  0.10828642  1
  Al  Al5  1  0.22174622  0.20440774  0.56624885  1
  Al  Al6  1  0.87868311  0.21007996  0.06792256  1
  Al  Al7  1  0.54871046  0.21492041  0.59148949  1
  Al  Al8  1  0.22970934  0.53820898  0.12563171  1
  Al  Al9  1  0.43340478  0.44118523  0.38341827  1
  Al  Al10  1  0.55330595  0.54270769  0.06666564  1
  Al  Al11  1  0.22978385  0.53990916  0.62649421  1
  Al  Al12  1  0.88491959  0.54145854  0.05728375  1
  Al  Al13  1  0.44224733  0.43309543  0.87381367  1
  Al  Al14  1  0.55502398  0.54044837  0.56759969  1
  Al  Al15  1  0.11332465  0.75716324  0.37223091  1
  Al  Al16  1  0.76991613  0.76655183  0.81742168  1
  Al  Al17  1  0.89281481  0.86999504  0.62729620  1
  Al  Al18  1  0.44385756  0.75598373  0.31917018  1
  Al  Al19  1  0.56017636  0.86011229  0.06422798  1
  Al  Al20  1  0.12165045  0.75392787  0.87145090  1
  Al  Al21  1  0.44993139  0.75397263  0.81654295  1
  Al  Al22  1  0.55467531  0.86974514  0.56974651  1
  Sc  Sc23  1  0.44177425  0.08900217  0.33445736  1
  Sc  Sc24  1  0.10835978  0.09463790  0.83319060  1
  Sc  Sc25  1  0.78023361  0.09205027  0.34422787  1
  Sc  Sc26  1  0.45346996  0.09096445  0.82680580  1
  Sc  Sc27  1  0.11529534  0.42704252  0.33429460  1
  Sc  Sc28  1  0.76509165  0.42518960  0.83192578  1
  Sc  Sc29  1  0.88910182  0.53642429  0.59132006  1
  Sc  Sc30  1  0.12080921  0.43137760  0.84051570  1
  Sc  Sc31  1  0.77251403  0.42510594  0.31949393  1
  Sc  Sc32  1  0.22842426  0.86798297  0.08917339  1
  Sc  Sc33  1  0.22598819  0.87318023  0.58173388  1
  Sc  Sc34  1  0.77588016  0.75623440  0.32627549  1
  Sc  Sc35  1  0.88564715  0.87528211  0.09078838  1
  N  N36  1  0.21105874  0.19402998  0.37413920  1
  N  N37  1  0.09740355  0.11457971  0.11834434  1
  N  N38  1  0.87767326  0.19148983  0.88006850  1
  N  N39  1  0.78360239  0.09152986  0.60543053  1
  N  N40  1  0.53902546  0.22796408  0.36648817  1
  N  N41  1  0.45015530  0.08999762  0.10913727  1
  N  N42  1  0.22825100  0.20316296  0.88607773  1
  N  N43  1  0.10288850  0.11335449  0.62157729  1
  N  N44  1  0.90869344  0.19620097  0.37833138  1
  N  N45  1  0.76203310  0.12017755  0.12423635  1
  N  N46  1  0.56016640  0.22426934  0.82196750  1
  N  N47  1  0.44285967  0.09095236  0.60381184  1
  N  N48  1  0.23358753  0.55243904  0.31619447  1
  N  N49  1  0.10948519  0.43119159  0.10233612  1
  N  N50  1  0.88020223  0.55542047  0.85795515  1
  N  N51  1  0.76512074  0.41445155  0.61541197  1
  N  N52  1  0.53872054  0.55132650  0.37382302  1
  N  N53  1  0.44117245  0.42553060  0.07306375  1
  N  N54  1  0.23693654  0.55156733  0.81548820  1
  N  N55  1  0.13521203  0.41582990  0.60914174  1
  N  N56  1  0.88868247  0.53288526  0.38203424  1
  N  N57  1  0.77654610  0.42951459  0.09687039  1
  N  N58  1  0.53537369  0.55381957  0.87724816  1
  N  N59  1  0.43828448  0.43674680  0.57780236  1
  N  N60  1  0.22207444  0.87205408  0.34847594  1
  N  N61  1  0.12283289  0.73778974  0.06016767  1
  N  N62  1  0.89016690  0.87462336  0.83395520  1
  N  N63  1  0.76508286  0.78202396  0.62109502  1
  N  N64  1  0.54470093  0.85785892  0.38212499  1
  N  N65  1  0.46524044  0.74848465  0.12804654  1
  N  N66  1  0.23475555  0.85768018  0.85233679  1
  N  N67  1  0.10093922  0.75095429  0.56906610  1
  N  N68  1  0.91160132  0.85745622  0.31326711  1
  N  N69  1  0.77029420  0.74819794  0.10985170  1
  N  N70  1  0.56255845  0.85305005  0.87381378  1
  N  N71  1  0.46685169  0.74818684  0.62677580  1
