# generated using pymatgen
data_Sc13Al23N36
_symmetry_space_group_name_H-M   'P 1'
_cell_length_a   10.03738656
_cell_length_b   10.08099327
_cell_length_c   10.04199188
_cell_angle_alpha   90.20122179
_cell_angle_beta   90.39385888
_cell_angle_gamma   60.04471353
_symmetry_Int_Tables_number   1
_chemical_formula_structural   Sc13Al23N36
_chemical_formula_sum   'Sc13 Al23 N36'
_cell_volume   880.35880166
_cell_formula_units_Z   1
loop_
 _symmetry_equiv_pos_site_id
 _symmetry_equiv_pos_as_xyz
  1  'x, y, z'
loop_
 _atom_site_type_symbol
 _atom_site_label
 _atom_site_symmetry_multiplicity
 _atom_site_fract_x
 _atom_site_fract_y
 _atom_site_fract_z
 _atom_site_occupancy
  Al  Al0  1  0.10840166  0.09329477  0.31464484  1
  Al  Al1  1  0.22093365  0.20866485  0.07287446  1
  Al  Al2  1  0.77691731  0.09921221  0.80890889  1
  Al  Al3  1  0.89246416  0.20600206  0.56673813  1
  Al  Al4  1  0.54769762  0.22026095  0.13471923  1
  Al  Al5  1  0.22264399  0.20473525  0.56717737  1
  Al  Al6  1  0.87874001  0.20949541  0.06742963  1
  Al  Al7  1  0.54829003  0.21750266  0.61860869  1
  Al  Al8  1  0.22949478  0.53881616  0.12529585  1
  Al  Al9  1  0.43344952  0.43995590  0.37973216  1
  Al  Al10  1  0.55334422  0.54259919  0.06578947  1
  Al  Al11  1  0.23074648  0.53882120  0.62523003  1
  Al  Al12  1  0.88509398  0.54141314  0.05686558  1
  Al  Al13  1  0.44273377  0.43219027  0.87718568  1
  Al  Al14  1  0.55531792  0.53922467  0.56566595  1
  Al  Al15  1  0.11268538  0.75767774  0.37215113  1
  Al  Al16  1  0.77034347  0.76599042  0.81682977  1
  Al  Al17  1  0.89291696  0.86942673  0.62666820  1
  Al  Al18  1  0.44373363  0.75573417  0.31882691  1
  Al  Al19  1  0.55954889  0.86011658  0.06464740  1
  Al  Al20  1  0.12240745  0.75345045  0.87150787  1
  Al  Al21  1  0.44994000  0.75320675  0.81599141  1
  Al  Al22  1  0.55482694  0.87030386  0.57059099  1
  Sc  Sc23  1  0.44045890  0.08813466  0.33395897  1
  Sc  Sc24  1  0.10889904  0.09443257  0.83201819  1
  Sc  Sc25  1  0.77937469  0.09256784  0.34585340  1
  Sc  Sc26  1  0.45443500  0.09017487  0.83510104  1
  Sc  Sc27  1  0.11557497  0.42664426  0.33189141  1
  Sc  Sc28  1  0.76536011  0.42553980  0.83139435  1
  Sc  Sc29  1  0.88902772  0.53588297  0.58971339  1
  Sc  Sc30  1  0.12096250  0.43201928  0.83924810  1
  Sc  Sc31  1  0.77252706  0.42475326  0.31729932  1
  Sc  Sc32  1  0.22829613  0.86841159  0.08831464  1
  Sc  Sc33  1  0.22627387  0.87340234  0.57982927  1
  Sc  Sc34  1  0.77547138  0.75552632  0.32510860  1
  Sc  Sc35  1  0.88474462  0.87639050  0.09222106  1
  N  N36  1  0.21078275  0.19415612  0.37630666  1
  N  N37  1  0.09721575  0.11513839  0.11953561  1
  N  N38  1  0.87834315  0.19183521  0.88024800  1
  N  N39  1  0.78264714  0.09168820  0.60408474  1
  N  N40  1  0.53371954  0.23443281  0.32926199  1
  N  N41  1  0.44905181  0.08776796  0.10807941  1
  N  N42  1  0.22761352  0.20395179  0.88638867  1
  N  N43  1  0.10317666  0.11336921  0.62193009  1
  N  N44  1  0.90814265  0.19655315  0.37938559  1
  N  N45  1  0.76393397  0.11916007  0.12369991  1
  N  N46  1  0.56061124  0.22636567  0.81241281  1
  N  N47  1  0.44442272  0.09243699  0.60599121  1
  N  N48  1  0.23238686  0.55395212  0.31492213  1
  N  N49  1  0.10958722  0.43097072  0.10267725  1
  N  N50  1  0.88060979  0.55558519  0.85901812  1
  N  N51  1  0.76465601  0.41434958  0.61622938  1
  N  N52  1  0.53885284  0.55116567  0.37395076  1
  N  N53  1  0.44086476  0.42533301  0.07099022  1
  N  N54  1  0.23908504  0.55111997  0.81320114  1
  N  N55  1  0.13467028  0.41604924  0.61066522  1
  N  N56  1  0.88895638  0.53222050  0.38177272  1
  N  N57  1  0.77663342  0.42948063  0.09653164  1
  N  N58  1  0.53575968  0.55342445  0.87745353  1
  N  N59  1  0.43989114  0.43089850  0.57135068  1
  N  N60  1  0.22172129  0.87252956  0.34889937  1
  N  N61  1  0.12232478  0.73791412  0.05894443  1
  N  N62  1  0.89072547  0.87453071  0.83258949  1
  N  N63  1  0.76536605  0.78107132  0.62209352  1
  N  N64  1  0.54468803  0.85745977  0.38391957  1
  N  N65  1  0.46522269  0.74789339  0.12887681  1
  N  N66  1  0.23510994  0.85785409  0.85369577  1
  N  N67  1  0.10164639  0.75035675  0.56807270  1
  N  N68  1  0.91040308  0.85819249  0.31388647  1
  N  N69  1  0.76991509  0.74806545  0.11043400  1
  N  N70  1  0.56301402  0.85194661  0.87438949  1
  N  N71  1  0.46677483  0.74738463  0.62715312  1
