# generated using pymatgen
data_Sc13Al23N36
_symmetry_space_group_name_H-M   'P 1'
_cell_length_a   9.99366000
_cell_length_b   10.02745632
_cell_length_c   10.09649186
_cell_angle_alpha   89.49503040
_cell_angle_beta   89.68159791
_cell_angle_gamma   60.11108085
_symmetry_Int_Tables_number   1
_chemical_formula_structural   Sc13Al23N36
_chemical_formula_sum   'Sc13 Al23 N36'
_cell_volume   877.17096870
_cell_formula_units_Z   1
loop_
 _symmetry_equiv_pos_site_id
 _symmetry_equiv_pos_as_xyz
  1  'x, y, z'
loop_
 _atom_site_type_symbol
 _atom_site_label
 _atom_site_symmetry_multiplicity
 _atom_site_fract_x
 _atom_site_fract_y
 _atom_site_fract_z
 _atom_site_occupancy
  Al  Al0  1  0.10916856  0.09527683  0.31155084  1
  Al  Al1  1  0.22091124  0.20872046  0.06421221  1
  Al  Al2  1  0.77601056  0.09452950  0.80455791  1
  Al  Al3  1  0.88922020  0.20720858  0.56326346  1
  Al  Al4  1  0.55592883  0.21630612  0.05860142  1
  Al  Al5  1  0.22436972  0.20382680  0.55819644  1
  Al  Al6  1  0.88169751  0.20956073  0.06169777  1
  Al  Al7  1  0.54736426  0.21541818  0.56567656  1
  Al  Al8  1  0.23190473  0.53123676  0.05788661  1
  Al  Al9  1  0.43873131  0.43832586  0.31225162  1
  Al  Al10  1  0.55078103  0.53990018  0.06114288  1
  Al  Al11  1  0.23292359  0.53228095  0.56043744  1
  Al  Al12  1  0.88739669  0.54194985  0.04878103  1
  Al  Al13  1  0.44588768  0.43354837  0.81050825  1
  Al  Al14  1  0.55352833  0.53498677  0.56219818  1
  Al  Al15  1  0.11487704  0.76127576  0.37426570  1
  Al  Al16  1  0.77425765  0.76840985  0.80761912  1
  Al  Al17  1  0.88492988  0.87526571  0.56751019  1
  Al  Al18  1  0.44338007  0.75582059  0.31574590  1
  Al  Al19  1  0.56175991  0.85761546  0.05852038  1
  Al  Al20  1  0.11528274  0.75747029  0.86683534  1
  Al  Al21  1  0.45201039  0.75021376  0.81302638  1
  Al  Al22  1  0.55369332  0.87135495  0.56603551  1
  Sc  Sc23  1  0.44437727  0.09204711  0.31815303  1
  Sc  Sc24  1  0.10880812  0.09310338  0.82436137  1
  Sc  Sc25  1  0.77338959  0.10279987  0.33075859  1
  Sc  Sc26  1  0.45457308  0.08808837  0.82466572  1
  Sc  Sc27  1  0.11582841  0.42861446  0.31636245  1
  Sc  Sc28  1  0.76729463  0.42560174  0.82852700  1
  Sc  Sc29  1  0.88791683  0.53731358  0.58196338  1
  Sc  Sc30  1  0.12246318  0.42821969  0.81848946  1
  Sc  Sc31  1  0.77242639  0.42794107  0.31070956  1
  Sc  Sc32  1  0.22808669  0.86921664  0.08544692  1
  Sc  Sc33  1  0.22799273  0.87221927  0.58079028  1
  Sc  Sc34  1  0.77259233  0.75821537  0.32136533  1
  Sc  Sc35  1  0.87785052  0.88031447  0.06841600  1
  N  N36  1  0.21484611  0.19478618  0.36873906  1
  N  N37  1  0.09748558  0.11616959  0.11731985  1
  N  N38  1  0.87912236  0.18973127  0.87585432  1
  N  N39  1  0.77556645  0.09655551  0.60908620  1
  N  N40  1  0.53597949  0.23354511  0.37866243  1
  N  N41  1  0.45152772  0.08954575  0.09912515  1
  N  N42  1  0.22674343  0.20239593  0.87991840  1
  N  N43  1  0.10212889  0.11446378  0.61549990  1
  N  N44  1  0.90679805  0.19971491  0.37591022  1
  N  N45  1  0.76292995  0.11965164  0.12142231  1
  N  N46  1  0.56465923  0.21950077  0.86668347  1
  N  N47  1  0.44411123  0.09289260  0.60602211  1
  N  N48  1  0.23294630  0.54720262  0.36821826  1
  N  N49  1  0.11127001  0.43009723  0.09752811  1
  N  N50  1  0.88259245  0.55638375  0.85331056  1
  N  N51  1  0.76460590  0.41572382  0.61356895  1
  N  N52  1  0.53601848  0.54810337  0.37305962  1
  N  N53  1  0.44379903  0.42881612  0.12050763  1
  N  N54  1  0.23960338  0.54088863  0.86753830  1
  N  N55  1  0.13606012  0.41557491  0.60400598  1
  N  N56  1  0.88943073  0.53343552  0.37552332  1
  N  N57  1  0.77707685  0.42988038  0.09008265  1
  N  N58  1  0.53385772  0.54800022  0.87553795  1
  N  N59  1  0.44421390  0.43026907  0.62158798  1
  N  N60  1  0.22124517  0.87370253  0.34602434  1
  N  N61  1  0.11498961  0.74564735  0.07183207  1
  N  N62  1  0.88432779  0.87624374  0.85194089  1
  N  N63  1  0.76519887  0.78350154  0.61626293  1
  N  N64  1  0.54102865  0.86179326  0.37940280  1
  N  N65  1  0.46691749  0.74575398  0.12622228  1
  N  N66  1  0.23551221  0.85502555  0.85168333  1
  N  N67  1  0.10528309  0.75241787  0.58019553  1
  N  N68  1  0.89905898  0.86653664  0.36781565  1
  N  N69  1  0.77226398  0.74791785  0.11033286  1
  N  N70  1  0.56547708  0.84850304  0.87022967  1
  N  N71  1  0.46924418  0.74464441  0.62452051  1
