# generated using pymatgen
data_Sc13Al23N36
_symmetry_space_group_name_H-M   'P 1'
_cell_length_a   10.02485426
_cell_length_b   10.05059172
_cell_length_c   10.02950250
_cell_angle_alpha   89.48909274
_cell_angle_beta   89.79613374
_cell_angle_gamma   60.08553859
_symmetry_Int_Tables_number   1
_chemical_formula_structural   Sc13Al23N36
_chemical_formula_sum   'Sc13 Al23 N36'
_cell_volume   875.86247441
_cell_formula_units_Z   1
loop_
 _symmetry_equiv_pos_site_id
 _symmetry_equiv_pos_as_xyz
  1  'x, y, z'
loop_
 _atom_site_type_symbol
 _atom_site_label
 _atom_site_symmetry_multiplicity
 _atom_site_fract_x
 _atom_site_fract_y
 _atom_site_fract_z
 _atom_site_occupancy
  Al  Al0  1  0.10949012  0.09494548  0.31137445  1
  Al  Al1  1  0.22089379  0.20895439  0.06451310  1
  Al  Al2  1  0.77366120  0.09851990  0.80804785  1
  Al  Al3  1  0.89001498  0.20712931  0.56346757  1
  Al  Al4  1  0.55619364  0.21670915  0.05912771  1
  Al  Al5  1  0.22442585  0.20397753  0.55809365  1
  Al  Al6  1  0.88126208  0.20998699  0.06222791  1
  Al  Al7  1  0.54626275  0.21603058  0.56555405  1
  Al  Al8  1  0.23286733  0.53064719  0.05743590  1
  Al  Al9  1  0.43899280  0.43807019  0.31225098  1
  Al  Al10  1  0.55072792  0.53993274  0.06158295  1
  Al  Al11  1  0.23212435  0.53303171  0.55930003  1
  Al  Al12  1  0.88719897  0.54140606  0.04911898  1
  Al  Al13  1  0.44528725  0.43429330  0.81001963  1
  Al  Al14  1  0.55327717  0.53513194  0.56151669  1
  Al  Al15  1  0.11151292  0.76270094  0.37120658  1
  Al  Al16  1  0.77187761  0.76667516  0.81076622  1
  Al  Al17  1  0.88716583  0.87515596  0.60591703  1
  Al  Al18  1  0.44374021  0.75573789  0.31619179  1
  Al  Al19  1  0.56173366  0.85724950  0.05879207  1
  Al  Al20  1  0.11637586  0.75712506  0.86918584  1
  Al  Al21  1  0.45108149  0.75028182  0.81230549  1
  Al  Al22  1  0.55277049  0.87207776  0.56579867  1
  Sc  Sc23  1  0.44425953  0.09237758  0.31797843  1
  Sc  Sc24  1  0.10895036  0.09312617  0.82557105  1
  Sc  Sc25  1  0.77497731  0.09985084  0.33247277  1
  Sc  Sc26  1  0.45429320  0.08842418  0.82594335  1
  Sc  Sc27  1  0.11573169  0.42960138  0.31705693  1
  Sc  Sc28  1  0.76641187  0.42604818  0.82874510  1
  Sc  Sc29  1  0.88801261  0.53676909  0.58272335  1
  Sc  Sc30  1  0.12241358  0.42820942  0.81905771  1
  Sc  Sc31  1  0.77296953  0.42672133  0.31196522  1
  Sc  Sc32  1  0.22885633  0.86907139  0.08703846  1
  Sc  Sc33  1  0.22723787  0.87256155  0.58022896  1
  Sc  Sc34  1  0.77286860  0.75763435  0.32239903  1
  Sc  Sc35  1  0.88203870  0.87781547  0.08363268  1
  N  N36  1  0.21466587  0.19514291  0.36734001  1
  N  N37  1  0.09765239  0.11605890  0.11558329  1
  N  N38  1  0.87922817  0.19085288  0.87511563  1
  N  N39  1  0.77525245  0.09757799  0.60933817  1
  N  N40  1  0.53620295  0.23307504  0.37789416  1
  N  N41  1  0.45168203  0.08961631  0.09780389  1
  N  N42  1  0.22689573  0.20250141  0.87895000  1
  N  N43  1  0.10267198  0.11434391  0.61516539  1
  N  N44  1  0.90780859  0.19800392  0.37541067  1
  N  N45  1  0.76210957  0.12160900  0.11983604  1
  N  N46  1  0.56373436  0.22054247  0.86602165  1
  N  N47  1  0.44402112  0.09323906  0.60588254  1
  N  N48  1  0.23353838  0.54787833  0.36703266  1
  N  N49  1  0.11140901  0.43045365  0.09635809  1
  N  N50  1  0.88254658  0.55527724  0.85202245  1
  N  N51  1  0.76434380  0.41556707  0.61230381  1
  N  N52  1  0.53650089  0.54775434  0.37169495  1
  N  N53  1  0.44383217  0.42887871  0.11959544  1
  N  N54  1  0.23953537  0.54078699  0.86527413  1
  N  N55  1  0.13602864  0.41601544  0.60284966  1
  N  N56  1  0.88992516  0.53236200  0.37543328  1
  N  N57  1  0.77704684  0.42991163  0.08988379  1
  N  N58  1  0.53343383  0.54826010  0.87470265  1
  N  N59  1  0.44351981  0.43124688  0.62031522  1
  N  N60  1  0.22195157  0.87312553  0.34498379  1
  N  N61  1  0.11806732  0.74473721  0.06763742  1
  N  N62  1  0.88625025  0.87530517  0.84046394  1
  N  N63  1  0.76424777  0.78295123  0.61573412  1
  N  N64  1  0.54040826  0.86270386  0.37851965  1
  N  N65  1  0.46691095  0.74576465  0.12541069  1
  N  N66  1  0.23507758  0.85498405  0.84831655  1
  N  N67  1  0.10059352  0.75511103  0.57521971  1
  N  N68  1  0.90453982  0.86299937  0.32945620  1
  N  N69  1  0.77165147  0.74697353  0.10775036  1
  N  N70  1  0.56400831  0.84867221  0.86933880  1
  N  N71  1  0.46853160  0.74492279  0.62279185  1
