# generated using pymatgen
data_Sc13Al23N36
_symmetry_space_group_name_H-M   'P 1'
_cell_length_a   10.07984155
_cell_length_b   10.13925844
_cell_length_c   9.97468808
_cell_angle_alpha   90.46427914
_cell_angle_beta   89.87795445
_cell_angle_gamma   59.76864919
_symmetry_Int_Tables_number   1
_chemical_formula_structural   Sc13Al23N36
_chemical_formula_sum   'Sc13 Al23 N36'
_cell_volume   880.73894787
_cell_formula_units_Z   1
loop_
 _symmetry_equiv_pos_site_id
 _symmetry_equiv_pos_as_xyz
  1  'x, y, z'
loop_
 _atom_site_type_symbol
 _atom_site_label
 _atom_site_symmetry_multiplicity
 _atom_site_fract_x
 _atom_site_fract_y
 _atom_site_fract_z
 _atom_site_occupancy
  Al  Al0  1  0.11811448  0.09034744  0.39516688  1
  Al  Al1  1  0.21158969  0.20687649  0.13104075  1
  Al  Al2  1  0.77243002  0.09986164  0.81433013  1
  Al  Al3  1  0.88708532  0.20664160  0.57962961  1
  Al  Al4  1  0.54500078  0.22219765  0.13819593  1
  Al  Al5  1  0.23444778  0.20538686  0.63471094  1
  Al  Al6  1  0.87745332  0.20878328  0.06468516  1
  Al  Al7  1  0.54759371  0.21588273  0.62499817  1
  Al  Al8  1  0.22620430  0.54143411  0.13337949  1
  Al  Al9  1  0.43866835  0.44245326  0.38298012  1
  Al  Al10  1  0.54777266  0.53846923  0.12772517  1
  Al  Al11  1  0.23036878  0.53639887  0.63097255  1
  Al  Al12  1  0.88268029  0.54365856  0.06646850  1
  Al  Al13  1  0.44250089  0.43453755  0.88266448  1
  Al  Al14  1  0.55346021  0.53164002  0.63660136  1
  Al  Al15  1  0.11092418  0.75835545  0.38345315  1
  Al  Al16  1  0.76836197  0.76777285  0.82257173  1
  Al  Al17  1  0.89073219  0.86933052  0.63312963  1
  Al  Al18  1  0.44482307  0.75641566  0.32710957  1
  Al  Al19  1  0.55664401  0.85834781  0.07337521  1
  Al  Al20  1  0.12321271  0.75324372  0.87624765  1
  Al  Al21  1  0.44727200  0.75791260  0.82203719  1
  Al  Al22  1  0.55645447  0.86910361  0.57410116  1
  Sc  Sc23  1  0.44104808  0.09129776  0.35897586  1
  Sc  Sc24  1  0.11135906  0.09170607  0.85586805  1
  Sc  Sc25  1  0.77844428  0.09536858  0.34806319  1
  Sc  Sc26  1  0.45704768  0.09281501  0.87272291  1
  Sc  Sc27  1  0.12642498  0.42409144  0.36848930  1
  Sc  Sc28  1  0.76679798  0.42924649  0.85028729  1
  Sc  Sc29  1  0.89154668  0.53442906  0.60323824  1
  Sc  Sc30  1  0.12377156  0.43320379  0.87264022  1
  Sc  Sc31  1  0.78398339  0.42026979  0.33018355  1
  Sc  Sc32  1  0.21278396  0.87886619  0.12488221  1
  Sc  Sc33  1  0.22885535  0.86172021  0.60647253  1
  Sc  Sc34  1  0.78059933  0.75446786  0.33510614  1
  Sc  Sc35  1  0.88197282  0.87620150  0.09454423  1
  N  N36  1  0.20918468  0.19223378  0.32149218  1
  N  N37  1  0.09753271  0.11394895  0.07608375  1
  N  N38  1  0.87379999  0.19453631  0.87311896  1
  N  N39  1  0.78135523  0.09037629  0.61030307  1
  N  N40  1  0.53091444  0.23634340  0.33043212  1
  N  N41  1  0.44576948  0.09343713  0.09937532  1
  N  N42  1  0.23075857  0.20570787  0.82424942  1
  N  N43  1  0.11262390  0.10849038  0.59754176  1
  N  N44  1  0.90671185  0.19486299  0.38872080  1
  N  N45  1  0.76296460  0.11989115  0.12346352  1
  N  N46  1  0.55624962  0.22643822  0.81838819  1
  N  N47  1  0.45034554  0.09316414  0.59151920  1
  N  N48  1  0.23281336  0.55571104  0.32234247  1
  N  N49  1  0.11140700  0.42992559  0.09781671  1
  N  N50  1  0.88278016  0.55811376  0.86356221  1
  N  N51  1  0.76917339  0.41401758  0.62448157  1
  N  N52  1  0.54180799  0.54150134  0.32463880  1
  N  N53  1  0.44007844  0.42964708  0.07422980  1
  N  N54  1  0.23674472  0.54842777  0.81918870  1
  N  N55  1  0.14054285  0.41505001  0.59263417  1
  N  N56  1  0.89387365  0.53243083  0.39115520  1
  N  N57  1  0.77534979  0.43006088  0.09748322  1
  N  N58  1  0.53239368  0.54744667  0.83438618  1
  N  N59  1  0.44397402  0.43342517  0.57448083  1
  N  N60  1  0.22215568  0.87115906  0.36012006  1
  N  N61  1  0.12182863  0.74063209  0.06424733  1
  N  N62  1  0.88593647  0.87627363  0.84082711  1
  N  N63  1  0.76501211  0.78123601  0.62666727  1
  N  N64  1  0.54721036  0.85571851  0.38447067  1
  N  N65  1  0.45261734  0.75741117  0.12812855  1
  N  N66  1  0.22972351  0.85549747  0.83281071  1
  N  N67  1  0.09871255  0.74691949  0.57649395  1
  N  N68  1  0.91132007  0.86111494  0.31863035  1
  N  N69  1  0.76676250  0.74913501  0.11904780  1
  N  N70  1  0.56154573  0.85063943  0.88074559  1
  N  N71  1  0.47015028  0.74859161  0.62655866  1
