# generated using pymatgen
data_Sc13Al23N36
_symmetry_space_group_name_H-M   'P 1'
_cell_length_a   10.06356765
_cell_length_b   10.10471199
_cell_length_c   10.01022457
_cell_angle_alpha   90.11124051
_cell_angle_beta   90.15279054
_cell_angle_gamma   59.89743684
_symmetry_Int_Tables_number   1
_chemical_formula_structural   Sc13Al23N36
_chemical_formula_sum   'Sc13 Al23 N36'
_cell_volume   880.64108497
_cell_formula_units_Z   1
loop_
 _symmetry_equiv_pos_site_id
 _symmetry_equiv_pos_as_xyz
  1  'x, y, z'
loop_
 _atom_site_type_symbol
 _atom_site_label
 _atom_site_symmetry_multiplicity
 _atom_site_fract_x
 _atom_site_fract_y
 _atom_site_fract_z
 _atom_site_occupancy
  Al  Al0  1  0.10705982  0.08909930  0.31974565  1
  Al  Al1  1  0.21788915  0.20908993  0.13009828  1
  Al  Al2  1  0.77675916  0.09929439  0.81467574  1
  Al  Al3  1  0.89539955  0.20467467  0.57517275  1
  Al  Al4  1  0.54525701  0.22004625  0.14295715  1
  Al  Al5  1  0.23004579  0.20693015  0.64293569  1
  Al  Al6  1  0.87418144  0.20953248  0.07103560  1
  Al  Al7  1  0.54791419  0.21758668  0.62899293  1
  Al  Al8  1  0.22678414  0.53743157  0.13557048  1
  Al  Al9  1  0.43423961  0.44073928  0.38598792  1
  Al  Al10  1  0.55219338  0.54136967  0.07487608  1
  Al  Al11  1  0.23127274  0.53783716  0.63235640  1
  Al  Al12  1  0.88169332  0.54156885  0.06602984  1
  Al  Al13  1  0.44199907  0.43323687  0.88431926  1
  Al  Al14  1  0.55609922  0.53857696  0.57222620  1
  Al  Al15  1  0.11228318  0.75925135  0.38167879  1
  Al  Al16  1  0.76920017  0.76681035  0.82396668  1
  Al  Al17  1  0.89220769  0.86982097  0.63323136  1
  Al  Al18  1  0.44399149  0.75632292  0.32716077  1
  Al  Al19  1  0.55993623  0.85696690  0.07514471  1
  Al  Al20  1  0.12156149  0.75316443  0.87651878  1
  Al  Al21  1  0.45064460  0.75300110  0.82369900  1
  Al  Al22  1  0.55589544  0.86881700  0.57979509  1
  Sc  Sc23  1  0.43779797  0.09340152  0.36947315  1
  Sc  Sc24  1  0.10921422  0.09450254  0.85251927  1
  Sc  Sc25  1  0.77791053  0.09429822  0.35340931  1
  Sc  Sc26  1  0.46040998  0.09255503  0.87453945  1
  Sc  Sc27  1  0.12237076  0.42500400  0.37222114  1
  Sc  Sc28  1  0.76316349  0.42681527  0.83759600  1
  Sc  Sc29  1  0.89014791  0.53481351  0.60339465  1
  Sc  Sc30  1  0.12155120  0.43725548  0.87376707  1
  Sc  Sc31  1  0.77577928  0.42483597  0.32640266  1
  Sc  Sc32  1  0.22778324  0.86273536  0.09957189  1
  Sc  Sc33  1  0.22504957  0.87403066  0.59805894  1
  Sc  Sc34  1  0.77702755  0.75539944  0.33640429  1
  Sc  Sc35  1  0.88370338  0.87581327  0.09991172  1
  N  N36  1  0.21063393  0.19650326  0.32079472  1
  N  N37  1  0.09512634  0.10879559  0.10752599  1
  N  N38  1  0.87462386  0.19461050  0.88353074  1
  N  N39  1  0.78282170  0.09165972  0.61063946  1
  N  N40  1  0.53160374  0.23547356  0.33433381  1
  N  N41  1  0.44803610  0.09040828  0.10062234  1
  N  N42  1  0.23173064  0.20846236  0.83620479  1
  N  N43  1  0.10433896  0.11327217  0.62969919  1
  N  N44  1  0.90956687  0.19533851  0.38601858  1
  N  N45  1  0.76182082  0.11871248  0.12962252  1
  N  N46  1  0.56094563  0.22680486  0.82057123  1
  N  N47  1  0.44746830  0.09364250  0.60012812  1
  N  N48  1  0.23133522  0.55501611  0.32343670  1
  N  N49  1  0.10994877  0.42993891  0.09675330  1
  N  N50  1  0.87981106  0.55553771  0.86378711  1
  N  N51  1  0.76504079  0.41383514  0.62236751  1
  N  N52  1  0.54001107  0.55066641  0.37994194  1
  N  N53  1  0.43858004  0.42565713  0.07889788  1
  N  N54  1  0.23849335  0.54987182  0.81902640  1
  N  N55  1  0.13780501  0.41693463  0.59690412  1
  N  N56  1  0.88963051  0.53249896  0.39257191  1
  N  N57  1  0.77584603  0.42856992  0.10417589  1
  N  N58  1  0.53413201  0.55401397  0.88591986  1
  N  N59  1  0.44131262  0.43064482  0.57862053  1
  N  N60  1  0.22121711  0.87222373  0.35351245  1
  N  N61  1  0.12103735  0.73536062  0.06441475  1
  N  N62  1  0.88895059  0.87501389  0.84018145  1
  N  N63  1  0.76582215  0.78101696  0.62878315  1
  N  N64  1  0.54457733  0.85743040  0.39067918  1
  N  N65  1  0.46464445  0.74686378  0.13653527  1
  N  N66  1  0.23379984  0.85612894  0.85303276  1
  N  N67  1  0.10136644  0.75068160  0.57692809  1
  N  N68  1  0.91019353  0.85999402  0.32229002  1
  N  N69  1  0.76961220  0.74708116  0.12045516  1
  N  N70  1  0.56298462  0.85045465  0.88285393  1
  N  N71  1  0.46876412  0.74642581  0.63442697  1
