# generated using pymatgen
data_Sc13Al23N36
_symmetry_space_group_name_H-M   'P 1'
_cell_length_a   10.05558213
_cell_length_b   10.09491465
_cell_length_c   9.98197781
_cell_angle_alpha   90.07751176
_cell_angle_beta   90.36758030
_cell_angle_gamma   60.04863345
_symmetry_Int_Tables_number   1
_chemical_formula_structural   Sc13Al23N36
_chemical_formula_sum   'Sc13 Al23 N36'
_cell_volume   877.92981079
_cell_formula_units_Z   1
loop_
 _symmetry_equiv_pos_site_id
 _symmetry_equiv_pos_as_xyz
  1  'x, y, z'
loop_
 _atom_site_type_symbol
 _atom_site_label
 _atom_site_symmetry_multiplicity
 _atom_site_fract_x
 _atom_site_fract_y
 _atom_site_fract_z
 _atom_site_occupancy
  Al  Al0  1  0.10874755  0.09299669  0.31451692  1
  Al  Al1  1  0.22106011  0.20893154  0.07337757  1
  Al  Al2  1  0.77464957  0.10060081  0.80753622  1
  Al  Al3  1  0.89266879  0.20585634  0.56688237  1
  Al  Al4  1  0.54875604  0.21709908  0.12608358  1
  Al  Al5  1  0.22166982  0.20461080  0.56648525  1
  Al  Al6  1  0.87845608  0.20982363  0.06795863  1
  Al  Al7  1  0.54867354  0.21629473  0.60507083  1
  Al  Al8  1  0.22973720  0.53830190  0.12534749  1
  Al  Al9  1  0.43347042  0.44091397  0.38200193  1
  Al  Al10  1  0.55322972  0.54252180  0.06653141  1
  Al  Al11  1  0.22998996  0.53954715  0.62602769  1
  Al  Al12  1  0.88488306  0.54148398  0.05727173  1
  Al  Al13  1  0.44273189  0.43203901  0.87486407  1
  Al  Al14  1  0.55509701  0.54019396  0.56701108  1
  Al  Al15  1  0.11331799  0.75722614  0.37210592  1
  Al  Al16  1  0.76994624  0.76648833  0.81739863  1
  Al  Al17  1  0.89291115  0.86968739  0.62689619  1
  Al  Al18  1  0.44387854  0.75587456  0.31903060  1
  Al  Al19  1  0.55981880  0.86054354  0.06457945  1
  Al  Al20  1  0.12198164  0.75370428  0.87133993  1
  Al  Al21  1  0.44992530  0.75371272  0.81658060  1
  Al  Al22  1  0.55485445  0.86961129  0.56992029  1
  Sc  Sc23  1  0.44109830  0.08841498  0.33543727  1
  Sc  Sc24  1  0.10836268  0.09466790  0.83340173  1
  Sc  Sc25  1  0.78086362  0.09162405  0.34546813  1
  Sc  Sc26  1  0.45369660  0.09078863  0.82926286  1
  Sc  Sc27  1  0.11539009  0.42708367  0.33389939  1
  Sc  Sc28  1  0.76502351  0.42533369  0.83191502  1
  Sc  Sc29  1  0.88909364  0.53631460  0.59119474  1
  Sc  Sc30  1  0.12084408  0.43156835  0.84056016  1
  Sc  Sc31  1  0.77249849  0.42507263  0.31914318  1
  Sc  Sc32  1  0.22839606  0.86798122  0.08918594  1
  Sc  Sc33  1  0.22599961  0.87325156  0.58168556  1
  Sc  Sc34  1  0.77590802  0.75601372  0.32602879  1
  Sc  Sc35  1  0.88525910  0.87585072  0.09101791  1
  N  N36  1  0.21065053  0.19420619  0.37454452  1
  N  N37  1  0.09737539  0.11466584  0.11819618  1
  N  N38  1  0.87752725  0.19166328  0.87989190  1
  N  N39  1  0.78357468  0.09137123  0.60402595  1
  N  N40  1  0.53725841  0.23070112  0.34795409  1
  N  N41  1  0.44977659  0.08929663  0.10922046  1
  N  N42  1  0.22828442  0.20328151  0.88594917  1
  N  N43  1  0.10296372  0.11339555  0.62182516  1
  N  N44  1  0.90878609  0.19632774  0.37845827  1
  N  N45  1  0.76281546  0.11960900  0.12397192  1
  N  N46  1  0.55980332  0.22549377  0.81331362  1
  N  N47  1  0.44335137  0.09151666  0.60339659  1
  N  N48  1  0.23321513  0.55295709  0.31590204  1
  N  N49  1  0.10949874  0.43114691  0.10219988  1
  N  N50  1  0.88026103  0.55545032  0.85791326  1
  N  N51  1  0.76494237  0.41442576  0.61540758  1
  N  N52  1  0.53871072  0.55139412  0.37370070  1
  N  N53  1  0.44140018  0.42475970  0.07230673  1
  N  N54  1  0.23766270  0.55121522  0.81496782  1
  N  N55  1  0.13510481  0.41590395  0.60930664  1
  N  N56  1  0.88880304  0.53272458  0.38197502  1
  N  N57  1  0.77654097  0.42950528  0.09670481  1
  N  N58  1  0.53535411  0.55348276  0.87709106  1
  N  N59  1  0.43875779  0.43481530  0.57516743  1
  N  N60  1  0.22202000  0.87219067  0.34846100  1
  N  N61  1  0.12271459  0.73785271  0.05987704  1
  N  N62  1  0.89016488  0.87476248  0.83353255  1
  N  N63  1  0.76514776  0.78185870  0.62119235  1
  N  N64  1  0.54496244  0.85728841  0.38245665  1
  N  N65  1  0.46522391  0.74831464  0.12797366  1
  N  N66  1  0.23476874  0.85772473  0.85227288  1
  N  N67  1  0.10124766  0.75074643  0.56900736  1
  N  N68  1  0.91152864  0.85735968  0.31354518  1
  N  N69  1  0.77015919  0.74824194  0.10976922  1
  N  N70  1  0.56254389  0.85294155  0.87375462  1
  N  N71  1  0.46681457  0.74795891  0.62682410  1
