# generated using pymatgen
data_Sc13Al23N36
_symmetry_space_group_name_H-M   'P 1'
_cell_length_a   10.08423141
_cell_length_b   10.14261322
_cell_length_c   9.96102653
_cell_angle_alpha   90.46178575
_cell_angle_beta   89.87932388
_cell_angle_gamma   59.77109668
_symmetry_Int_Tables_number   1
_chemical_formula_structural   Sc13Al23N36
_chemical_formula_sum   'Sc13 Al23 N36'
_cell_volume   880.22940823
_cell_formula_units_Z   1
loop_
 _symmetry_equiv_pos_site_id
 _symmetry_equiv_pos_as_xyz
  1  'x, y, z'
loop_
 _atom_site_type_symbol
 _atom_site_label
 _atom_site_symmetry_multiplicity
 _atom_site_fract_x
 _atom_site_fract_y
 _atom_site_fract_z
 _atom_site_occupancy
  Al  Al0  1  0.11809195  0.09026799  0.39367309  1
  Al  Al1  1  0.21163234  0.20681783  0.12967343  1
  Al  Al2  1  0.77237968  0.09986423  0.81329277  1
  Al  Al3  1  0.88712179  0.20662094  0.57856432  1
  Al  Al4  1  0.54516106  0.22213313  0.13694280  1
  Al  Al5  1  0.23442145  0.20540135  0.63345297  1
  Al  Al6  1  0.87752555  0.20879237  0.06367425  1
  Al  Al7  1  0.54756897  0.21592650  0.62362858  1
  Al  Al8  1  0.22629084  0.54137727  0.13215357  1
  Al  Al9  1  0.43856822  0.44247495  0.38174082  1
  Al  Al10  1  0.54789462  0.53842303  0.12643317  1
  Al  Al11  1  0.23036326  0.53642143  0.62968548  1
  Al  Al12  1  0.88275736  0.54359533  0.06552779  1
  Al  Al13  1  0.44254409  0.43447820  0.88143043  1
  Al  Al14  1  0.55336883  0.53173868  0.63526497  1
  Al  Al15  1  0.11097934  0.75839700  0.38212483  1
  Al  Al16  1  0.76845843  0.76776844  0.82137581  1
  Al  Al17  1  0.89069882  0.86940327  0.63167959  1
  Al  Al18  1  0.44465104  0.75650886  0.32584294  1
  Al  Al19  1  0.55687835  0.85830746  0.07227115  1
  Al  Al20  1  0.12316173  0.75320295  0.87498786  1
  Al  Al21  1  0.44733634  0.75784233  0.82117706  1
  Al  Al22  1  0.55631810  0.86914520  0.57301863  1
  Sc  Sc23  1  0.44109516  0.09126045  0.35751072  1
  Sc  Sc24  1  0.11121716  0.09187253  0.85438449  1
  Sc  Sc25  1  0.77846547  0.09535667  0.34717417  1
  Sc  Sc26  1  0.45711152  0.09271262  0.87119103  1
  Sc  Sc27  1  0.12627991  0.42409079  0.36700093  1
  Sc  Sc28  1  0.76674904  0.42929762  0.84917693  1
  Sc  Sc29  1  0.89163038  0.53442111  0.60222350  1
  Sc  Sc30  1  0.12375327  0.43322021  0.87125684  1
  Sc  Sc31  1  0.78359156  0.42046598  0.32971397  1
  Sc  Sc32  1  0.21311907  0.87871773  0.12275533  1
  Sc  Sc33  1  0.22890073  0.86170199  0.60528084  1
  Sc  Sc34  1  0.78053291  0.75457620  0.33439240  1
  Sc  Sc35  1  0.88204261  0.87616539  0.09349945  1
  N  N36  1  0.20929505  0.19218126  0.32042818  1
  N  N37  1  0.09746605  0.11401836  0.07493556  1
  N  N38  1  0.87375876  0.19462993  0.87167782  1
  N  N39  1  0.78127413  0.09042512  0.60891192  1
  N  N40  1  0.53105130  0.23629439  0.32948908  1
  N  N41  1  0.44588592  0.09335990  0.09829254  1
  N  N42  1  0.23075752  0.20571397  0.82330179  1
  N  N43  1  0.11257481  0.10844617  0.59656657  1
  N  N44  1  0.90681402  0.19480268  0.38735451  1
  N  N45  1  0.76299195  0.11982528  0.12212542  1
  N  N46  1  0.55631382  0.22640303  0.81729452  1
  N  N47  1  0.45033251  0.09310853  0.59061190  1
  N  N48  1  0.23274514  0.55566289  0.32134258  1
  N  N49  1  0.11144073  0.42990262  0.09676446  1
  N  N50  1  0.88281090  0.55805790  0.86211159  1
  N  N51  1  0.76900436  0.41417187  0.62278174  1
  N  N52  1  0.54154192  0.54169548  0.32358882  1
  N  N53  1  0.44013272  0.42961391  0.07319429  1
  N  N54  1  0.23680592  0.54841076  0.81814217  1
  N  N55  1  0.14050759  0.41507877  0.59161351  1
  N  N56  1  0.89388934  0.53242071  0.38983462  1
  N  N57  1  0.77538697  0.43004080  0.09638449  1
  N  N58  1  0.53245991  0.54739793  0.83335902  1
  N  N59  1  0.44389703  0.43346957  0.57343488  1
  N  N60  1  0.22212451  0.87116624  0.35875753  1
  N  N61  1  0.12176433  0.74058399  0.06324422  1
  N  N62  1  0.88593285  0.87627906  0.83962018  1
  N  N63  1  0.76505611  0.78126071  0.62508150  1
  N  N64  1  0.54703872  0.85579130  0.38312881  1
  N  N65  1  0.45283429  0.75727459  0.12660410  1
  N  N66  1  0.22983087  0.85552735  0.83229007  1
  N  N67  1  0.09879466  0.74700437  0.57551043  1
  N  N68  1  0.91120708  0.86117274  0.31784188  1
  N  N69  1  0.76691923  0.74910426  0.11789699  1
  N  N70  1  0.56171570  0.85060644  0.87938466  1
  N  N71  1  0.47001684  0.74862709  0.62538615  1
