# generated using pymatgen
data_Sc13Al23N36
_symmetry_space_group_name_H-M   'P 1'
_cell_length_a   10.06304407
_cell_length_b   10.10377290
_cell_length_c   10.02334841
_cell_angle_alpha   90.23096039
_cell_angle_beta   90.14808752
_cell_angle_gamma   59.86377191
_symmetry_Int_Tables_number   1
_chemical_formula_structural   Sc13Al23N36
_chemical_formula_sum   'Sc13 Al23 N36'
_cell_volume   881.36334413
_cell_formula_units_Z   1
loop_
 _symmetry_equiv_pos_site_id
 _symmetry_equiv_pos_as_xyz
  1  'x, y, z'
loop_
 _atom_site_type_symbol
 _atom_site_label
 _atom_site_symmetry_multiplicity
 _atom_site_fract_x
 _atom_site_fract_y
 _atom_site_fract_z
 _atom_site_occupancy
  Al  Al0  1  0.11527890  0.08914271  0.37779986  1
  Al  Al1  1  0.21385117  0.20652410  0.13158996  1
  Al  Al2  1  0.77541196  0.09888867  0.81482731  1
  Al  Al3  1  0.88927949  0.20672523  0.57727720  1
  Al  Al4  1  0.54554392  0.22041203  0.14158326  1
  Al  Al5  1  0.23187573  0.20682021  0.63896117  1
  Al  Al6  1  0.87694702  0.20900994  0.06720920  1
  Al  Al7  1  0.54766453  0.21718876  0.62898337  1
  Al  Al8  1  0.22693859  0.53872530  0.13518497  1
  Al  Al9  1  0.43465143  0.44060705  0.38580654  1
  Al  Al10  1  0.54985580  0.54325588  0.07468732  1
  Al  Al11  1  0.23095973  0.53657586  0.63257173  1
  Al  Al12  1  0.88166139  0.54167319  0.06580500  1
  Al  Al13  1  0.44150212  0.43334755  0.88431882  1
  Al  Al14  1  0.55735520  0.53788706  0.57193189  1
  Al  Al15  1  0.11191454  0.75878516  0.38386729  1
  Al  Al16  1  0.76890622  0.76687093  0.82404775  1
  Al  Al17  1  0.89181665  0.86930800  0.63404642  1
  Al  Al18  1  0.44556435  0.75533947  0.32892936  1
  Al  Al19  1  0.55843105  0.85756918  0.07552198  1
  Al  Al20  1  0.12295278  0.75332794  0.87744699  1
  Al  Al21  1  0.45110374  0.75289906  0.82344063  1
  Al  Al22  1  0.55629674  0.86911671  0.57884812  1
  Sc  Sc23  1  0.43940268  0.09323618  0.36688080  1
  Sc  Sc24  1  0.11065649  0.09349695  0.85800816  1
  Sc  Sc25  1  0.77867907  0.09414392  0.35051861  1
  Sc  Sc26  1  0.45838987  0.09314276  0.87515153  1
  Sc  Sc27  1  0.12224946  0.42579258  0.37000068  1
  Sc  Sc28  1  0.76229095  0.42856354  0.83839255  1
  Sc  Sc29  1  0.89062019  0.53471779  0.60261466  1
  Sc  Sc30  1  0.12203778  0.43553694  0.87476170  1
  Sc  Sc31  1  0.77657900  0.42417505  0.32379043  1
  Sc  Sc32  1  0.22030765  0.87196284  0.11665278  1
  Sc  Sc33  1  0.22774407  0.86589804  0.60905961  1
  Sc  Sc34  1  0.77765733  0.75516167  0.33564098  1
  Sc  Sc35  1  0.88372180  0.87529232  0.09827499  1
  N  N36  1  0.20952537  0.19448653  0.32147334  1
  N  N37  1  0.09840020  0.11121590  0.08264683  1
  N  N38  1  0.87371703  0.19557105  0.87757750  1
  N  N39  1  0.78210774  0.09095428  0.61137747  1
  N  N40  1  0.53239441  0.23561459  0.33271911  1
  N  N41  1  0.44687125  0.09120408  0.10100407  1
  N  N42  1  0.23082316  0.20790440  0.82869843  1
  N  N43  1  0.10932782  0.11052934  0.60566771  1
  N  N44  1  0.90506518  0.19788370  0.38768424  1
  N  N45  1  0.76334695  0.11872096  0.12709815  1
  N  N46  1  0.55942529  0.22657828  0.82062942  1
  N  N47  1  0.44877689  0.09369921  0.59714802  1
  N  N48  1  0.23187290  0.55554552  0.32299494  1
  N  N49  1  0.11031996  0.42968412  0.09791892  1
  N  N50  1  0.88052933  0.55577779  0.86404172  1
  N  N51  1  0.76508105  0.41474128  0.62403256  1
  N  N52  1  0.54131431  0.54966494  0.37987700  1
  N  N53  1  0.43847662  0.42592152  0.07849220  1
  N  N54  1  0.23775602  0.54909414  0.81941911  1
  N  N55  1  0.13814990  0.41672447  0.59382480  1
  N  N56  1  0.88962735  0.53223258  0.39188777  1
  N  N57  1  0.77535437  0.42882954  0.10222795  1
  N  N58  1  0.53264967  0.55500220  0.88618036  1
  N  N59  1  0.44156710  0.43062357  0.57840779  1
  N  N60  1  0.22175474  0.87146916  0.35637475  1
  N  N61  1  0.12260219  0.73796389  0.06460562  1
  N  N62  1  0.88838409  0.87491470  0.84096806  1
  N  N63  1  0.76570010  0.78084199  0.62914706  1
  N  N64  1  0.54526412  0.85758207  0.39010634  1
  N  N65  1  0.46134490  0.74909736  0.13737922  1
  N  N66  1  0.23211654  0.85578994  0.83963149  1
  N  N67  1  0.10017571  0.74874133  0.57709162  1
  N  N68  1  0.91104002  0.85947188  0.32122762  1
  N  N69  1  0.76872014  0.74733604  0.12030603  1
  N  N70  1  0.56227664  0.85082145  0.88329579  1
  N  N71  1  0.47209165  0.74481999  0.63403586  1
