# generated using pymatgen
data_Sc13Al23N36
_symmetry_space_group_name_H-M   'P 1'
_cell_length_a   10.11316592
_cell_length_b   10.15782305
_cell_length_c   9.81378352
_cell_angle_alpha   90.50786470
_cell_angle_beta   89.99349823
_cell_angle_gamma   59.80686179
_symmetry_Int_Tables_number   1
_chemical_formula_structural   Sc13Al23N36
_chemical_formula_sum   'Sc13 Al23 N36'
_cell_volume   871.33113398
_cell_formula_units_Z   1
loop_
 _symmetry_equiv_pos_site_id
 _symmetry_equiv_pos_as_xyz
  1  'x, y, z'
loop_
 _atom_site_type_symbol
 _atom_site_label
 _atom_site_symmetry_multiplicity
 _atom_site_fract_x
 _atom_site_fract_y
 _atom_site_fract_z
 _atom_site_occupancy
  Al  Al0  1  0.11030975  0.09450920  0.38501575  1
  Al  Al1  1  0.21639538  0.20474025  0.12749347  1
  Al  Al2  1  0.76895100  0.10506714  0.88147313  1
  Al  Al3  1  0.88086962  0.20170937  0.62876073  1
  Al  Al4  1  0.54801131  0.22031780  0.12761228  1
  Al  Al5  1  0.23006576  0.20651098  0.62775974  1
  Al  Al6  1  0.88936230  0.21195074  0.12692115  1
  Al  Al7  1  0.55728248  0.21110449  0.62809235  1
  Al  Al8  1  0.22933612  0.53915015  0.13199908  1
  Al  Al9  1  0.43896376  0.43910225  0.38018666  1
  Al  Al10  1  0.55159415  0.53718403  0.13034435  1
  Al  Al11  1  0.23028925  0.53635755  0.62673582  1
  Al  Al12  1  0.88345828  0.54118697  0.07250819  1
  Al  Al13  1  0.44275357  0.43469590  0.87989765  1
  Al  Al14  1  0.55178434  0.53214793  0.63181933  1
  Al  Al15  1  0.11067070  0.75871778  0.38098792  1
  Al  Al16  1  0.76883216  0.76778606  0.82373672  1
  Al  Al17  1  0.88489198  0.88014868  0.63750772  1
  Al  Al18  1  0.44123146  0.75964177  0.32698959  1
  Al  Al19  1  0.55808234  0.85851085  0.07238844  1
  Al  Al20  1  0.12378127  0.75193018  0.87254191  1
  Al  Al21  1  0.44808412  0.75593475  0.82176095  1
  Al  Al22  1  0.55504507  0.87033255  0.57487867  1
  Sc  Sc23  1  0.44394661  0.09294445  0.35624085  1
  Sc  Sc24  1  0.10913552  0.09332697  0.85763913  1
  Sc  Sc25  1  0.78066295  0.09276306  0.36242951  1
  Sc  Sc26  1  0.45578071  0.09023248  0.86121702  1
  Sc  Sc27  1  0.12198552  0.42449112  0.36291682  1
  Sc  Sc28  1  0.76732828  0.42616984  0.86259588  1
  Sc  Sc29  1  0.89247707  0.53687973  0.60742287  1
  Sc  Sc30  1  0.12317585  0.43247306  0.86897285  1
  Sc  Sc31  1  0.77144917  0.42506493  0.36913536  1
  Sc  Sc32  1  0.21775192  0.87505707  0.11428911  1
  Sc  Sc33  1  0.22586197  0.86587633  0.60220146  1
  Sc  Sc34  1  0.77936399  0.75728936  0.33991789  1
  Sc  Sc35  1  0.88784752  0.86850439  0.09554107  1
  N  N36  1  0.21365656  0.19043616  0.32144572  1
  N  N37  1  0.09901122  0.11446956  0.07302849  1
  N  N38  1  0.87793431  0.19329349  0.82050716  1
  N  N39  1  0.77765899  0.09056072  0.58214227  1
  N  N40  1  0.54119565  0.23311902  0.32084690  1
  N  N41  1  0.44692044  0.09267014  0.09514137  1
  N  N42  1  0.22769571  0.20543328  0.82081373  1
  N  N43  1  0.10175658  0.11413055  0.58536933  1
  N  N44  1  0.90966540  0.19327326  0.32128405  1
  N  N45  1  0.76442491  0.11924637  0.07956553  1
  N  N46  1  0.56104468  0.22297499  0.82398171  1
  N  N47  1  0.45002569  0.09394848  0.59517042  1
  N  N48  1  0.23214950  0.55348716  0.32439325  1
  N  N49  1  0.11217548  0.42888792  0.09815267  1
  N  N50  1  0.88233981  0.55570253  0.85789421  1
  N  N51  1  0.76567259  0.41545309  0.59934251  1
  N  N52  1  0.53568683  0.54591716  0.32728271  1
  N  N53  1  0.44145398  0.43079933  0.07379573  1
  N  N54  1  0.23763506  0.54700515  0.81810271  1
  N  N55  1  0.13847773  0.41661456  0.59161088  1
  N  N56  1  0.89199653  0.53485092  0.38929834  1
  N  N57  1  0.77440159  0.42999372  0.09342512  1
  N  N58  1  0.53584291  0.54462604  0.83028847  1
  N  N59  1  0.44487514  0.42901562  0.57448727  1
  N  N60  1  0.21995479  0.87210719  0.35631375  1
  N  N61  1  0.12481234  0.73707311  0.06375988  1
  N  N62  1  0.88462891  0.87843164  0.84421066  1
  N  N63  1  0.76490760  0.78429643  0.62387798  1
  N  N64  1  0.54514527  0.85866333  0.38156313  1
  N  N65  1  0.45535238  0.75572950  0.12457535  1
  N  N66  1  0.23121960  0.85580053  0.83743829  1
  N  N67  1  0.09614664  0.75102254  0.57880819  1
  N  N68  1  0.91110522  0.86246083  0.31493075  1
  N  N69  1  0.76791132  0.74801932  0.11776629  1
  N  N70  1  0.56240652  0.84920203  0.87697558  1
  N  N71  1  0.46690856  0.74979485  0.62279094  1
