# generated using pymatgen
data_Sc13Al23N36
_symmetry_space_group_name_H-M   'P 1'
_cell_length_a   10.12580494
_cell_length_b   10.16915530
_cell_length_c   9.82305976
_cell_angle_alpha   90.39765074
_cell_angle_beta   90.00153810
_cell_angle_gamma   59.76550708
_symmetry_Int_Tables_number   1
_chemical_formula_structural   Sc13Al23N36
_chemical_formula_sum   'Sc13 Al23 N36'
_cell_volume   873.87002261
_cell_formula_units_Z   1
loop_
 _symmetry_equiv_pos_site_id
 _symmetry_equiv_pos_as_xyz
  1  'x, y, z'
loop_
 _atom_site_type_symbol
 _atom_site_label
 _atom_site_symmetry_multiplicity
 _atom_site_fract_x
 _atom_site_fract_y
 _atom_site_fract_z
 _atom_site_occupancy
  Al  Al0  1  0.11696973  0.09016813  0.39288476  1
  Al  Al1  1  0.21206998  0.20614404  0.12989589  1
  Al  Al2  1  0.77228788  0.09980220  0.81672489  1
  Al  Al3  1  0.88695727  0.20677248  0.58137063  1
  Al  Al4  1  0.54622827  0.22041913  0.13963606  1
  Al  Al5  1  0.23361782  0.20598585  0.63496215  1
  Al  Al6  1  0.87847370  0.20815455  0.06576753  1
  Al  Al7  1  0.54768133  0.21676845  0.62373740  1
  Al  Al8  1  0.22609017  0.54041412  0.13410954  1
  Al  Al9  1  0.43595459  0.44114688  0.38054674  1
  Al  Al10  1  0.54789140  0.54339020  0.08592472  1
  Al  Al11  1  0.23085877  0.53665161  0.63020742  1
  Al  Al12  1  0.88330907  0.54308216  0.06793458  1
  Al  Al13  1  0.44212957  0.43361801  0.88408564  1
  Al  Al14  1  0.55756872  0.53518653  0.58332871  1
  Al  Al15  1  0.11115741  0.75905013  0.38328254  1
  Al  Al16  1  0.76891571  0.76782815  0.82383194  1
  Al  Al17  1  0.89048099  0.87004807  0.63151618  1
  Al  Al18  1  0.44474643  0.75550405  0.32649871  1
  Al  Al19  1  0.55776409  0.85938895  0.07540332  1
  Al  Al20  1  0.12332204  0.75304241  0.87591543  1
  Al  Al21  1  0.45020494  0.75298893  0.82766676  1
  Al  Al22  1  0.55547918  0.86874206  0.57842476  1
  Sc  Sc23  1  0.44096338  0.09037620  0.35882284  1
  Sc  Sc24  1  0.11088814  0.09278160  0.85418798  1
  Sc  Sc25  1  0.77926814  0.09491920  0.35182743  1
  Sc  Sc26  1  0.45767340  0.09276641  0.86956041  1
  Sc  Sc27  1  0.12310353  0.42456039  0.36588592  1
  Sc  Sc28  1  0.76373005  0.43031975  0.84636060  1
  Sc  Sc29  1  0.89188021  0.53412993  0.60486932  1
  Sc  Sc30  1  0.12333252  0.43424224  0.87089469  1
  Sc  Sc31  1  0.78019716  0.42188332  0.32626287  1
  Sc  Sc32  1  0.21520196  0.87732640  0.11912260  1
  Sc  Sc33  1  0.23019160  0.86090792  0.60794215  1
  Sc  Sc34  1  0.77874485  0.75568713  0.34084515  1
  Sc  Sc35  1  0.88252247  0.87548098  0.09641214  1
  N  N36  1  0.20983545  0.19207794  0.32393448  1
  N  N37  1  0.09726272  0.11359112  0.07798895  1
  N  N38  1  0.87440691  0.19525174  0.87051758  1
  N  N39  1  0.78062469  0.09078650  0.60902880  1
  N  N40  1  0.53325268  0.23392015  0.33539224  1
  N  N41  1  0.44673942  0.09206079  0.10188183  1
  N  N42  1  0.23024572  0.20664764  0.82812901  1
  N  N43  1  0.11209436  0.10814018  0.60029903  1
  N  N44  1  0.90648965  0.19616102  0.38749391  1
  N  N45  1  0.76307114  0.11918635  0.12239323  1
  N  N46  1  0.55754191  0.22714051  0.82021716  1
  N  N47  1  0.44997458  0.09233485  0.59697883  1
  N  N48  1  0.23084780  0.55553585  0.32547007  1
  N  N49  1  0.11072637  0.42990318  0.09979328  1
  N  N50  1  0.88254637  0.55725547  0.86118849  1
  N  N51  1  0.76583779  0.41542973  0.62372036  1
  N  N52  1  0.54179871  0.54590261  0.35817822  1
  N  N53  1  0.43788624  0.42641746  0.08077853  1
  N  N54  1  0.23841845  0.54841378  0.82090900  1
  N  N55  1  0.13933417  0.41607557  0.59514695  1
  N  N56  1  0.89198617  0.53178458  0.38987828  1
  N  N57  1  0.77765716  0.42868515  0.09862718  1
  N  N58  1  0.53317637  0.55340797  0.88455797  1
  N  N59  1  0.44249399  0.43283067  0.57741722  1
  N  N60  1  0.22170063  0.87130956  0.35995385  1
  N  N61  1  0.12140243  0.74008264  0.06681662  1
  N  N62  1  0.88588229  0.87622842  0.84161515  1
  N  N63  1  0.76600041  0.78090027  0.62365196  1
  N  N64  1  0.54476708  0.85625986  0.38636718  1
  N  N65  1  0.45497332  0.75607533  0.13034363  1
  N  N66  1  0.23138364  0.85549411  0.83855158  1
  N  N67  1  0.09959038  0.74839595  0.57986827  1
  N  N68  1  0.91006951  0.86103089  0.32347657  1
  N  N69  1  0.76758498  0.74882921  0.11973105  1
  N  N70  1  0.56223905  0.85164751  0.87958183  1
  N  N71  1  0.47258736  0.74332721  0.63236892  1
