# generated using pymatgen
data_Sc13Al23N36
_symmetry_space_group_name_H-M   'P 1'
_cell_length_a   10.12927223
_cell_length_b   10.17326180
_cell_length_c   9.81253980
_cell_angle_alpha   90.40743372
_cell_angle_beta   89.98583006
_cell_angle_gamma   59.76961531
_symmetry_Int_Tables_number   1
_chemical_formula_structural   Sc13Al23N36
_chemical_formula_sum   'Sc13 Al23 N36'
_cell_volume   873.61961773
_cell_formula_units_Z   1
loop_
 _symmetry_equiv_pos_site_id
 _symmetry_equiv_pos_as_xyz
  1  'x, y, z'
loop_
 _atom_site_type_symbol
 _atom_site_label
 _atom_site_symmetry_multiplicity
 _atom_site_fract_x
 _atom_site_fract_y
 _atom_site_fract_z
 _atom_site_occupancy
  Al  Al0  1  0.11699903  0.09012274  0.39270919  1
  Al  Al1  1  0.21207478  0.20614971  0.12981259  1
  Al  Al2  1  0.77214914  0.09981185  0.81677403  1
  Al  Al3  1  0.88712598  0.20649854  0.58151806  1
  Al  Al4  1  0.54610326  0.22053165  0.13962994  1
  Al  Al5  1  0.23361770  0.20597684  0.63485041  1
  Al  Al6  1  0.87868215  0.20793796  0.06603251  1
  Al  Al7  1  0.54789577  0.21637926  0.62326739  1
  Al  Al8  1  0.22610762  0.54041320  0.13416452  1
  Al  Al9  1  0.43681430  0.44184037  0.38004741  1
  Al  Al10  1  0.54800547  0.54224067  0.09396944  1
  Al  Al11  1  0.23045358  0.53694751  0.62995452  1
  Al  Al12  1  0.88353839  0.54316712  0.06825630  1
  Al  Al13  1  0.44212652  0.43353110  0.88435982  1
  Al  Al14  1  0.55672934  0.53402826  0.59888275  1
  Al  Al15  1  0.11118380  0.75896699  0.38307521  1
  Al  Al16  1  0.76901816  0.76792363  0.82380886  1
  Al  Al17  1  0.89042656  0.87008171  0.63137335  1
  Al  Al18  1  0.44460480  0.75556773  0.32553120  1
  Al  Al19  1  0.55782026  0.85969737  0.07515054  1
  Al  Al20  1  0.12326429  0.75295450  0.87580627  1
  Al  Al21  1  0.44955841  0.75410912  0.82889400  1
  Al  Al22  1  0.55552253  0.86874109  0.57822508  1
  Sc  Sc23  1  0.44098967  0.09030371  0.35854743  1
  Sc  Sc24  1  0.11082183  0.09285408  0.85412994  1
  Sc  Sc25  1  0.77916903  0.09500701  0.35184451  1
  Sc  Sc26  1  0.45762320  0.09292792  0.86940714  1
  Sc  Sc27  1  0.12319789  0.42451190  0.36573878  1
  Sc  Sc28  1  0.76489278  0.42996721  0.84870476  1
  Sc  Sc29  1  0.89193249  0.53419265  0.60502555  1
  Sc  Sc30  1  0.12346226  0.43422823  0.87086587  1
  Sc  Sc31  1  0.78000485  0.42193661  0.32718015  1
  Sc  Sc32  1  0.21502877  0.87749109  0.11863500  1
  Sc  Sc33  1  0.22995538  0.86109987  0.60770117  1
  Sc  Sc34  1  0.77878927  0.75567087  0.34098619  1
  Sc  Sc35  1  0.88251650  0.87549357  0.09638934  1
  N  N36  1  0.20992794  0.19200028  0.32401580  1
  N  N37  1  0.09722638  0.11370428  0.07805975  1
  N  N38  1  0.87457018  0.19484124  0.87046156  1
  N  N39  1  0.78059313  0.09077813  0.60890561  1
  N  N40  1  0.53304236  0.23404717  0.33578616  1
  N  N41  1  0.44681359  0.09226371  0.10184551  1
  N  N42  1  0.23023123  0.20663494  0.82817429  1
  N  N43  1  0.11210689  0.10814016  0.60034692  1
  N  N44  1  0.90663162  0.19591111  0.38753823  1
  N  N45  1  0.76293194  0.11926808  0.12235544  1
  N  N46  1  0.55742437  0.22713771  0.81983004  1
  N  N47  1  0.44996419  0.09230267  0.59685486  1
  N  N48  1  0.23085817  0.55536329  0.32583079  1
  N  N49  1  0.11082025  0.42989382  0.09991924  1
  N  N50  1  0.88281513  0.55754173  0.86113683  1
  N  N51  1  0.76636101  0.41511475  0.62392493  1
  N  N52  1  0.54112672  0.54458969  0.34364060  1
  N  N53  1  0.43770601  0.42636646  0.08004003  1
  N  N54  1  0.23836295  0.54839291  0.82072437  1
  N  N55  1  0.13950300  0.41601181  0.59516530  1
  N  N56  1  0.89211589  0.53190128  0.38994618  1
  N  N57  1  0.77831629  0.42844644  0.09796663  1
  N  N58  1  0.53351336  0.55233627  0.87905296  1
  N  N59  1  0.44284503  0.43366028  0.57702706  1
  N  N60  1  0.22181335  0.87118448  0.35992086  1
  N  N61  1  0.12129972  0.73996601  0.06686323  1
  N  N62  1  0.88580527  0.87629201  0.84155768  1
  N  N63  1  0.76596963  0.78092222  0.62338776  1
  N  N64  1  0.54467392  0.85605175  0.38606012  1
  N  N65  1  0.45407456  0.75762657  0.12806493  1
  N  N66  1  0.23106751  0.85569287  0.83872131  1
  N  N67  1  0.09952907  0.74850617  0.57991582  1
  N  N68  1  0.91001507  0.86112873  0.32357892  1
  N  N69  1  0.76756385  0.74894261  0.11968323  1
  N  N70  1  0.56242445  0.85192410  0.87919408  1
  N  N71  1  0.47203655  0.74401096  0.63215137  1
