# generated using pymatgen
data_Sc13Al23N36
_symmetry_space_group_name_H-M   'P 1'
_cell_length_a   10.03871544
_cell_length_b   10.08677977
_cell_length_c   10.00806987
_cell_angle_alpha   90.79190785
_cell_angle_beta   90.24160407
_cell_angle_gamma   59.81531480
_symmetry_Int_Tables_number   1
_chemical_formula_structural   Sc13Al23N36
_chemical_formula_sum   'Sc13 Al23 N36'
_cell_volume   875.90448727
_cell_formula_units_Z   1
loop_
 _symmetry_equiv_pos_site_id
 _symmetry_equiv_pos_as_xyz
  1  'x, y, z'
loop_
 _atom_site_type_symbol
 _atom_site_label
 _atom_site_symmetry_multiplicity
 _atom_site_fract_x
 _atom_site_fract_y
 _atom_site_fract_z
 _atom_site_occupancy
  Al  Al0  1  0.11047591  0.09496731  0.39890297  1
  Al  Al1  1  0.22084787  0.20034032  0.14063840  1
  Al  Al2  1  0.77018215  0.10677001  0.89110579  1
  Al  Al3  1  0.87954363  0.20679060  0.64326208  1
  Al  Al4  1  0.55001201  0.21866726  0.13736896  1
  Al  Al5  1  0.22594766  0.21126944  0.64065281  1
  Al  Al6  1  0.89068914  0.20719793  0.13978983  1
  Al  Al7  1  0.55700654  0.21134110  0.64213976  1
  Al  Al8  1  0.23130377  0.53940844  0.14407479  1
  Al  Al9  1  0.43896624  0.43840084  0.39311435  1
  Al  Al10  1  0.54794770  0.54007769  0.14572512  1
  Al  Al11  1  0.22838521  0.53461252  0.63959933  1
  Al  Al12  1  0.88713654  0.53219732  0.15679576  1
  Al  Al13  1  0.44297606  0.43493117  0.89044603  1
  Al  Al14  1  0.55501086  0.52911691  0.64346856  1
  Al  Al15  1  0.11165001  0.75751404  0.39440093  1
  Al  Al16  1  0.77021976  0.76687559  0.82254169  1
  Al  Al17  1  0.88689299  0.88058736  0.64722137  1
  Al  Al18  1  0.43977099  0.75855468  0.35669151  1
  Al  Al19  1  0.56113702  0.85456484  0.07837880  1
  Al  Al20  1  0.12376438  0.75215377  0.88384327  1
  Al  Al21  1  0.44743628  0.75516505  0.83145476  1
  Al  Al22  1  0.55243456  0.87317287  0.58565949  1
  Sc  Sc23  1  0.44433093  0.09453919  0.37234510  1
  Sc  Sc24  1  0.10882763  0.09451138  0.87324100  1
  Sc  Sc25  1  0.78223464  0.09187661  0.37887729  1
  Sc  Sc26  1  0.45194018  0.09416738  0.87408109  1
  Sc  Sc27  1  0.12906906  0.42069260  0.37210487  1
  Sc  Sc28  1  0.77052850  0.43593720  0.89119716  1
  Sc  Sc29  1  0.89322343  0.53339341  0.61646035  1
  Sc  Sc30  1  0.11013423  0.44126134  0.89496845  1
  Sc  Sc31  1  0.76856941  0.41929989  0.37898411  1
  Sc  Sc32  1  0.21759258  0.87431664  0.13818557  1
  Sc  Sc33  1  0.22179964  0.86862982  0.61636144  1
  Sc  Sc34  1  0.77699092  0.76510649  0.35839361  1
  Sc  Sc35  1  0.88667555  0.86625003  0.10766257  1
  N  N36  1  0.21651191  0.18597717  0.32957867  1
  N  N37  1  0.10099645  0.11199506  0.08350447  1
  N  N38  1  0.87493388  0.20305893  0.83153471  1
  N  N39  1  0.77861381  0.09194497  0.59404576  1
  N  N40  1  0.54371907  0.23282756  0.32763320  1
  N  N41  1  0.44785248  0.09207141  0.10121186  1
  N  N42  1  0.22086802  0.21473265  0.82998303  1
  N  N43  1  0.09903725  0.11826110  0.59370082  1
  N  N44  1  0.91248105  0.18790339  0.32809349  1
  N  N45  1  0.76581832  0.11726156  0.08480170  1
  N  N46  1  0.56133124  0.22252969  0.83313946  1
  N  N47  1  0.44731510  0.09660651  0.60607043  1
  N  N48  1  0.23402060  0.55439143  0.33199656  1
  N  N49  1  0.11337315  0.42676090  0.11684765  1
  N  N50  1  0.88295353  0.55442469  0.83164909  1
  N  N51  1  0.76519821  0.41503175  0.59461904  1
  N  N52  1  0.53257760  0.54740346  0.33714594  1
  N  N53  1  0.44257471  0.43033631  0.08185647  1
  N  N54  1  0.23487462  0.54455945  0.82785012  1
  N  N55  1  0.13743343  0.41680171  0.58759310  1
  N  N56  1  0.89269320  0.53036636  0.35830422  1
  N  N57  1  0.77427442  0.42803477  0.11317467  1
  N  N58  1  0.54037316  0.54173867  0.83620546  1
  N  N59  1  0.44437996  0.42793892  0.58414691  1
  N  N60  1  0.21973656  0.87194172  0.37135370  1
  N  N61  1  0.12564215  0.73658961  0.07144898  1
  N  N62  1  0.88562358  0.87799811  0.84918768  1
  N  N63  1  0.76623662  0.78487403  0.62201350  1
  N  N64  1  0.54312447  0.86112050  0.39593208  1
  N  N65  1  0.45388130  0.75509254  0.12708008  1
  N  N66  1  0.22909239  0.85647843  0.83849190  1
  N  N67  1  0.09612634  0.74894549  0.58636782  1
  N  N68  1  0.91366254  0.86350729  0.32314131  1
  N  N69  1  0.76739372  0.74629222  0.13556392  1
  N  N70  1  0.56509951  0.84864411  0.88346716  1
  N  N71  1  0.46584191  0.74853804  0.62760283  1
