# generated using pymatgen
data_Sc13Al23N36
_symmetry_space_group_name_H-M   'P 1'
_cell_length_a   9.94970782
_cell_length_b   9.98202272
_cell_length_c   10.15517641
_cell_angle_alpha   89.84410385
_cell_angle_beta   89.80877715
_cell_angle_gamma   59.99053950
_symmetry_Int_Tables_number   1
_chemical_formula_structural   Sc13Al23N36
_chemical_formula_sum   'Sc13 Al23 N36'
_cell_volume   873.37918427
_cell_formula_units_Z   1
loop_
 _symmetry_equiv_pos_site_id
 _symmetry_equiv_pos_as_xyz
  1  'x, y, z'
loop_
 _atom_site_type_symbol
 _atom_site_label
 _atom_site_symmetry_multiplicity
 _atom_site_fract_x
 _atom_site_fract_y
 _atom_site_fract_z
 _atom_site_occupancy
  Al  Al0  1  0.10997245  0.09514571  0.30828274  1
  Al  Al1  1  0.22066675  0.20870988  0.06227353  1
  Al  Al2  1  0.77505210  0.09528132  0.80373025  1
  Al  Al3  1  0.88863126  0.20657013  0.56141266  1
  Al  Al4  1  0.55603656  0.21555963  0.05875635  1
  Al  Al5  1  0.22447860  0.20355255  0.55687516  1
  Al  Al6  1  0.88300367  0.20799765  0.05999674  1
  Al  Al7  1  0.54727432  0.21581352  0.56535249  1
  Al  Al8  1  0.22858755  0.53756521  0.06044400  1
  Al  Al9  1  0.43886580  0.43883466  0.31365030  1
  Al  Al10  1  0.55102119  0.53994455  0.06003764  1
  Al  Al11  1  0.22911311  0.53734041  0.56099775  1
  Al  Al12  1  0.88731241  0.54185103  0.04874185  1
  Al  Al13  1  0.44272730  0.43620752  0.81241311  1
  Al  Al14  1  0.55191532  0.53606845  0.56203529  1
  Al  Al15  1  0.11747404  0.75710280  0.31313813  1
  Al  Al16  1  0.77294896  0.76823458  0.80627452  1
  Al  Al17  1  0.88980522  0.87138115  0.56776378  1
  Al  Al18  1  0.44452019  0.75666565  0.31213315  1
  Al  Al19  1  0.56175557  0.85926179  0.05699099  1
  Al  Al20  1  0.11351821  0.75706155  0.80916170  1
  Al  Al21  1  0.44790663  0.75231618  0.81104699  1
  Al  Al22  1  0.55272371  0.87183278  0.56462156  1
  Sc  Sc23  1  0.44478464  0.09225856  0.31628295  1
  Sc  Sc24  1  0.10990792  0.09052419  0.81871647  1
  Sc  Sc25  1  0.77677582  0.09821763  0.33012312  1
  Sc  Sc26  1  0.45394276  0.08884688  0.82236764  1
  Sc  Sc27  1  0.11718326  0.42932106  0.31579888  1
  Sc  Sc28  1  0.76729939  0.42558299  0.82713443  1
  Sc  Sc29  1  0.88782704  0.53689307  0.57988123  1
  Sc  Sc30  1  0.12234735  0.42987725  0.81927744  1
  Sc  Sc31  1  0.77227939  0.42772215  0.30883346  1
  Sc  Sc32  1  0.22828172  0.86698522  0.07511504  1
  Sc  Sc33  1  0.22427172  0.86939770  0.56191623  1
  Sc  Sc34  1  0.77627316  0.75928269  0.32047865  1
  Sc  Sc35  1  0.88490549  0.87590413  0.06122389  1
  N  N36  1  0.21482093  0.19555266  0.36833662  1
  N  N37  1  0.09885245  0.11453835  0.11646199  1
  N  N38  1  0.88025723  0.18895884  0.87509185  1
  N  N39  1  0.77602742  0.09591495  0.60965980  1
  N  N40  1  0.53787404  0.23285043  0.37893367  1
  N  N41  1  0.45078377  0.09043163  0.09867559  1
  N  N42  1  0.22523332  0.20241720  0.87870850  1
  N  N43  1  0.10390486  0.11009486  0.61137214  1
  N  N44  1  0.90671985  0.19926158  0.37483081  1
  N  N45  1  0.76591207  0.11472428  0.12061979  1
  N  N46  1  0.56315457  0.22109332  0.86774470  1
  N  N47  1  0.44396673  0.09363274  0.60552816  1
  N  N48  1  0.23205732  0.55160903  0.37436688  1
  N  N49  1  0.11117445  0.43063458  0.09760586  1
  N  N50  1  0.88218467  0.55652766  0.85453482  1
  N  N51  1  0.76408691  0.41602577  0.61342157  1
  N  N52  1  0.53611328  0.54941631  0.37346150  1
  N  N53  1  0.44374130  0.42928967  0.12181102  1
  N  N54  1  0.23367209  0.55044085  0.87431476  1
  N  N55  1  0.13566868  0.41591010  0.60526755  1
  N  N56  1  0.88976096  0.53361882  0.37424660  1
  N  N57  1  0.77715584  0.42938111  0.08965440  1
  N  N58  1  0.53308385  0.54948133  0.87527833  1
  N  N59  1  0.44199539  0.43184346  0.62362973  1
  N  N60  1  0.22217152  0.87376326  0.34418995  1
  N  N61  1  0.11674795  0.74192252  0.12576856  1
  N  N62  1  0.88491899  0.87558895  0.85128946  1
  N  N63  1  0.76473682  0.78310641  0.61645902  1
  N  N64  1  0.54331043  0.86157839  0.37851418  1
  N  N65  1  0.46689948  0.74708060  0.12452582  1
  N  N66  1  0.23149176  0.85327096  0.85824436  1
  N  N67  1  0.10440838  0.74923852  0.62199897  1
  N  N68  1  0.90960374  0.86109238  0.37684495  1
  N  N69  1  0.77319254  0.75028378  0.10974757  1
  N  N70  1  0.56368879  0.84931166  0.86946495  1
  N  N71  1  0.46317112  0.74845440  0.62322579  1
