# generated using pymatgen
data_Sc13Al23N36
_symmetry_space_group_name_H-M   'P 1'
_cell_length_a   9.94386052
_cell_length_b   9.96863400
_cell_length_c   10.17788352
_cell_angle_alpha   89.99785161
_cell_angle_beta   90.03392530
_cell_angle_gamma   59.96672137
_symmetry_Int_Tables_number   1
_chemical_formula_structural   Sc13Al23N36
_chemical_formula_sum   'Sc13 Al23 N36'
_cell_volume   873.43972857
_cell_formula_units_Z   1
loop_
 _symmetry_equiv_pos_site_id
 _symmetry_equiv_pos_as_xyz
  1  'x, y, z'
loop_
 _atom_site_type_symbol
 _atom_site_label
 _atom_site_symmetry_multiplicity
 _atom_site_fract_x
 _atom_site_fract_y
 _atom_site_fract_z
 _atom_site_occupancy
  Al  Al0  1  0.10923702  0.09516546  0.41494442  1
  Al  Al1  1  0.22087081  0.20169050  0.16104533  1
  Al  Al2  1  0.77047685  0.10356427  0.90591402  1
  Al  Al3  1  0.88126115  0.20552907  0.65908192  1
  Al  Al4  1  0.54940043  0.21826552  0.15430603  1
  Al  Al5  1  0.22468593  0.20929279  0.65658132  1
  Al  Al6  1  0.88969089  0.20830830  0.15786534  1
  Al  Al7  1  0.55660267  0.21099907  0.65909020  1
  Al  Al8  1  0.23132956  0.53916454  0.15928854  1
  Al  Al9  1  0.43837202  0.44003389  0.40628661  1
  Al  Al10  1  0.54889559  0.54119294  0.15644072  1
  Al  Al11  1  0.22760112  0.53502319  0.65542143  1
  Al  Al12  1  0.88475937  0.53768169  0.16254355  1
  Al  Al13  1  0.44283787  0.43469224  0.90399185  1
  Al  Al14  1  0.55326182  0.53572124  0.65787392  1
  Al  Al15  1  0.11113557  0.75849211  0.41264448  1
  Al  Al16  1  0.77242728  0.75841096  0.90863508  1
  Al  Al17  1  0.88334300  0.87521579  0.66801852  1
  Al  Al18  1  0.44604314  0.75629083  0.41039592  1
  Al  Al19  1  0.55293689  0.86427233  0.15211371  1
  Al  Al20  1  0.12283316  0.75286838  0.90051525  1
  Al  Al21  1  0.44581526  0.75288609  0.90356754  1
  Al  Al22  1  0.56000749  0.86765394  0.66188130  1
  Sc  Sc23  1  0.44405888  0.09177911  0.40078038  1
  Sc  Sc24  1  0.11063289  0.08990725  0.89523398  1
  Sc  Sc25  1  0.78044110  0.09251728  0.40092947  1
  Sc  Sc26  1  0.45216421  0.09097461  0.89755610  1
  Sc  Sc27  1  0.12194982  0.42541182  0.38947601  1
  Sc  Sc28  1  0.76960333  0.43014581  0.90648504  1
  Sc  Sc29  1  0.89039721  0.53938996  0.64850850  1
  Sc  Sc30  1  0.11531595  0.43479884  0.91283973  1
  Sc  Sc31  1  0.76754713  0.42509601  0.39552169  1
  Sc  Sc32  1  0.22617714  0.86886932  0.16464425  1
  Sc  Sc33  1  0.22555283  0.86663831  0.63712948  1
  Sc  Sc34  1  0.77423590  0.76833145  0.39873899  1
  Sc  Sc35  1  0.89053530  0.87096820  0.13062727  1
  N  N36  1  0.21596411  0.18899215  0.34650484  1
  N  N37  1  0.10354437  0.10755942  0.10327836  1
  N  N38  1  0.87804390  0.19857530  0.84424416  1
  N  N39  1  0.77789695  0.09108977  0.61198184  1
  N  N40  1  0.54237231  0.23146508  0.34223034  1
  N  N41  1  0.44551633  0.09373040  0.11346845  1
  N  N42  1  0.22183507  0.21046108  0.84224599  1
  N  N43  1  0.09903323  0.11636374  0.60568801  1
  N  N44  1  0.90880749  0.19147163  0.34361898  1
  N  N45  1  0.76484401  0.11904127  0.09728390  1
  N  N46  1  0.56009166  0.22183407  0.84688463  1
  N  N47  1  0.44832882  0.09140768  0.61879549  1
  N  N48  1  0.23200963  0.55577471  0.34496377  1
  N  N49  1  0.11452043  0.42726680  0.12880739  1
  N  N50  1  0.88410602  0.55204715  0.85509535  1
  N  N51  1  0.76663259  0.41749126  0.60932237  1
  N  N52  1  0.52947754  0.55405192  0.34216037  1
  N  N53  1  0.44264859  0.43046698  0.09402479  1
  N  N54  1  0.23381360  0.54461529  0.84169733  1
  N  N55  1  0.13332794  0.41837487  0.60232569  1
  N  N56  1  0.88645212  0.53927569  0.35179012  1
  N  N57  1  0.77408088  0.42827325  0.12264376  1
  N  N58  1  0.53805450  0.54615204  0.84468395  1
  N  N59  1  0.44432406  0.42965271  0.59627404  1
  N  N60  1  0.22125837  0.87210921  0.38574697  1
  N  N61  1  0.12861967  0.73992784  0.08640844  1
  N  N62  1  0.88480592  0.87436607  0.86572286  1
  N  N63  1  0.76845597  0.78289996  0.60774189  1
  N  N64  1  0.54220594  0.86112927  0.33770221  1
  N  N65  1  0.45724229  0.75039427  0.09160009  1
  N  N66  1  0.23333322  0.85348011  0.84918132  1
  N  N67  1  0.09537377  0.74996920  0.60161661  1
  N  N68  1  0.91064889  0.86299576  0.33799840  1
  N  N69  1  0.76782535  0.74926544  0.10019824  1
  N  N70  1  0.56243699  0.85081331  0.84942973  1
  N  N71  1  0.47165804  0.74648345  0.59637486  1
