# generated using pymatgen
data_Sc13Al23N36
_symmetry_space_group_name_H-M   'P 1'
_cell_length_a   10.06543154
_cell_length_b   10.10618476
_cell_length_c   10.01483468
_cell_angle_alpha   90.18488120
_cell_angle_beta   90.15006669
_cell_angle_gamma   59.87088352
_symmetry_Int_Tables_number   1
_chemical_formula_structural   Sc13Al23N36
_chemical_formula_sum   'Sc13 Al23 N36'
_cell_volume   881.09955462
_cell_formula_units_Z   1
loop_
 _symmetry_equiv_pos_site_id
 _symmetry_equiv_pos_as_xyz
  1  'x, y, z'
loop_
 _atom_site_type_symbol
 _atom_site_label
 _atom_site_symmetry_multiplicity
 _atom_site_fract_x
 _atom_site_fract_y
 _atom_site_fract_z
 _atom_site_occupancy
  Al  Al0  1  0.11198847  0.08815740  0.35121470  1
  Al  Al1  1  0.21544849  0.20753515  0.13054268  1
  Al  Al2  1  0.77587201  0.09911610  0.81473196  1
  Al  Al3  1  0.89247454  0.20552752  0.57708036  1
  Al  Al4  1  0.54550507  0.22027250  0.14199972  1
  Al  Al5  1  0.23081511  0.20673194  0.64070268  1
  Al  Al6  1  0.87601286  0.20921282  0.06858853  1
  Al  Al7  1  0.54772880  0.21734441  0.62898956  1
  Al  Al8  1  0.22687432  0.53825180  0.13526557  1
  Al  Al9  1  0.43449978  0.44066964  0.38588677  1
  Al  Al10  1  0.55075474  0.54252290  0.07472495  1
  Al  Al11  1  0.23107757  0.53699112  0.63246062  1
  Al  Al12  1  0.88165452  0.54166495  0.06590221  1
  Al  Al13  1  0.44167557  0.43329809  0.88426771  1
  Al  Al14  1  0.55684277  0.53817458  0.57213468  1
  Al  Al15  1  0.11195575  0.75882357  0.38327769  1
  Al  Al16  1  0.76897149  0.76681461  0.82401984  1
  Al  Al17  1  0.89185519  0.86952363  0.63375602  1
  Al  Al18  1  0.44531725  0.75552206  0.32821389  1
  Al  Al19  1  0.55903406  0.85737133  0.07540236  1
  Al  Al20  1  0.12243698  0.75319694  0.87698040  1
  Al  Al21  1  0.45102105  0.75286297  0.82351771  1
  Al  Al22  1  0.55609728  0.86900080  0.57922773  1
  Sc  Sc23  1  0.43903332  0.09329487  0.36804322  1
  Sc  Sc24  1  0.11002577  0.09415659  0.85565983  1
  Sc  Sc25  1  0.77820585  0.09418995  0.35174932  1
  Sc  Sc26  1  0.45930209  0.09289638  0.87491566  1
  Sc  Sc27  1  0.12222034  0.42577865  0.37082490  1
  Sc  Sc28  1  0.76255755  0.42793421  0.83803127  1
  Sc  Sc29  1  0.89048636  0.53459437  0.60296739  1
  Sc  Sc30  1  0.12186532  0.43630045  0.87445821  1
  Sc  Sc31  1  0.77608710  0.42465915  0.32478723  1
  Sc  Sc32  1  0.22338163  0.86810513  0.10965398  1
  Sc  Sc33  1  0.22615600  0.86963922  0.60648729  1
  Sc  Sc34  1  0.77749005  0.75527913  0.33595788  1
  Sc  Sc35  1  0.88365608  0.87556682  0.09873786  1
  N  N36  1  0.21031419  0.19563135  0.32102549  1
  N  N37  1  0.09727910  0.11036393  0.09205689  1
  N  N38  1  0.87386460  0.19534785  0.87990535  1
  N  N39  1  0.78231688  0.09122473  0.61101309  1
  N  N40  1  0.53212810  0.23558594  0.33331794  1
  N  N41  1  0.44741049  0.09090519  0.10091973  1
  N  N42  1  0.23147369  0.20835193  0.83206623  1
  N  N43  1  0.10667786  0.11183260  0.61898979  1
  N  N44  1  0.90668068  0.19701017  0.38747702  1
  N  N45  1  0.76285153  0.11877870  0.12816751  1
  N  N46  1  0.55999376  0.22669233  0.82063078  1
  N  N47  1  0.44817968  0.09370454  0.59822975  1
  N  N48  1  0.23169082  0.55541126  0.32317923  1
  N  N49  1  0.11018016  0.42989391  0.09760123  1
  N  N50  1  0.88024302  0.55566636  0.86393303  1
  N  N51  1  0.76500406  0.41438387  0.62328020  1
  N  N52  1  0.54080934  0.55002409  0.37985814  1
  N  N53  1  0.43851443  0.42586037  0.07868260  1
  N  N54  1  0.23805500  0.54933805  0.81926045  1
  N  N55  1  0.13805292  0.41673641  0.59484603  1
  N  N56  1  0.88961944  0.53231236  0.39200138  1
  N  N57  1  0.77548234  0.42881028  0.10302836  1
  N  N58  1  0.53316616  0.55460712  0.88604724  1
  N  N59  1  0.44146190  0.43063798  0.57847876  1
  N  N60  1  0.22181662  0.87112712  0.35464319  1
  N  N61  1  0.12189905  0.73691760  0.06443552  1
  N  N62  1  0.88847870  0.87497943  0.84072905  1
  N  N63  1  0.76575498  0.78083540  0.62892157  1
  N  N64  1  0.54503491  0.85757169  0.39018609  1
  N  N65  1  0.46277712  0.74817368  0.13702696  1
  N  N66  1  0.23270380  0.85583411  0.84418956  1
  N  N67  1  0.10054434  0.74948797  0.57707732  1
  N  N68  1  0.91071681  0.85977377  0.32166744  1
  N  N69  1  0.76908164  0.74728527  0.12037246  1
  N  N70  1  0.56253346  0.85062880  0.88313846  1
  N  N71  1  0.47087740  0.74546640  0.63408629  1
