# generated using pymatgen
data_Sc13Al23N36
_symmetry_space_group_name_H-M   'P 1'
_cell_length_a   10.12219672
_cell_length_b   10.16519008
_cell_length_c   9.83462844
_cell_angle_alpha   90.38968997
_cell_angle_beta   90.01409683
_cell_angle_gamma   59.76440817
_symmetry_Int_Tables_number   1
_chemical_formula_structural   Sc13Al23N36
_chemical_formula_sum   'Sc13 Al23 N36'
_cell_volume   874.23858764
_cell_formula_units_Z   1
loop_
 _symmetry_equiv_pos_site_id
 _symmetry_equiv_pos_as_xyz
  1  'x, y, z'
loop_
 _atom_site_type_symbol
 _atom_site_label
 _atom_site_symmetry_multiplicity
 _atom_site_fract_x
 _atom_site_fract_y
 _atom_site_fract_z
 _atom_site_occupancy
  Al  Al0  1  0.11697608  0.09020802  0.39305824  1
  Al  Al1  1  0.21205947  0.20614141  0.12999242  1
  Al  Al2  1  0.77243095  0.09975927  0.81665966  1
  Al  Al3  1  0.88682026  0.20700423  0.58116991  1
  Al  Al4  1  0.54632487  0.22038585  0.13958096  1
  Al  Al5  1  0.23361555  0.20599203  0.63507011  1
  Al  Al6  1  0.87826784  0.20837282  0.06553074  1
  Al  Al7  1  0.54753880  0.21703572  0.62417591  1
  Al  Al8  1  0.22613816  0.54041998  0.13404387  1
  Al  Al9  1  0.43552145  0.44075107  0.38110046  1
  Al  Al10  1  0.54788308  0.54396645  0.08233689  1
  Al  Al11  1  0.23114361  0.53641397  0.63044605  1
  Al  Al12  1  0.88306261  0.54300017  0.06764718  1
  Al  Al13  1  0.44209318  0.43364629  0.88388125  1
  Al  Al14  1  0.55788344  0.53595390  0.57615067  1
  Al  Al15  1  0.11116391  0.75908015  0.38346993  1
  Al  Al16  1  0.76883675  0.76773033  0.82382559  1
  Al  Al17  1  0.89054735  0.87000379  0.63166263  1
  Al  Al18  1  0.44488002  0.75541180  0.32734761  1
  Al  Al19  1  0.55772370  0.85908577  0.07561113  1
  Al  Al20  1  0.12336713  0.75311278  0.87603318  1
  Al  Al21  1  0.45053990  0.75250950  0.82661883  1
  Al  Al22  1  0.55545678  0.86879508  0.57850056  1
  Sc  Sc23  1  0.44094772  0.09050255  0.35906842  1
  Sc  Sc24  1  0.11093265  0.09271704  0.85427890  1
  Sc  Sc25  1  0.77935287  0.09484080  0.35176281  1
  Sc  Sc26  1  0.45771355  0.09261229  0.86975212  1
  Sc  Sc27  1  0.12307146  0.42461639  0.36602272  1
  Sc  Sc28  1  0.76304019  0.43046489  0.84459957  1
  Sc  Sc29  1  0.89180787  0.53411077  0.60465961  1
  Sc  Sc30  1  0.12318459  0.43424059  0.87095021  1
  Sc  Sc31  1  0.78020264  0.42190286  0.32578653  1
  Sc  Sc32  1  0.21541317  0.87716668  0.11956463  1
  Sc  Sc33  1  0.23034347  0.86079375  0.60811275  1
  Sc  Sc34  1  0.77873452  0.75568530  0.34064874  1
  Sc  Sc35  1  0.88254675  0.87546115  0.09643021  1
  N  N36  1  0.20976581  0.19215101  0.32384720  1
  N  N37  1  0.09728551  0.11349689  0.07790984  1
  N  N38  1  0.87427374  0.19555405  0.87057240  1
  N  N39  1  0.78066597  0.09080156  0.60914366  1
  N  N40  1  0.53340187  0.23393013  0.33498241  1
  N  N41  1  0.44666831  0.09191461  0.10189319  1
  N  N42  1  0.23027234  0.20663320  0.82803873  1
  N  N43  1  0.11207254  0.10815461  0.60021557  1
  N  N44  1  0.90638801  0.19635833  0.38743635  1
  N  N45  1  0.76320043  0.11910780  0.12243155  1
  N  N46  1  0.55764808  0.22708079  0.82050817  1
  N  N47  1  0.44998639  0.09239614  0.59703865  1
  N  N48  1  0.23096230  0.55564751  0.32516064  1
  N  N49  1  0.11065752  0.42991566  0.09966172  1
  N  N50  1  0.88229688  0.55703286  0.86123409  1
  N  N51  1  0.76550238  0.41568178  0.62328602  1
  N  N52  1  0.54210549  0.54677761  0.36613558  1
  N  N53  1  0.43811184  0.42656357  0.08100921  1
  N  N54  1  0.23836638  0.54842652  0.82103372  1
  N  N55  1  0.13919405  0.41612022  0.59509739  1
  N  N56  1  0.89188768  0.53168496  0.38978988  1
  N  N57  1  0.77706124  0.42890395  0.09903595  1
  N  N58  1  0.53288313  0.55394240  0.88592036  1
  N  N59  1  0.44233181  0.43229799  0.57763783  1
  N  N60  1  0.22167067  0.87136852  0.35999833  1
  N  N61  1  0.12150729  0.74019069  0.06675266  1
  N  N62  1  0.88596039  0.87615974  0.84165425  1
  N  N63  1  0.76600660  0.78089584  0.62390691  1
  N  N64  1  0.54487095  0.85644331  0.38657632  1
  N  N65  1  0.45569697  0.75487285  0.13190692  1
  N  N66  1  0.23160116  0.85536017  0.83837033  1
  N  N67  1  0.09964957  0.74827091  0.57979369  1
  N  N68  1  0.91015124  0.86093422  0.32336154  1
  N  N69  1  0.76761918  0.74871917  0.11978440  1
  N  N70  1  0.56212486  0.85138883  0.87994148  1
  N  N71  1  0.47287147  0.74312647  0.63227971  1
