# generated using pymatgen
data_Sc13Al23N36
_symmetry_space_group_name_H-M   'P 1'
_cell_length_a   10.10103017
_cell_length_b   10.15484303
_cell_length_c   9.90888732
_cell_angle_alpha   90.45282072
_cell_angle_beta   89.88505335
_cell_angle_gamma   59.78300397
_symmetry_Int_Tables_number   1
_chemical_formula_structural   Sc13Al23N36
_chemical_formula_sum   'Sc13 Al23 N36'
_cell_volume   878.24693470
_cell_formula_units_Z   1
loop_
 _symmetry_equiv_pos_site_id
 _symmetry_equiv_pos_as_xyz
  1  'x, y, z'
loop_
 _atom_site_type_symbol
 _atom_site_label
 _atom_site_symmetry_multiplicity
 _atom_site_fract_x
 _atom_site_fract_y
 _atom_site_fract_z
 _atom_site_occupancy
  Al  Al0  1  0.11795820  0.08997974  0.39440868  1
  Al  Al1  1  0.21172066  0.20660637  0.13096831  1
  Al  Al2  1  0.77216074  0.09983153  0.81579608  1
  Al  Al3  1  0.88724012  0.20651396  0.58092079  1
  Al  Al4  1  0.54564359  0.22189694  0.13857926  1
  Al  Al5  1  0.23424917  0.20547946  0.63503631  1
  Al  Al6  1  0.87777655  0.20871319  0.06626922  1
  Al  Al7  1  0.54753793  0.21607049  0.62483932  1
  Al  Al8  1  0.22654523  0.54113322  0.13385814  1
  Al  Al9  1  0.43826261  0.44255206  0.38339038  1
  Al  Al10  1  0.54828543  0.53824001  0.12780559  1
  Al  Al11  1  0.23035754  0.53649998  0.63116773  1
  Al  Al12  1  0.88292295  0.54342644  0.06837250  1
  Al  Al13  1  0.44266377  0.43423167  0.88311575  1
  Al  Al14  1  0.55306846  0.53209615  0.63671140  1
  Al  Al15  1  0.11118293  0.75851927  0.38349533  1
  Al  Al16  1  0.76868587  0.76783599  0.82327191  1
  Al  Al17  1  0.89057021  0.86968630  0.63262920  1
  Al  Al18  1  0.44405268  0.75679628  0.32739184  1
  Al  Al19  1  0.55757853  0.85824178  0.07454050  1
  Al  Al20  1  0.12292992  0.75300674  0.87652351  1
  Al  Al21  1  0.44755794  0.75758980  0.82439585  1
  Al  Al22  1  0.55577110  0.86933959  0.57535016  1
  Sc  Sc23  1  0.44119321  0.09118089  0.35848490  1
  Sc  Sc24  1  0.11074980  0.09239370  0.85536249  1
  Sc  Sc25  1  0.77853632  0.09529785  0.35002796  1
  Sc  Sc26  1  0.45725096  0.09245512  0.87184852  1
  Sc  Sc27  1  0.12568060  0.42414994  0.36786768  1
  Sc  Sc28  1  0.76662386  0.42939310  0.85143153  1
  Sc  Sc29  1  0.89181382  0.53444683  0.60474230  1
  Sc  Sc30  1  0.12358328  0.43332839  0.87240791  1
  Sc  Sc31  1  0.78222452  0.42113557  0.33409100  1
  Sc  Sc32  1  0.21422946  0.87805468  0.12128488  1
  Sc  Sc33  1  0.22910302  0.86162606  0.60712794  1
  Sc  Sc34  1  0.78020288  0.75504026  0.33808861  1
  Sc  Sc35  1  0.88224543  0.87593805  0.09584125  1
  N  N36  1  0.20964046  0.19206464  0.32287538  1
  N  N37  1  0.09720487  0.11414274  0.07716473  1
  N  N38  1  0.87375262  0.19489635  0.87269049  1
  N  N39  1  0.78099552  0.09060060  0.61012518  1
  N  N40  1  0.53154955  0.23610727  0.33231217  1
  N  N41  1  0.44618605  0.09312726  0.10060922  1
  N  N42  1  0.23065573  0.20576923  0.82610006  1
  N  N43  1  0.11240292  0.10826836  0.59914370  1
  N  N44  1  0.90715318  0.19459817  0.38852444  1
  N  N45  1  0.76299212  0.11952735  0.12337280  1
  N  N46  1  0.55656849  0.22626472  0.81956007  1
  N  N47  1  0.45022439  0.09297301  0.59354109  1
  N  N48  1  0.23253107  0.55545578  0.32395070  1
  N  N49  1  0.11145926  0.42981036  0.09915665  1
  N  N50  1  0.88280080  0.55794940  0.86312177  1
  N  N51  1  0.76841124  0.41468302  0.62290864  1
  N  N52  1  0.54066334  0.54235014  0.32588820  1
  N  N53  1  0.44025123  0.42946113  0.07565110  1
  N  N54  1  0.23702255  0.54829124  0.82055233  1
  N  N55  1  0.14027085  0.41524317  0.59416320  1
  N  N56  1  0.89386223  0.53242644  0.39119206  1
  N  N57  1  0.77551341  0.42989456  0.09852460  1
  N  N58  1  0.53274584  0.54723976  0.83599088  1
  N  N59  1  0.44365930  0.43365276  0.57586866  1
  N  N60  1  0.22205281  0.87112949  0.36007274  1
  N  N61  1  0.12145459  0.74034304  0.06577739  1
  N  N62  1  0.88588212  0.87627688  0.84145671  1
  N  N63  1  0.76513832  0.78139764  0.62550172  1
  N  N64  1  0.54634232  0.85609669  0.38445239  1
  N  N65  1  0.45350294  0.75679142  0.12719748  1
  N  N66  1  0.23019249  0.85560474  0.83662198  1
  N  N67  1  0.09907985  0.74732322  0.57818490  1
  N  N68  1  0.91085487  0.86133620  0.32114200  1
  N  N69  1  0.76731419  0.74902029  0.11996370  1
  N  N70  1  0.56222071  0.85061559  0.88065820  1
  N  N71  1  0.46957481  0.74874029  0.62743517  1
