# generated using pymatgen
data_Sc13Al23N36
_symmetry_space_group_name_H-M   'P 1'
_cell_length_a   10.03415786
_cell_length_b   10.05452815
_cell_length_c   10.02252864
_cell_angle_alpha   90.64205162
_cell_angle_beta   90.47253510
_cell_angle_gamma   59.89938875
_symmetry_Int_Tables_number   1
_chemical_formula_structural   Sc13Al23N36
_chemical_formula_sum   'Sc13 Al23 N36'
_cell_volume   874.74223832
_cell_formula_units_Z   1
loop_
 _symmetry_equiv_pos_site_id
 _symmetry_equiv_pos_as_xyz
  1  'x, y, z'
loop_
 _atom_site_type_symbol
 _atom_site_label
 _atom_site_symmetry_multiplicity
 _atom_site_fract_x
 _atom_site_fract_y
 _atom_site_fract_z
 _atom_site_occupancy
  Al  Al0  1  0.11028149  0.09455685  0.39799706  1
  Al  Al1  1  0.22055272  0.20007285  0.14088808  1
  Al  Al2  1  0.77067847  0.10517042  0.88928262  1
  Al  Al3  1  0.87985020  0.20584466  0.64165319  1
  Al  Al4  1  0.54991995  0.21857258  0.13545227  1
  Al  Al5  1  0.22416457  0.21117281  0.63966098  1
  Al  Al6  1  0.89070093  0.20677447  0.13883682  1
  Al  Al7  1  0.55767725  0.21248048  0.63979894  1
  Al  Al8  1  0.23180157  0.53915396  0.14234079  1
  Al  Al9  1  0.43871952  0.44115156  0.38911212  1
  Al  Al10  1  0.54824625  0.54136846  0.13934111  1
  Al  Al11  1  0.22885008  0.53446321  0.63745612  1
  Al  Al12  1  0.88569651  0.53262454  0.15523066  1
  Al  Al13  1  0.44319656  0.43412222  0.88714829  1
  Al  Al14  1  0.55184296  0.53415231  0.64410187  1
  Al  Al15  1  0.11272473  0.75861610  0.39383465  1
  Al  Al16  1  0.77036817  0.76651109  0.81982940  1
  Al  Al17  1  0.88793840  0.87991943  0.64440135  1
  Al  Al18  1  0.44148142  0.75380606  0.39731514  1
  Al  Al19  1  0.56192123  0.86122909  0.08218975  1
  Al  Al20  1  0.12381670  0.75213293  0.88282405  1
  Al  Al21  1  0.44446750  0.75112521  0.88893464  1
  Al  Al22  1  0.55292651  0.87310024  0.58696355  1
  Sc  Sc23  1  0.44252989  0.09849214  0.37595000  1
  Sc  Sc24  1  0.10968947  0.09250144  0.87495678  1
  Sc  Sc25  1  0.78196636  0.09213742  0.37692831  1
  Sc  Sc26  1  0.45142007  0.09407486  0.86991197  1
  Sc  Sc27  1  0.12710541  0.42222088  0.37009361  1
  Sc  Sc28  1  0.77134430  0.43449469  0.88620901  1
  Sc  Sc29  1  0.89430905  0.53145430  0.61436939  1
  Sc  Sc30  1  0.11020940  0.44078036  0.89402199  1
  Sc  Sc31  1  0.76450038  0.42124086  0.37785806  1
  Sc  Sc32  1  0.22370842  0.87032570  0.14452403  1
  Sc  Sc33  1  0.22422486  0.86704119  0.62281582  1
  Sc  Sc34  1  0.77662044  0.76602195  0.35972925  1
  Sc  Sc35  1  0.88891537  0.86549557  0.10815693  1
  N  N36  1  0.21553345  0.18728140  0.32914944  1
  N  N37  1  0.10256615  0.10790699  0.08511232  1
  N  N38  1  0.87662332  0.20052984  0.82983982  1
  N  N39  1  0.77801213  0.09184356  0.59162517  1
  N  N40  1  0.54401312  0.23484210  0.32522132  1
  N  N41  1  0.44663752  0.09256645  0.09841263  1
  N  N42  1  0.21903919  0.21475647  0.82854865  1
  N  N43  1  0.09882341  0.11706039  0.59246358  1
  N  N44  1  0.91100992  0.19003466  0.32731855  1
  N  N45  1  0.76552261  0.11631442  0.08294825  1
  N  N46  1  0.56220306  0.22242564  0.83006677  1
  N  N47  1  0.44628144  0.09637793  0.60545363  1
  N  N48  1  0.23330078  0.55540971  0.32997951  1
  N  N49  1  0.11240514  0.42722634  0.11564886  1
  N  N50  1  0.88377269  0.55379857  0.82874792  1
  N  N51  1  0.76316144  0.41564741  0.59455166  1
  N  N52  1  0.52831182  0.55477026  0.32686967  1
  N  N53  1  0.44218192  0.42999362  0.07826007  1
  N  N54  1  0.23470325  0.54431405  0.82579437  1
  N  N55  1  0.13779838  0.41653261  0.58516165  1
  N  N56  1  0.89064240  0.53006586  0.35634632  1
  N  N57  1  0.77459107  0.42744089  0.10848813  1
  N  N58  1  0.53854577  0.54505612  0.83323175  1
  N  N59  1  0.44446142  0.42936298  0.58094927  1
  N  N60  1  0.22107484  0.87211107  0.36831091  1
  N  N61  1  0.12764141  0.73787131  0.07057335  1
  N  N62  1  0.88684549  0.87672799  0.84584183  1
  N  N63  1  0.76778364  0.78302078  0.61568177  1
  N  N64  1  0.54192888  0.86568897  0.38369324  1
  N  N65  1  0.45551982  0.74953171  0.08149431  1
  N  N66  1  0.23266057  0.85416412  0.83780653  1
  N  N67  1  0.09720609  0.74964241  0.58518740  1
  N  N68  1  0.91459883  0.86350052  0.32232674  1
  N  N69  1  0.76777501  0.74683772  0.13360444  1
  N  N70  1  0.56466603  0.85154072  0.87220026  1
  N  N71  1  0.46495656  0.74207724  0.58898241  1
