# generated using pymatgen
data_Sc13Al23N36
_symmetry_space_group_name_H-M   'P 1'
_cell_length_a   9.97435305
_cell_length_b   10.02296351
_cell_length_c   10.24113004
_cell_angle_alpha   89.85738845
_cell_angle_beta   90.29497404
_cell_angle_gamma   60.03144716
_symmetry_Int_Tables_number   1
_chemical_formula_structural   Sc13Al23N36
_chemical_formula_sum   'Sc13 Al23 N36'
_cell_volume   886.91860459
_cell_formula_units_Z   1
loop_
 _symmetry_equiv_pos_site_id
 _symmetry_equiv_pos_as_xyz
  1  'x, y, z'
loop_
 _atom_site_type_symbol
 _atom_site_label
 _atom_site_symmetry_multiplicity
 _atom_site_fract_x
 _atom_site_fract_y
 _atom_site_fract_z
 _atom_site_occupancy
  Al  Al0  1  0.10826983  0.09357307  0.31757948  1
  Al  Al1  1  0.22008289  0.20858047  0.07118378  1
  Al  Al2  1  0.77261715  0.10171898  0.81452720  1
  Al  Al3  1  0.88827919  0.20607184  0.56794292  1
  Al  Al4  1  0.55647057  0.20940448  0.06340779  1
  Al  Al5  1  0.22299844  0.20520862  0.56574370  1
  Al  Al6  1  0.88118504  0.21084819  0.06719319  1
  Al  Al7  1  0.55112158  0.20850982  0.56995752  1
  Al  Al8  1  0.23258880  0.53733630  0.12988831  1
  Al  Al9  1  0.43358888  0.44000026  0.38810402  1
  Al  Al10  1  0.55448095  0.54335427  0.06678729  1
  Al  Al11  1  0.23022226  0.53997592  0.63026045  1
  Al  Al12  1  0.88575630  0.54065095  0.05789589  1
  Al  Al13  1  0.43890555  0.43857998  0.88188671  1
  Al  Al14  1  0.55571582  0.54041367  0.56946801  1
  Al  Al15  1  0.11129890  0.75636955  0.37440790  1
  Al  Al16  1  0.76998259  0.76558400  0.81881360  1
  Al  Al17  1  0.89160867  0.87214703  0.63457767  1
  Al  Al18  1  0.44343729  0.75660113  0.32000860  1
  Al  Al19  1  0.55908862  0.86074898  0.06271621  1
  Al  Al20  1  0.12198134  0.75385732  0.87680311  1
  Al  Al21  1  0.44891877  0.75492013  0.81647154  1
  Al  Al22  1  0.55463186  0.87185111  0.57039877  1
  Sc  Sc23  1  0.44232373  0.09072320  0.32271390  1
  Sc  Sc24  1  0.10825373  0.09344758  0.82606501  1
  Sc  Sc25  1  0.77772788  0.09484385  0.32966300  1
  Sc  Sc26  1  0.45100867  0.09006806  0.82526195  1
  Sc  Sc27  1  0.11348138  0.42559285  0.32714149  1
  Sc  Sc28  1  0.76687672  0.42650681  0.83052103  1
  Sc  Sc29  1  0.88927619  0.53792448  0.58665969  1
  Sc  Sc30  1  0.11968912  0.43127408  0.83793222  1
  Sc  Sc31  1  0.77159123  0.42522081  0.31772811  1
  Sc  Sc32  1  0.22876036  0.87023252  0.08688509  1
  Sc  Sc33  1  0.22653362  0.87329842  0.57353153  1
  Sc  Sc34  1  0.77313974  0.75692309  0.32129132  1
  Sc  Sc35  1  0.88718556  0.87294333  0.09134799  1
  N  N36  1  0.21340267  0.19358714  0.37900551  1
  N  N37  1  0.09712393  0.11626052  0.12668275  1
  N  N38  1  0.87956427  0.19254202  0.88368610  1
  N  N39  1  0.77671012  0.09658152  0.62007480  1
  N  N40  1  0.54216484  0.22242361  0.38212890  1
  N  N41  1  0.45017578  0.08879712  0.10725170  1
  N  N42  1  0.22523400  0.20257915  0.88896398  1
  N  N43  1  0.10271029  0.11202588  0.62029793  1
  N  N44  1  0.90597404  0.19610572  0.38354511  1
  N  N45  1  0.76313848  0.11997759  0.12198525  1
  N  N46  1  0.56362859  0.21610834  0.87023990  1
  N  N47  1  0.44390466  0.09267013  0.61185419  1
  N  N48  1  0.23432266  0.55043500  0.31725921  1
  N  N49  1  0.11072527  0.43000327  0.10605942  1
  N  N50  1  0.88052703  0.55609185  0.86588399  1
  N  N51  1  0.76616416  0.41555779  0.62004152  1
  N  N52  1  0.53913009  0.55179659  0.38035937  1
  N  N53  1  0.44089417  0.42905669  0.07536603  1
  N  N54  1  0.23723305  0.55313945  0.81489903  1
  N  N55  1  0.13424428  0.41533248  0.61703669  1
  N  N56  1  0.88751149  0.53380652  0.38325706  1
  N  N57  1  0.77715555  0.42954065  0.10101766  1
  N  N58  1  0.53726000  0.55479525  0.88101335  1
  N  N59  1  0.43978045  0.43367721  0.58082258  1
  N  N60  1  0.22160072  0.87171081  0.35239582  1
  N  N61  1  0.12453436  0.73620826  0.06102251  1
  N  N62  1  0.89209952  0.87331072  0.83663038  1
  N  N63  1  0.76438164  0.78208861  0.62823971  1
  N  N64  1  0.54262638  0.86172661  0.38653912  1
  N  N65  1  0.46613220  0.74826383  0.13329552  1
  N  N66  1  0.23573586  0.85847391  0.86185560  1
  N  N67  1  0.09843088  0.75172664  0.56779846  1
  N  N68  1  0.91082277  0.85741614  0.30977814  1
  N  N69  1  0.76946990  0.74778993  0.11157583  1
  N  N70  1  0.56207384  0.85292453  0.87697728  1
  N  N71  1  0.46581249  0.74938086  0.63063931  1
