# generated using pymatgen
data_Sc13Al23N36
_symmetry_space_group_name_H-M   'P 1'
_cell_length_a   10.02742451
_cell_length_b   10.08497576
_cell_length_c   10.05987541
_cell_angle_alpha   90.61976695
_cell_angle_beta   90.03327754
_cell_angle_gamma   59.77121048
_symmetry_Int_Tables_number   1
_chemical_formula_structural   Sc13Al23N36
_chemical_formula_sum   'Sc13 Al23 N36'
_cell_volume   878.91998318
_cell_formula_units_Z   1
loop_
 _symmetry_equiv_pos_site_id
 _symmetry_equiv_pos_as_xyz
  1  'x, y, z'
loop_
 _atom_site_type_symbol
 _atom_site_label
 _atom_site_symmetry_multiplicity
 _atom_site_fract_x
 _atom_site_fract_y
 _atom_site_fract_z
 _atom_site_occupancy
  Al  Al0  1  0.10987853  0.09573612  0.39910937  1
  Al  Al1  1  0.21940556  0.20248743  0.14391219  1
  Al  Al2  1  0.77024045  0.10534947  0.89422190  1
  Al  Al3  1  0.88207892  0.20250451  0.64528455  1
  Al  Al4  1  0.54904817  0.21896149  0.14115606  1
  Al  Al5  1  0.22777579  0.20837065  0.64243706  1
  Al  Al6  1  0.88872619  0.21079125  0.14235128  1
  Al  Al7  1  0.55739454  0.21101268  0.64436286  1
  Al  Al8  1  0.22955938  0.53973308  0.14644086  1
  Al  Al9  1  0.43923314  0.43873468  0.39476939  1
  Al  Al10  1  0.55052584  0.53719033  0.14744752  1
  Al  Al11  1  0.22959914  0.53555155  0.64212462  1
  Al  Al12  1  0.88558214  0.53574230  0.11441682  1
  Al  Al13  1  0.44253457  0.43486733  0.89394958  1
  Al  Al14  1  0.55329549  0.53007776  0.64771277  1
  Al  Al15  1  0.11090562  0.75780737  0.39605891  1
  Al  Al16  1  0.76861173  0.76738808  0.83110373  1
  Al  Al17  1  0.88614044  0.88015356  0.65232053  1
  Al  Al18  1  0.44201171  0.76022005  0.33994753  1
  Al  Al19  1  0.55698039  0.85805258  0.08293443  1
  Al  Al20  1  0.12378622  0.75248014  0.88670270  1
  Al  Al21  1  0.44794924  0.75619860  0.82985705  1
  Al  Al22  1  0.55497731  0.87064948  0.58677489  1
  Sc  Sc23  1  0.44359059  0.09536361  0.37776499  1
  Sc  Sc24  1  0.11043216  0.09192233  0.87688523  1
  Sc  Sc25  1  0.78215024  0.09169671  0.38121167  1
  Sc  Sc26  1  0.45385211  0.09192893  0.87708882  1
  Sc  Sc27  1  0.12413466  0.42363460  0.37909965  1
  Sc  Sc28  1  0.76944753  0.42920192  0.88320114  1
  Sc  Sc29  1  0.89254496  0.53666470  0.61992031  1
  Sc  Sc30  1  0.11768064  0.43544086  0.88987263  1
  Sc  Sc31  1  0.76998436  0.42213369  0.38891653  1
  Sc  Sc32  1  0.21326108  0.87659177  0.13980781  1
  Sc  Sc33  1  0.22470830  0.86751733  0.61565258  1
  Sc  Sc34  1  0.77802795  0.75979978  0.35224171  1
  Sc  Sc35  1  0.88631909  0.86876239  0.10906160  1
  N  N36  1  0.21504402  0.18909499  0.33154065  1
  N  N37  1  0.09998114  0.11365160  0.08637102  1
  N  N38  1  0.87880537  0.19539114  0.83181003  1
  N  N39  1  0.77891919  0.09055660  0.59540764  1
  N  N40  1  0.54347811  0.23227834  0.33018781  1
  N  N41  1  0.44674042  0.09355668  0.10362712  1
  N  N42  1  0.22445595  0.20845184  0.83023705  1
  N  N43  1  0.10044718  0.11663352  0.59295242  1
  N  N44  1  0.91008242  0.19168766  0.32991430  1
  N  N45  1  0.76492088  0.11929720  0.08710932  1
  N  N46  1  0.56129830  0.22262721  0.83495627  1
  N  N47  1  0.44886811  0.09542182  0.60675805  1
  N  N48  1  0.23293507  0.55374947  0.33378601  1
  N  N49  1  0.11134983  0.42842488  0.11344603  1
  N  N50  1  0.88295876  0.55466970  0.85200504  1
  N  N51  1  0.76567903  0.41407546  0.60676705  1
  N  N52  1  0.53567381  0.54533298  0.33833039  1
  N  N53  1  0.44166484  0.43050483  0.08450561  1
  N  N54  1  0.23596923  0.54600608  0.82941765  1
  N  N55  1  0.13945293  0.41604032  0.59670189  1
  N  N56  1  0.89082570  0.53461138  0.39573346  1
  N  N57  1  0.77385632  0.42933353  0.10681195  1
  N  N58  1  0.53730814  0.54312739  0.84019453  1
  N  N59  1  0.44492859  0.42850365  0.58548188  1
  N  N60  1  0.21989462  0.87209032  0.37051462  1
  N  N61  1  0.12523406  0.73693760  0.07350557  1
  N  N62  1  0.88557801  0.87808287  0.85494686  1
  N  N63  1  0.76406660  0.78627668  0.63641448  1
  N  N64  1  0.54424306  0.85992173  0.39852220  1
  N  N65  1  0.45314468  0.75786003  0.14218394  1
  N  N66  1  0.22964625  0.85573452  0.84110524  1
  N  N67  1  0.09597695  0.74977645  0.58801272  1
  N  N68  1  0.91277935  0.86311832  0.32345466  1
  N  N69  1  0.76660126  0.74686862  0.13507771  1
  N  N70  1  0.56276438  0.84800834  0.89217069  1
  N  N71  1  0.46835950  0.74943825  0.63691434  1
