# generated using pymatgen
data_Sc13Al23N36
_symmetry_space_group_name_H-M   'P 1'
_cell_length_a   10.06429183
_cell_length_b   10.10488170
_cell_length_c   10.01953223
_cell_angle_alpha   90.21409226
_cell_angle_beta   90.14892927
_cell_angle_gamma   59.86639792
_symmetry_Int_Tables_number   1
_chemical_formula_structural   Sc13Al23N36
_chemical_formula_sum   'Sc13 Al23 N36'
_cell_volume   881.25805401
_cell_formula_units_Z   1
loop_
 _symmetry_equiv_pos_site_id
 _symmetry_equiv_pos_as_xyz
  1  'x, y, z'
loop_
 _atom_site_type_symbol
 _atom_site_label
 _atom_site_symmetry_multiplicity
 _atom_site_fract_x
 _atom_site_fract_y
 _atom_site_fract_z
 _atom_site_occupancy
  Al  Al0  1  0.11428895  0.08859807  0.36902896  1
  Al  Al1  1  0.21436612  0.20681677  0.13111498  1
  Al  Al2  1  0.77556314  0.09897480  0.81478106  1
  Al  Al3  1  0.89043656  0.20629732  0.57727720  1
  Al  Al4  1  0.54553560  0.22035323  0.14172287  1
  Al  Al5  1  0.23147183  0.20680516  0.63962216  1
  Al  Al6  1  0.87670965  0.20903910  0.06769617  1
  Al  Al7  1  0.54768097  0.21725151  0.62898330  1
  Al  Al8  1  0.22691257  0.53854632  0.13520250  1
  Al  Al9  1  0.43458891  0.44063567  0.38583661  1
  Al  Al10  1  0.55020111  0.54296975  0.07470046  1
  Al  Al11  1  0.23100333  0.53673486  0.63252485  1
  Al  Al12  1  0.88167047  0.54165901  0.06584792  1
  Al  Al13  1  0.44156851  0.43332643  0.88429699  1
  Al  Al14  1  0.55714797  0.53800719  0.57202052  1
  Al  Al15  1  0.11190988  0.75877126  0.38365000  1
  Al  Al16  1  0.76893501  0.76684619  0.82403638  1
  Al  Al17  1  0.89182184  0.86939272  0.63392531  1
  Al  Al18  1  0.44551508  0.75538010  0.32861777  1
  Al  Al19  1  0.55867234  0.85749697  0.07547536  1
  Al  Al20  1  0.12275675  0.75327264  0.87727400  1
  Al  Al21  1  0.45108355  0.75287692  0.82348926  1
  Al  Al22  1  0.55621179  0.86907508  0.57900451  1
  Sc  Sc23  1  0.43929932  0.09325840  0.36732014  1
  Sc  Sc24  1  0.11039549  0.09378828  0.85718881  1
  Sc  Sc25  1  0.77846776  0.09415546  0.35097121  1
  Sc  Sc26  1  0.45873111  0.09305395  0.87506550  1
  Sc  Sc27  1  0.12222275  0.42582161  0.37028885  1
  Sc  Sc28  1  0.76237649  0.42833565  0.83826183  1
  Sc  Sc29  1  0.89057588  0.53466117  0.60276396  1
  Sc  Sc30  1  0.12197731  0.43583266  0.87466473  1
  Sc  Sc31  1  0.77636060  0.42439920  0.32414657  1
  Sc  Sc32  1  0.22142232  0.87064005  0.11393629  1
  Sc  Sc33  1  0.22714994  0.86726313  0.60829444  1
  Sc  Sc34  1  0.77758948  0.75520910  0.33577242  1
  Sc  Sc35  1  0.88369598  0.87540391  0.09844343  1
  N  N36  1  0.20982190  0.19490856  0.32123832  1
  N  N37  1  0.09807495  0.11093313  0.08540518  1
  N  N38  1  0.87370877  0.19551947  0.87836263  1
  N  N39  1  0.78217107  0.09105739  0.61122039  1
  N  N40  1  0.53228694  0.23560698  0.33295278  1
  N  N41  1  0.44708705  0.09108878  0.10098219  1
  N  N42  1  0.23107842  0.20810040  0.82992051  1
  N  N43  1  0.10833037  0.11101152  0.61050061  1
  N  N44  1  0.90551940  0.19763836  0.38762447  1
  N  N45  1  0.76317770  0.11875259  0.12750721  1
  N  N46  1  0.55962881  0.22662093  0.82062916  1
  N  N47  1  0.44854561  0.09370486  0.59754290  1
  N  N48  1  0.23180332  0.55549486  0.32307087  1
  N  N49  1  0.11027996  0.42975903  0.09782289  1
  N  N50  1  0.88042722  0.55573151  0.86398762  1
  N  N51  1  0.76502951  0.41463044  0.62373734  1
  N  N52  1  0.54110973  0.54980802  0.37986330  1
  N  N53  1  0.43849322  0.42589839  0.07857339  1
  N  N54  1  0.23787342  0.54918465  0.81935819  1
  N  N55  1  0.13811572  0.41674150  0.59418255  1
  N  N56  1  0.88962915  0.53225683  0.39192100  1
  N  N57  1  0.77540698  0.42881928  0.10253524  1
  N  N58  1  0.53284242  0.55484561  0.88612421  1
  N  N59  1  0.44152505  0.43063429  0.57843487  1
  N  N60  1  0.22181375  0.87124393  0.35565110  1
  N  N61  1  0.12232077  0.73757326  0.06454292  1
  N  N62  1  0.88841221  0.87493924  0.84086949  1
  N  N63  1  0.76572056  0.78083566  0.62904126  1
  N  N64  1  0.54515699  0.85759215  0.39012870  1
  N  N65  1  0.46190458  0.74874443  0.13722608  1
  N  N66  1  0.23233700  0.85580166  0.84130729  1
  N  N67  1  0.10030968  0.74902966  0.57708409  1
  N  N68  1  0.91090404  0.85959082  0.32142135  1
  N  N69  1  0.76886782  0.74731418  0.12033541  1
  N  N70  1  0.56238301  0.85074533  0.88322590  1
  N  N71  1  0.47163661  0.74506705  0.63405375  1
