# generated using pymatgen
data_Sc13Al23N36
_symmetry_space_group_name_H-M   'P 1'
_cell_length_a   10.12508570
_cell_length_b   10.16223111
_cell_length_c   9.79688792
_cell_angle_alpha   90.07156284
_cell_angle_beta   90.15052349
_cell_angle_gamma   59.95907651
_symmetry_Int_Tables_number   1
_chemical_formula_structural   Sc13Al23N36
_chemical_formula_sum   'Sc13 Al23 N36'
_cell_volume   872.62129632
_cell_formula_units_Z   1
loop_
 _symmetry_equiv_pos_site_id
 _symmetry_equiv_pos_as_xyz
  1  'x, y, z'
loop_
 _atom_site_type_symbol
 _atom_site_label
 _atom_site_symmetry_multiplicity
 _atom_site_fract_x
 _atom_site_fract_y
 _atom_site_fract_z
 _atom_site_occupancy
  Al  Al0  1  0.10711344  0.08984255  0.31106106  1
  Al  Al1  1  0.21851863  0.20857640  0.11291608  1
  Al  Al2  1  0.77474096  0.09978727  0.81305225  1
  Al  Al3  1  0.89637711  0.20522120  0.57372253  1
  Al  Al4  1  0.54766813  0.21974107  0.13909098  1
  Al  Al5  1  0.22911423  0.20612662  0.63974078  1
  Al  Al6  1  0.87332583  0.20968995  0.06994967  1
  Al  Al7  1  0.54655561  0.21813759  0.62248564  1
  Al  Al8  1  0.22716405  0.53837956  0.13089978  1
  Al  Al9  1  0.43394650  0.44084228  0.38137278  1
  Al  Al10  1  0.55293668  0.54086026  0.07464775  1
  Al  Al11  1  0.23141514  0.53826767  0.62837151  1
  Al  Al12  1  0.88260030  0.54233285  0.06542194  1
  Al  Al13  1  0.44286562  0.43259281  0.88005431  1
  Al  Al14  1  0.55440809  0.53934621  0.57061396  1
  Al  Al15  1  0.11268506  0.75925859  0.37777100  1
  Al  Al16  1  0.76953493  0.76712626  0.82113990  1
  Al  Al17  1  0.89174053  0.87076073  0.62710347  1
  Al  Al18  1  0.44367569  0.75649862  0.32464919  1
  Al  Al19  1  0.56240021  0.85592990  0.07321128  1
  Al  Al20  1  0.12135462  0.75309839  0.87149034  1
  Al  Al21  1  0.45055360  0.75231200  0.82202349  1
  Al  Al22  1  0.55358010  0.87062444  0.57784942  1
  Sc  Sc23  1  0.43801334  0.09134130  0.35350776  1
  Sc  Sc24  1  0.10710487  0.09336126  0.85296869  1
  Sc  Sc25  1  0.77851784  0.09433098  0.35415830  1
  Sc  Sc26  1  0.46162753  0.09007047  0.86615548  1
  Sc  Sc27  1  0.12146004  0.42341785  0.36039845  1
  Sc  Sc28  1  0.76346371  0.42715748  0.83662153  1
  Sc  Sc29  1  0.89103981  0.53491672  0.60197379  1
  Sc  Sc30  1  0.12031168  0.43802590  0.86581114  1
  Sc  Sc31  1  0.77551481  0.42479832  0.32867422  1
  Sc  Sc32  1  0.22950429  0.86070090  0.09488939  1
  Sc  Sc33  1  0.22467556  0.87575821  0.59388899  1
  Sc  Sc34  1  0.77727862  0.75672860  0.33962412  1
  Sc  Sc35  1  0.88387350  0.87602092  0.09683372  1
  N  N36  1  0.21106309  0.19557648  0.31339694  1
  N  N37  1  0.09413730  0.10665007  0.10260767  1
  N  N38  1  0.87307799  0.19556443  0.87802339  1
  N  N39  1  0.78249669  0.09231862  0.60583989  1
  N  N40  1  0.53285479  0.23442387  0.33614623  1
  N  N41  1  0.45322241  0.08764021  0.10087656  1
  N  N42  1  0.22981913  0.20638727  0.85339128  1
  N  N43  1  0.10461170  0.11500054  0.62847815  1
  N  N44  1  0.91153461  0.19414130  0.38060358  1
  N  N45  1  0.76178765  0.11819111  0.12560338  1
  N  N46  1  0.56064532  0.22620771  0.81899530  1
  N  N47  1  0.44530471  0.09320318  0.60396726  1
  N  N48  1  0.23063180  0.55472579  0.32320222  1
  N  N49  1  0.10886622  0.43272442  0.09628875  1
  N  N50  1  0.87958553  0.55619273  0.85789670  1
  N  N51  1  0.76483061  0.41510997  0.61502971  1
  N  N52  1  0.53847038  0.55067939  0.37362314  1
  N  N53  1  0.43970787  0.42612606  0.07884613  1
  N  N54  1  0.23897112  0.54954709  0.81920384  1
  N  N55  1  0.13796280  0.41594960  0.60077625  1
  N  N56  1  0.89125020  0.53217027  0.38709578  1
  N  N57  1  0.77672281  0.42848206  0.10082766  1
  N  N58  1  0.53481957  0.55249017  0.88051257  1
  N  N59  1  0.44095427  0.43185574  0.57801239  1
  N  N60  1  0.22108674  0.87256588  0.34943505  1
  N  N61  1  0.12021120  0.73674835  0.06379044  1
  N  N62  1  0.88757916  0.87569422  0.83790799  1
  N  N63  1  0.76579909  0.78189135  0.62030797  1
  N  N64  1  0.54347319  0.85835237  0.38524606  1
  N  N65  1  0.46527104  0.74708848  0.13047235  1
  N  N66  1  0.23429033  0.85542390  0.85106838  1
  N  N67  1  0.10234103  0.75157904  0.57742620  1
  N  N68  1  0.90958438  0.86107762  0.32418015  1
  N  N69  1  0.77094819  0.74739361  0.11746863  1
  N  N70  1  0.56387895  0.84946929  0.87706809  1
  N  N71  1  0.46677326  0.74736802  0.62889575  1
