# generated using pymatgen
data_Sc13Al23N36
_symmetry_space_group_name_H-M   'P 1'
_cell_length_a   10.14686204
_cell_length_b   10.18683868
_cell_length_c   9.76463638
_cell_angle_alpha   90.53762530
_cell_angle_beta   89.92171447
_cell_angle_gamma   59.78572165
_symmetry_Int_Tables_number   1
_chemical_formula_structural   Sc13Al23N36
_chemical_formula_sum   'Sc13 Al23 N36'
_cell_volume   872.13999515
_cell_formula_units_Z   1
loop_
 _symmetry_equiv_pos_site_id
 _symmetry_equiv_pos_as_xyz
  1  'x, y, z'
loop_
 _atom_site_type_symbol
 _atom_site_label
 _atom_site_symmetry_multiplicity
 _atom_site_fract_x
 _atom_site_fract_y
 _atom_site_fract_z
 _atom_site_occupancy
  Al  Al0  1  0.11723734  0.09014116  0.38948700  1
  Al  Al1  1  0.21338013  0.20523718  0.12746435  1
  Al  Al2  1  0.76726161  0.10055887  0.86282506  1
  Al  Al3  1  0.88531226  0.20460731  0.58185907  1
  Al  Al4  1  0.54571604  0.22060368  0.13015985  1
  Al  Al5  1  0.23320782  0.20645377  0.63084657  1
  Al  Al6  1  0.88103687  0.21168996  0.06610798  1
  Al  Al7  1  0.55597526  0.21196957  0.62657026  1
  Al  Al8  1  0.22847593  0.54002263  0.13194228  1
  Al  Al9  1  0.43918445  0.44024378  0.38034285  1
  Al  Al10  1  0.54913175  0.53812502  0.12664472  1
  Al  Al11  1  0.23054378  0.53613550  0.62685905  1
  Al  Al12  1  0.88272919  0.54222777  0.06993147  1
  Al  Al13  1  0.44237563  0.43471247  0.88011948  1
  Al  Al14  1  0.55204325  0.53267878  0.63066326  1
  Al  Al15  1  0.11099848  0.75885715  0.38109151  1
  Al  Al16  1  0.76852350  0.76773200  0.82268248  1
  Al  Al17  1  0.88607058  0.87794980  0.63453806  1
  Al  Al18  1  0.44257555  0.75820545  0.32666067  1
  Al  Al19  1  0.55799725  0.85827309  0.07357395  1
  Al  Al20  1  0.12433513  0.75149327  0.87283967  1
  Al  Al21  1  0.44779910  0.75634723  0.82355701  1
  Al  Al22  1  0.55488493  0.87038734  0.57508639  1
  Sc  Sc23  1  0.44257607  0.09257547  0.35566282  1
  Sc  Sc24  1  0.11044902  0.09304041  0.85025014  1
  Sc  Sc25  1  0.77930727  0.09350489  0.35456303  1
  Sc  Sc26  1  0.45572520  0.09063570  0.86418299  1
  Sc  Sc27  1  0.12350274  0.42464029  0.36239302  1
  Sc  Sc28  1  0.76572749  0.43100161  0.84788314  1
  Sc  Sc29  1  0.89264471  0.53629215  0.60404653  1
  Sc  Sc30  1  0.12300704  0.43381547  0.86911839  1
  Sc  Sc31  1  0.77777384  0.42392072  0.34347450  1
  Sc  Sc32  1  0.21677521  0.87631426  0.11331599  1
  Sc  Sc33  1  0.22858488  0.86194125  0.60371945  1
  Sc  Sc34  1  0.77938865  0.75763409  0.34077932  1
  Sc  Sc35  1  0.88651879  0.86898267  0.09475681  1
  N  N36  1  0.21186890  0.19132852  0.32284228  1
  N  N37  1  0.09763655  0.11385893  0.07625091  1
  N  N38  1  0.87579135  0.19824047  0.86462689  1
  N  N39  1  0.77809273  0.09123689  0.59401335  1
  N  N40  1  0.53722753  0.23428147  0.32500650  1
  N  N41  1  0.44559716  0.09253644  0.09758362  1
  N  N42  1  0.22899187  0.20677444  0.82531003  1
  N  N43  1  0.11099941  0.10842727  0.59725553  1
  N  N44  1  0.90777567  0.19386531  0.38046003  1
  N  N45  1  0.76119128  0.11574220  0.09189628  1
  N  N46  1  0.55809787  0.22432003  0.82351015  1
  N  N47  1  0.45072420  0.09348722  0.59552074  1
  N  N48  1  0.23267358  0.55426407  0.32495409  1
  N  N49  1  0.11163546  0.42945401  0.09910347  1
  N  N50  1  0.88285611  0.55757459  0.85942404  1
  N  N51  1  0.76708673  0.41682510  0.61244538  1
  N  N52  1  0.53782552  0.54466425  0.32701492  1
  N  N53  1  0.44062444  0.43025780  0.07470932  1
  N  N54  1  0.23771674  0.54723363  0.81893805  1
  N  N55  1  0.13917550  0.41600695  0.59264875  1
  N  N56  1  0.89327880  0.53430623  0.38716386  1
  N  N57  1  0.77484412  0.42995974  0.09816784  1
  N  N58  1  0.53317766  0.54648366  0.83297227  1
  N  N59  1  0.44485449  0.43044741  0.57526241  1
  N  N60  1  0.22157767  0.87114457  0.35756431  1
  N  N61  1  0.12375210  0.73804944  0.06469432  1
  N  N62  1  0.88481347  0.87687071  0.84307374  1
  N  N63  1  0.76520111  0.78336222  0.62181008  1
  N  N64  1  0.54495882  0.85842686  0.38086714  1
  N  N65  1  0.45471072  0.75572407  0.12356330  1
  N  N66  1  0.23116370  0.85544185  0.83865292  1
  N  N67  1  0.09698529  0.74979804  0.57937152  1
  N  N68  1  0.91145509  0.86191170  0.31737226  1
  N  N69  1  0.76723557  0.74826265  0.11810676  1
  N  N70  1  0.56247607  0.84963618  0.87685258  1
  N  N71  1  0.46816040  0.74916331  0.62339710  1
