# generated using pymatgen
data_Sc13Al23N36
_symmetry_space_group_name_H-M   'P 1'
_cell_length_a   10.03996682
_cell_length_b   10.05870180
_cell_length_c   9.98960862
_cell_angle_alpha   90.59909702
_cell_angle_beta   90.38152464
_cell_angle_gamma   59.86014398
_symmetry_Int_Tables_number   1
_chemical_formula_structural   Sc13Al23N36
_chemical_formula_sum   'Sc13 Al23 N36'
_cell_volume   872.39913816
_cell_formula_units_Z   1
loop_
 _symmetry_equiv_pos_site_id
 _symmetry_equiv_pos_as_xyz
  1  'x, y, z'
loop_
 _atom_site_type_symbol
 _atom_site_label
 _atom_site_symmetry_multiplicity
 _atom_site_fract_x
 _atom_site_fract_y
 _atom_site_fract_z
 _atom_site_occupancy
  Al  Al0  1  0.11029017  0.09454480  0.39896880  1
  Al  Al1  1  0.22016892  0.20023544  0.14220965  1
  Al  Al2  1  0.77017595  0.10577201  0.89037709  1
  Al  Al3  1  0.87942123  0.20631063  0.64258460  1
  Al  Al4  1  0.55016517  0.21883747  0.13720959  1
  Al  Al5  1  0.22504860  0.21081877  0.64091679  1
  Al  Al6  1  0.89086198  0.20669350  0.13967451  1
  Al  Al7  1  0.55749593  0.21213843  0.64095046  1
  Al  Al8  1  0.23178235  0.53922583  0.14337169  1
  Al  Al9  1  0.43873652  0.44064988  0.39031546  1
  Al  Al10  1  0.54799980  0.54179315  0.14040819  1
  Al  Al11  1  0.22889327  0.53454842  0.63861526  1
  Al  Al12  1  0.88612075  0.53318754  0.15630999  1
  Al  Al13  1  0.44328186  0.43436871  0.88805469  1
  Al  Al14  1  0.55212567  0.53431055  0.64410936  1
  Al  Al15  1  0.11241669  0.75849514  0.39453901  1
  Al  Al16  1  0.77266518  0.76533944  0.82474681  1
  Al  Al17  1  0.88790905  0.87983173  0.64499156  1
  Al  Al18  1  0.44253084  0.75497044  0.39705022  1
  Al  Al19  1  0.55599260  0.86311392  0.12419054  1
  Al  Al20  1  0.12421317  0.75219104  0.88361693  1
  Al  Al21  1  0.44590602  0.75331763  0.88717518  1
  Al  Al22  1  0.55211219  0.87250157  0.62293573  1
  Sc  Sc23  1  0.44340093  0.09565933  0.37938073  1
  Sc  Sc24  1  0.10959091  0.09292573  0.87463668  1
  Sc  Sc25  1  0.78180707  0.09219883  0.37770709  1
  Sc  Sc26  1  0.45241851  0.09226395  0.87593662  1
  Sc  Sc27  1  0.12782325  0.42171643  0.37128466  1
  Sc  Sc28  1  0.77075183  0.43510544  0.88794083  1
  Sc  Sc29  1  0.89459606  0.53107348  0.61535419  1
  Sc  Sc30  1  0.11093241  0.44028849  0.89472262  1
  Sc  Sc31  1  0.76492379  0.42141207  0.37777614  1
  Sc  Sc32  1  0.22327539  0.87054436  0.14435251  1
  Sc  Sc33  1  0.22375300  0.86714715  0.62224007  1
  Sc  Sc34  1  0.77653511  0.76638672  0.36729536  1
  Sc  Sc35  1  0.88824589  0.86540083  0.10919063  1
  N  N36  1  0.21583013  0.18708662  0.33082558  1
  N  N37  1  0.10262732  0.10811380  0.08572257  1
  N  N38  1  0.87597295  0.20136808  0.83139571  1
  N  N39  1  0.77807383  0.09203756  0.59316190  1
  N  N40  1  0.54337732  0.23389873  0.32718758  1
  N  N41  1  0.44721596  0.09145194  0.10015009  1
  N  N42  1  0.22075253  0.21395659  0.83027827  1
  N  N43  1  0.09886496  0.11726244  0.59430783  1
  N  N44  1  0.91124293  0.18970221  0.32859296  1
  N  N45  1  0.76540186  0.11664972  0.08453561  1
  N  N46  1  0.56155497  0.22202055  0.83174039  1
  N  N47  1  0.44684135  0.09519960  0.60420319  1
  N  N48  1  0.23334756  0.55518905  0.33139311  1
  N  N49  1  0.11311487  0.42684438  0.11671889  1
  N  N50  1  0.88405797  0.55344586  0.83038945  1
  N  N51  1  0.76332211  0.41582266  0.59509828  1
  N  N52  1  0.52808274  0.55436359  0.32844969  1
  N  N53  1  0.44237958  0.43017699  0.07972740  1
  N  N54  1  0.23482125  0.54444708  0.82732484  1
  N  N55  1  0.13808707  0.41638724  0.58712776  1
  N  N56  1  0.89113639  0.53040990  0.35752345  1
  N  N57  1  0.77468395  0.42758711  0.11067546  1
  N  N58  1  0.53832792  0.54556753  0.83381091  1
  N  N59  1  0.44451113  0.42936000  0.58251920  1
  N  N60  1  0.22059871  0.87205392  0.36954636  1
  N  N61  1  0.12747034  0.73807556  0.07186312  1
  N  N62  1  0.88641902  0.87693315  0.84704648  1
  N  N63  1  0.76949786  0.78232385  0.61165002  1
  N  N64  1  0.53998636  0.86375198  0.35258227  1
  N  N65  1  0.45680374  0.75069271  0.08009266  1
  N  N66  1  0.23243902  0.85444838  0.83817999  1
  N  N67  1  0.09730157  0.74947981  0.58654204  1
  N  N68  1  0.91381581  0.86332298  0.32382533  1
  N  N69  1  0.76936765  0.74576508  0.12963276  1
  N  N70  1  0.55961282  0.85322468  0.84051322  1
  N  N71  1  0.46613872  0.74383932  0.58719808  1
