# generated using pymatgen
data_Sc13Al23N36
_symmetry_space_group_name_H-M   'P 1'
_cell_length_a   10.02071658
_cell_length_b   10.07555281
_cell_length_c   10.09264474
_cell_angle_alpha   90.51713349
_cell_angle_beta   90.01419703
_cell_angle_gamma   59.78061682
_symmetry_Int_Tables_number   1
_chemical_formula_structural   Sc13Al23N36
_chemical_formula_sum   'Sc13 Al23 N36'
_cell_volume   880.47271486
_cell_formula_units_Z   1
loop_
 _symmetry_equiv_pos_site_id
 _symmetry_equiv_pos_as_xyz
  1  'x, y, z'
loop_
 _atom_site_type_symbol
 _atom_site_label
 _atom_site_symmetry_multiplicity
 _atom_site_fract_x
 _atom_site_fract_y
 _atom_site_fract_z
 _atom_site_occupancy
  Al  Al0  1  0.10935775  0.09674854  0.39423462  1
  Al  Al1  1  0.21770864  0.20577944  0.13965247  1
  Al  Al2  1  0.77042935  0.10469796  0.89069629  1
  Al  Al3  1  0.88346013  0.20020134  0.64108717  1
  Al  Al4  1  0.54909267  0.21950030  0.13723772  1
  Al  Al5  1  0.22876789  0.20638072  0.63773008  1
  Al  Al6  1  0.88748916  0.21401395  0.13805692  1
  Al  Al7  1  0.55748157  0.21078599  0.63982956  1
  Al  Al8  1  0.22871376  0.53922267  0.14147588  1
  Al  Al9  1  0.43948080  0.43830421  0.38974441  1
  Al  Al10  1  0.55248126  0.53711877  0.14324442  1
  Al  Al11  1  0.23011126  0.53635532  0.63826317  1
  Al  Al12  1  0.88306195  0.54094592  0.07673949  1
  Al  Al13  1  0.44248518  0.43539748  0.89071930  1
  Al  Al14  1  0.55173623  0.53081433  0.64320812  1
  Al  Al15  1  0.10977009  0.75722410  0.39214857  1
  Al  Al16  1  0.76787427  0.76789811  0.83380717  1
  Al  Al17  1  0.88556782  0.87914712  0.65069285  1
  Al  Al18  1  0.44319700  0.75961957  0.33712515  1
  Al  Al19  1  0.55439988  0.86011877  0.07846249  1
  Al  Al20  1  0.12464533  0.75286576  0.88386367  1
  Al  Al21  1  0.44688677  0.75713816  0.82404171  1
  Al  Al22  1  0.55771043  0.86935543  0.58264032  1
  Sc  Sc23  1  0.44416647  0.09486095  0.37310982  1
  Sc  Sc24  1  0.11141558  0.09030406  0.87516315  1
  Sc  Sc25  1  0.78252618  0.09030059  0.37704215  1
  Sc  Sc26  1  0.45467267  0.09141983  0.87349643  1
  Sc  Sc27  1  0.12183482  0.42506876  0.37777917  1
  Sc  Sc28  1  0.76696983  0.42487501  0.87467421  1
  Sc  Sc29  1  0.89158618  0.53856223  0.61714433  1
  Sc  Sc30  1  0.12398349  0.43111037  0.88154784  1
  Sc  Sc31  1  0.77130208  0.42242072  0.38820158  1
  Sc  Sc32  1  0.21330815  0.87713556  0.13911634  1
  Sc  Sc33  1  0.22376165  0.86817224  0.61082949  1
  Sc  Sc34  1  0.77901439  0.75413092  0.33755730  1
  Sc  Sc35  1  0.88731496  0.87037597  0.10363718  1
  N  N36  1  0.21431408  0.19118717  0.32731410  1
  N  N37  1  0.09997205  0.11399798  0.08357229  1
  N  N38  1  0.88124770  0.19118452  0.82648838  1
  N  N39  1  0.77913436  0.08922295  0.59092136  1
  N  N40  1  0.54412833  0.23167957  0.32575908  1
  N  N41  1  0.44608108  0.09462866  0.09937029  1
  N  N42  1  0.22641511  0.20441597  0.82448066  1
  N  N43  1  0.10019464  0.11700620  0.58674418  1
  N  N44  1  0.90888455  0.19303848  0.32557148  1
  N  N45  1  0.76467628  0.12058312  0.08274077  1
  N  N46  1  0.56147015  0.22322662  0.83024238  1
  N  N47  1  0.44964116  0.09501346  0.60092058  1
  N  N48  1  0.23239309  0.55302343  0.32924058  1
  N  N49  1  0.11181484  0.42929893  0.10376510  1
  N  N50  1  0.88230467  0.55498824  0.86914811  1
  N  N51  1  0.76591193  0.41394215  0.60780378  1
  N  N52  1  0.53775825  0.54415186  0.33442375  1
  N  N53  1  0.44190488  0.43113456  0.08060433  1
  N  N54  1  0.23676628  0.54717973  0.82494205  1
  N  N55  1  0.13902362  0.41638996  0.59769142  1
  N  N56  1  0.88984418  0.53657055  0.40446264  1
  N  N57  1  0.77310282  0.43064046  0.09723597  1
  N  N58  1  0.53519921  0.54435240  0.83457316  1
  N  N59  1  0.44475749  0.42850888  0.58014592  1
  N  N60  1  0.21984639  0.87199584  0.36711903  1
  N  N61  1  0.12659671  0.73777425  0.06984118  1
  N  N62  1  0.88625477  0.87800361  0.85341952  1
  N  N63  1  0.76341731  0.78506124  0.64230332  1
  N  N64  1  0.54768811  0.85837413  0.39462831  1
  N  N65  1  0.45318828  0.75856153  0.14033403  1
  N  N66  1  0.22920545  0.85583895  0.83468169  1
  N  N67  1  0.09486007  0.74979955  0.58356481  1
  N  N68  1  0.91175699  0.86138155  0.31835676  1
  N  N69  1  0.76645018  0.74835496  0.12430700  1
  N  N70  1  0.55988112  0.84889752  0.88888145  1
  N  N71  1  0.46802780  0.74989590  0.63147794  1
