# generated using pymatgen
data_Sc13Al23N36
_symmetry_space_group_name_H-M   'P 1'
_cell_length_a   10.05191548
_cell_length_b   10.09392465
_cell_length_c   9.98958961
_cell_angle_alpha   90.00133029
_cell_angle_beta   90.33219680
_cell_angle_gamma   60.05644806
_symmetry_Int_Tables_number   1
_chemical_formula_structural   Sc13Al23N36
_chemical_formula_sum   'Sc13 Al23 N36'
_cell_volume   878.26228144
_cell_formula_units_Z   1
loop_
 _symmetry_equiv_pos_site_id
 _symmetry_equiv_pos_as_xyz
  1  'x, y, z'
loop_
 _atom_site_type_symbol
 _atom_site_label
 _atom_site_symmetry_multiplicity
 _atom_site_fract_x
 _atom_site_fract_y
 _atom_site_fract_z
 _atom_site_occupancy
  Al  Al0  1  0.10891911  0.09287413  0.31490636  1
  Al  Al1  1  0.22043582  0.20931856  0.07299351  1
  Al  Al2  1  0.77324786  0.10132501  0.80806569  1
  Al  Al3  1  0.89192856  0.20576178  0.56710707  1
  Al  Al4  1  0.55245090  0.21230120  0.08811048  1
  Al  Al5  1  0.22199415  0.20436323  0.56606026  1
  Al  Al6  1  0.87891255  0.21010704  0.06779549  1
  Al  Al7  1  0.54876993  0.21349980  0.58038069  1
  Al  Al8  1  0.23002210  0.53810868  0.12607344  1
  Al  Al9  1  0.43365770  0.44090971  0.38366196  1
  Al  Al10  1  0.55318038  0.54281636  0.06679508  1
  Al  Al11  1  0.22975793  0.53993613  0.62670620  1
  Al  Al12  1  0.88496498  0.54145136  0.05733375  1
  Al  Al13  1  0.44122791  0.43493325  0.87433090  1
  Al  Al14  1  0.55511551  0.54041302  0.56801219  1
  Al  Al15  1  0.11317262  0.75724900  0.37240481  1
  Al  Al16  1  0.76990191  0.76650941  0.81739853  1
  Al  Al17  1  0.89245243  0.87044072  0.62778134  1
  Al  Al18  1  0.44383366  0.75611347  0.31925254  1
  Al  Al19  1  0.56018291  0.86002384  0.06400319  1
  Al  Al20  1  0.12145444  0.75406406  0.87168435  1
  Al  Al21  1  0.44993589  0.75409263  0.81639048  1
  Al  Al22  1  0.55460684  0.87008651  0.56958854  1
  Sc  Sc23  1  0.44237752  0.08966919  0.33182873  1
  Sc  Sc24  1  0.10836592  0.09453440  0.83281657  1
  Sc  Sc25  1  0.77929867  0.09287022  0.34167371  1
  Sc  Sc26  1  0.45301742  0.09054047  0.82614978  1
  Sc  Sc27  1  0.11514095  0.42694654  0.33424709  1
  Sc  Sc28  1  0.76533228  0.42523713  0.83201019  1
  Sc  Sc29  1  0.88912712  0.53649824  0.59122370  1
  Sc  Sc30  1  0.12072055  0.43134254  0.84049588  1
  Sc  Sc31  1  0.77253569  0.42511165  0.31948210  1
  Sc  Sc32  1  0.22845779  0.86801424  0.08915068  1
  Sc  Sc33  1  0.22598708  0.87317091  0.58156076  1
  Sc  Sc34  1  0.77575763  0.75640617  0.32626839  1
  Sc  Sc35  1  0.88590576  0.87489680  0.09071771  1
  N  N36  1  0.21173793  0.19370954  0.37409211  1
  N  N37  1  0.09741331  0.11459762  0.11865646  1
  N  N38  1  0.87794780  0.19153811  0.88004730  1
  N  N39  1  0.78187870  0.09270013  0.60771888  1
  N  N40  1  0.53992589  0.22642679  0.37549029  1
  N  N41  1  0.45036151  0.08994874  0.10828121  1
  N  N42  1  0.22786156  0.20324565  0.88606320  1
  N  N43  1  0.10284718  0.11330173  0.62133963  1
  N  N44  1  0.90846815  0.19600913  0.37857540  1
  N  N45  1  0.76174698  0.12032580  0.12399041  1
  N  N46  1  0.56140253  0.22167128  0.83938020  1
  N  N47  1  0.44313667  0.09127247  0.60502582  1
  N  N48  1  0.23369029  0.55213374  0.31671721  1
  N  N49  1  0.10956493  0.43116288  0.10248631  1
  N  N50  1  0.88022805  0.55549087  0.85813493  1
  N  N51  1  0.76525585  0.41453460  0.61563464  1
  N  N52  1  0.53867438  0.55124961  0.37428735  1
  N  N53  1  0.44065462  0.42706052  0.07395922  1
  N  N54  1  0.23649917  0.55185519  0.81550607  1
  N  N55  1  0.13524170  0.41579797  0.60916589  1
  N  N56  1  0.88852142  0.53299582  0.38210013  1
  N  N57  1  0.77658274  0.42952149  0.09698417  1
  N  N58  1  0.53558977  0.55406306  0.87721082  1
  N  N59  1  0.43878477  0.43651986  0.57980499  1
  N  N60  1  0.22208788  0.87197273  0.34857896  1
  N  N61  1  0.12290011  0.73772538  0.06033003  1
  N  N62  1  0.89023369  0.87444777  0.83421958  1
  N  N63  1  0.76503687  0.78212284  0.62117027  1
  N  N64  1  0.54424169  0.85876866  0.38204621  1
  N  N65  1  0.46530569  0.74850959  0.12827421  1
  N  N66  1  0.23479230  0.85760587  0.85248114  1
  N  N67  1  0.10061448  0.75123130  0.56908976  1
  N  N68  1  0.91143197  0.85777515  0.31323201  1
  N  N69  1  0.77029961  0.74814543  0.10997617  1
  N  N70  1  0.56264578  0.85280962  0.87384036  1
  N  N71  1  0.46684732  0.74839534  0.62672292  1
