# generated using pymatgen
data_Sc13Al23N36
_symmetry_space_group_name_H-M   'P 1'
_cell_length_a   10.12428699
_cell_length_b   10.16536183
_cell_length_c   9.78409194
_cell_angle_alpha   90.11891692
_cell_angle_beta   90.21394473
_cell_angle_gamma   59.96658871
_symmetry_Int_Tables_number   1
_chemical_formula_structural   Sc13Al23N36
_chemical_formula_sum   'Sc13 Al23 N36'
_cell_volume   871.74425058
_cell_formula_units_Z   1
loop_
 _symmetry_equiv_pos_site_id
 _symmetry_equiv_pos_as_xyz
  1  'x, y, z'
loop_
 _atom_site_type_symbol
 _atom_site_label
 _atom_site_symmetry_multiplicity
 _atom_site_fract_x
 _atom_site_fract_y
 _atom_site_fract_z
 _atom_site_occupancy
  Al  Al0  1  0.10712523  0.09018329  0.31282132  1
  Al  Al1  1  0.21909527  0.20865860  0.09416271  1
  Al  Al2  1  0.77479869  0.09960348  0.81434536  1
  Al  Al3  1  0.89506394  0.20574153  0.57419955  1
  Al  Al4  1  0.54870544  0.21992180  0.13862675  1
  Al  Al5  1  0.22671340  0.20438029  0.59325794  1
  Al  Al6  1  0.87499605  0.20922918  0.07102594  1
  Al  Al7  1  0.54654410  0.21822991  0.62228845  1
  Al  Al8  1  0.22751719  0.53933428  0.13025010  1
  Al  Al9  1  0.43410355  0.44088085  0.38148283  1
  Al  Al10  1  0.55280899  0.54118003  0.07471758  1
  Al  Al11  1  0.23147588  0.53811007  0.62821589  1
  Al  Al12  1  0.88342382  0.54233157  0.06555188  1
  Al  Al13  1  0.44276926  0.43243185  0.88008663  1
  Al  Al14  1  0.55451560  0.53925142  0.57103272  1
  Al  Al15  1  0.11288404  0.75936028  0.37775483  1
  Al  Al16  1  0.76960152  0.76709011  0.82176236  1
  Al  Al17  1  0.89150414  0.87075184  0.62756570  1
  Al  Al18  1  0.44350892  0.75630429  0.32502212  1
  Al  Al19  1  0.56236517  0.85636512  0.07305683  1
  Al  Al20  1  0.12124777  0.75308661  0.87147716  1
  Al  Al21  1  0.45040927  0.75235761  0.82233501  1
  Al  Al22  1  0.55334283  0.87066955  0.57737913  1
  Sc  Sc23  1  0.44181068  0.08868932  0.34345233  1
  Sc  Sc24  1  0.10881697  0.09487025  0.84953661  1
  Sc  Sc25  1  0.77881179  0.09402665  0.35413697  1
  Sc  Sc26  1  0.45762635  0.09080520  0.86005700  1
  Sc  Sc27  1  0.11836477  0.42721213  0.35023991  1
  Sc  Sc28  1  0.76398344  0.42683751  0.83770136  1
  Sc  Sc29  1  0.89057258  0.53527931  0.60122102  1
  Sc  Sc30  1  0.12140461  0.43410293  0.85988543  1
  Sc  Sc31  1  0.77506779  0.42453767  0.32851828  1
  Sc  Sc32  1  0.22890673  0.86237646  0.09509522  1
  Sc  Sc33  1  0.22510310  0.87446358  0.59384596  1
  Sc  Sc34  1  0.77691139  0.75684161  0.33921657  1
  Sc  Sc35  1  0.88398514  0.87595368  0.09662392  1
  N  N36  1  0.21108861  0.19436681  0.34034068  1
  N  N37  1  0.09435965  0.10804282  0.11011355  1
  N  N38  1  0.87515703  0.19440672  0.87851528  1
  N  N39  1  0.78244042  0.09226793  0.60657762  1
  N  N40  1  0.53380324  0.23481931  0.33660839  1
  N  N41  1  0.45551765  0.08578010  0.10611511  1
  N  N42  1  0.22830162  0.20514255  0.89078243  1
  N  N43  1  0.10523116  0.11605585  0.62829920  1
  N  N44  1  0.91063136  0.19431751  0.38158986  1
  N  N45  1  0.76256870  0.11809009  0.12523130  1
  N  N46  1  0.56022776  0.22576496  0.81953929  1
  N  N47  1  0.44439218  0.09303877  0.60682954  1
  N  N48  1  0.23151832  0.55553418  0.32323151  1
  N  N49  1  0.10754568  0.43463306  0.10255594  1
  N  N50  1  0.88033337  0.55583163  0.85834244  1
  N  N51  1  0.76481272  0.41521244  0.61583668  1
  N  N52  1  0.53862742  0.55063349  0.37389546  1
  N  N53  1  0.43999035  0.42615944  0.07884857  1
  N  N54  1  0.23859000  0.54904203  0.81984229  1
  N  N55  1  0.13759617  0.41581609  0.60398269  1
  N  N56  1  0.89008934  0.53265659  0.38707356  1
  N  N57  1  0.77675845  0.42860244  0.10058273  1
  N  N58  1  0.53482562  0.55241315  0.88025118  1
  N  N59  1  0.44091733  0.43185572  0.57843345  1
  N  N60  1  0.22127123  0.87213586  0.35080895  1
  N  N61  1  0.12047838  0.73765622  0.06389402  1
  N  N62  1  0.88762763  0.87557540  0.83826827  1
  N  N63  1  0.76545247  0.78207031  0.62064397  1
  N  N64  1  0.54374914  0.85782386  0.38543852  1
  N  N65  1  0.46489985  0.74747220  0.13041867  1
  N  N66  1  0.23373603  0.85635791  0.85069699  1
  N  N67  1  0.10222925  0.75132334  0.57793979  1
  N  N68  1  0.90969063  0.86064010  0.32435685  1
  N  N69  1  0.77094658  0.74745460  0.11690977  1
  N  N70  1  0.56337656  0.85023210  0.87696699  1
  N  N71  1  0.46655846  0.74731695  0.62894559  1
