# generated using pymatgen
data_Sc13Al23N36
_symmetry_space_group_name_H-M   'P 1'
_cell_length_a   9.94028773
_cell_length_b   9.97252097
_cell_length_c   10.18033619
_cell_angle_alpha   89.89100014
_cell_angle_beta   89.82180908
_cell_angle_gamma   59.97448615
_symmetry_Int_Tables_number   1
_chemical_formula_structural   Sc13Al23N36
_chemical_formula_sum   'Sc13 Al23 N36'
_cell_volume   873.74120792
_cell_formula_units_Z   1
loop_
 _symmetry_equiv_pos_site_id
 _symmetry_equiv_pos_as_xyz
  1  'x, y, z'
loop_
 _atom_site_type_symbol
 _atom_site_label
 _atom_site_symmetry_multiplicity
 _atom_site_fract_x
 _atom_site_fract_y
 _atom_site_fract_z
 _atom_site_occupancy
  Al  Al0  1  0.10999923  0.09535362  0.30061358  1
  Al  Al1  1  0.22068614  0.20870415  0.05445509  1
  Al  Al2  1  0.77510243  0.09531472  0.79624737  1
  Al  Al3  1  0.88852665  0.20648612  0.55370706  1
  Al  Al4  1  0.55608135  0.21551033  0.05117500  1
  Al  Al5  1  0.22451333  0.20355142  0.54914419  1
  Al  Al6  1  0.88328998  0.20794901  0.05216982  1
  Al  Al7  1  0.54756908  0.21568750  0.55770958  1
  Al  Al8  1  0.22862370  0.53749029  0.05289912  1
  Al  Al9  1  0.43908825  0.43879006  0.30622810  1
  Al  Al10  1  0.55116133  0.53998153  0.05227861  1
  Al  Al11  1  0.22907924  0.53724561  0.55351968  1
  Al  Al12  1  0.88732261  0.54185905  0.04122968  1
  Al  Al13  1  0.44266204  0.43627658  0.80493410  1
  Al  Al14  1  0.55187607  0.53617309  0.55458736  1
  Al  Al15  1  0.11754249  0.75692059  0.30532523  1
  Al  Al16  1  0.77284910  0.76814483  0.79870988  1
  Al  Al17  1  0.88977401  0.87131699  0.56047183  1
  Al  Al18  1  0.44481570  0.75668382  0.30428280  1
  Al  Al19  1  0.56164000  0.85962216  0.04921459  1
  Al  Al20  1  0.11360433  0.75707558  0.80142739  1
  Al  Al21  1  0.44753242  0.75257372  0.80349114  1
  Al  Al22  1  0.55269804  0.87187996  0.55701376  1
  Sc  Sc23  1  0.44489420  0.09229703  0.30851293  1
  Sc  Sc24  1  0.11015252  0.09014108  0.81036595  1
  Sc  Sc25  1  0.77720702  0.09782012  0.32200562  1
  Sc  Sc26  1  0.45384372  0.08903951  0.81429092  1
  Sc  Sc27  1  0.11731374  0.42933182  0.30776582  1
  Sc  Sc28  1  0.76745155  0.42560881  0.81932573  1
  Sc  Sc29  1  0.88775641  0.53690271  0.57158718  1
  Sc  Sc30  1  0.12213575  0.42996946  0.81150824  1
  Sc  Sc31  1  0.77226535  0.42762674  0.30079064  1
  Sc  Sc32  1  0.22822255  0.86706708  0.06766677  1
  Sc  Sc33  1  0.22419849  0.86913751  0.55304139  1
  Sc  Sc34  1  0.77648369  0.75938422  0.31239514  1
  Sc  Sc35  1  0.88513557  0.87572941  0.05290456  1
  N  N36  1  0.21490999  0.19570125  0.36113228  1
  N  N37  1  0.09890089  0.11476236  0.10942395  1
  N  N38  1  0.88059588  0.18884215  0.86772037  1
  N  N39  1  0.77606736  0.09591529  0.60264183  1
  N  N40  1  0.53833997  0.23264835  0.37164246  1
  N  N41  1  0.45068787  0.09063446  0.09142450  1
  N  N42  1  0.22505044  0.20236611  0.87131225  1
  N  N43  1  0.10411390  0.10967402  0.60348736  1
  N  N44  1  0.90665250  0.19929623  0.36756266  1
  N  N45  1  0.76625689  0.11448428  0.11299624  1
  N  N46  1  0.56313189  0.22115478  0.86059744  1
  N  N47  1  0.44398735  0.09378163  0.59810071  1
  N  N48  1  0.23217946  0.55153029  0.36726604  1
  N  N49  1  0.11124041  0.43061677  0.09029844  1
  N  N50  1  0.88209211  0.55663706  0.84777373  1
  N  N51  1  0.76415258  0.41606483  0.60619503  1
  N  N52  1  0.53622729  0.54955527  0.36632357  1
  N  N53  1  0.44388214  0.42935307  0.11462026  1
  N  N54  1  0.23352878  0.55049789  0.86717169  1
  N  N55  1  0.13548211  0.41596036  0.59811327  1
  N  N56  1  0.88974345  0.53364232  0.36648119  1
  N  N57  1  0.77720405  0.42937041  0.08224189  1
  N  N58  1  0.53309473  0.54960311  0.86791324  1
  N  N59  1  0.44202083  0.43181443  0.61641147  1
  N  N60  1  0.22227865  0.87376858  0.33613386  1
  N  N61  1  0.11665035  0.74180649  0.11873679  1
  N  N62  1  0.88494459  0.87553651  0.84362184  1
  N  N63  1  0.76468717  0.78297496  0.60944370  1
  N  N64  1  0.54355049  0.86159580  0.37127744  1
  N  N65  1  0.46712681  0.74716795  0.11715223  1
  N  N66  1  0.23131464  0.85323145  0.85164115  1
  N  N67  1  0.10456196  0.74918663  0.61482771  1
  N  N68  1  0.90989943  0.86084753  0.37010578  1
  N  N69  1  0.77316063  0.75058946  0.10223471  1
  N  N70  1  0.56342740  0.84959778  0.86211026  1
  N  N71  1  0.46271431  0.74881810  0.61595955  1
