# generated using pymatgen
data_Sc13Al23N36
_symmetry_space_group_name_H-M   'P 1'
_cell_length_a   10.11376317
_cell_length_b   10.15588506
_cell_length_c   9.80767989
_cell_angle_alpha   90.16334997
_cell_angle_beta   90.26701629
_cell_angle_gamma   59.97228391
_symmetry_Int_Tables_number   1
_chemical_formula_structural   Sc13Al23N36
_chemical_formula_sum   'Sc13 Al23 N36'
_cell_volume   872.17034697
_cell_formula_units_Z   1
loop_
 _symmetry_equiv_pos_site_id
 _symmetry_equiv_pos_as_xyz
  1  'x, y, z'
loop_
 _atom_site_type_symbol
 _atom_site_label
 _atom_site_symmetry_multiplicity
 _atom_site_fract_x
 _atom_site_fract_y
 _atom_site_fract_z
 _atom_site_occupancy
  Al  Al0  1  0.10827035  0.09124380  0.31656450  1
  Al  Al1  1  0.21984270  0.20894127  0.08542445  1
  Al  Al2  1  0.77517682  0.09951808  0.81480507  1
  Al  Al3  1  0.89456631  0.20554206  0.57396767  1
  Al  Al4  1  0.54859041  0.22026645  0.13846223  1
  Al  Al5  1  0.22443795  0.20334231  0.57423131  1
  Al  Al6  1  0.87633758  0.20925720  0.07215945  1
  Al  Al7  1  0.54641529  0.21784466  0.62237721  1
  Al  Al8  1  0.22799125  0.53928212  0.13007298  1
  Al  Al9  1  0.43405728  0.44077425  0.38196707  1
  Al  Al10  1  0.55275210  0.54140744  0.07427967  1
  Al  Al11  1  0.23117402  0.53794130  0.62802539  1
  Al  Al12  1  0.88398238  0.54194304  0.06512642  1
  Al  Al13  1  0.44273334  0.43237523  0.88023356  1
  Al  Al14  1  0.55457990  0.53923394  0.57121941  1
  Al  Al15  1  0.11294032  0.75941084  0.37784608  1
  Al  Al16  1  0.76977158  0.76691496  0.82174333  1
  Al  Al17  1  0.89157101  0.87068620  0.62801913  1
  Al  Al18  1  0.44345343  0.75614754  0.32502173  1
  Al  Al19  1  0.56163994  0.85693845  0.07259787  1
  Al  Al20  1  0.12135694  0.75315623  0.87199477  1
  Al  Al21  1  0.45039208  0.75241055  0.82220918  1
  Al  Al22  1  0.55330120  0.87113995  0.57704712  1
  Sc  Sc23  1  0.44264909  0.08804800  0.34180130  1
  Sc  Sc24  1  0.10920873  0.09531688  0.84551003  1
  Sc  Sc25  1  0.77888185  0.09382474  0.35396094  1
  Sc  Sc26  1  0.45612928  0.09071679  0.85318066  1
  Sc  Sc27  1  0.11749632  0.42809482  0.34747318  1
  Sc  Sc28  1  0.76437622  0.42637366  0.83780157  1
  Sc  Sc29  1  0.89054132  0.53516637  0.60027669  1
  Sc  Sc30  1  0.12173258  0.43262829  0.85353704  1
  Sc  Sc31  1  0.77440677  0.42474686  0.32803118  1
  Sc  Sc32  1  0.22831702  0.86414958  0.09548708  1
  Sc  Sc33  1  0.22519942  0.87410856  0.59337504  1
  Sc  Sc34  1  0.77688065  0.75677032  0.33856977  1
  Sc  Sc35  1  0.88409447  0.87579841  0.09661880  1
  N  N36  1  0.21151466  0.19312394  0.36752686  1
  N  N37  1  0.09640653  0.11101017  0.11566403  1
  N  N38  1  0.87651516  0.19349986  0.88014880  1
  N  N39  1  0.78225243  0.09226884  0.60696399  1
  N  N40  1  0.53386893  0.23483058  0.33605616  1
  N  N41  1  0.45245462  0.08692768  0.10855615  1
  N  N42  1  0.22813992  0.20496603  0.89202981  1
  N  N43  1  0.10440714  0.11527890  0.62786799  1
  N  N44  1  0.90982066  0.19484973  0.38161265  1
  N  N45  1  0.76295108  0.11800560  0.12532735  1
  N  N46  1  0.56030457  0.22562536  0.81978396  1
  N  N47  1  0.44440219  0.09292123  0.60783367  1
  N  N48  1  0.23163896  0.55557496  0.32298759  1
  N  N49  1  0.10854113  0.43275157  0.10531089  1
  N  N50  1  0.88066695  0.55562849  0.85918469  1
  N  N51  1  0.76476929  0.41500120  0.61653527  1
  N  N52  1  0.53848389  0.55072639  0.37443693  1
  N  N53  1  0.44014789  0.42621772  0.07854343  1
  N  N54  1  0.23857178  0.54916241  0.81983538  1
  N  N55  1  0.13694222  0.41584278  0.60591327  1
  N  N56  1  0.88994013  0.53261769  0.38669180  1
  N  N57  1  0.77670545  0.42881349  0.10075153  1
  N  N58  1  0.53501720  0.55243236  0.88036946  1
  N  N59  1  0.44088743  0.43164737  0.57833827  1
  N  N60  1  0.22144411  0.87218466  0.35124754  1
  N  N61  1  0.12083274  0.73786584  0.06404940  1
  N  N62  1  0.88792794  0.87541753  0.83840045  1
  N  N63  1  0.76556231  0.78184206  0.62115244  1
  N  N64  1  0.54400090  0.85767967  0.38547836  1
  N  N65  1  0.46444347  0.74771114  0.13065423  1
  N  N66  1  0.23369571  0.85688725  0.85152512  1
  N  N67  1  0.10214060  0.75128811  0.57760596  1
  N  N68  1  0.90982579  0.86038210  0.32388008  1
  N  N69  1  0.77068166  0.74756141  0.11677584  1
  N  N70  1  0.56328263  0.85066751  0.87733693  1
  N  N71  1  0.46678976  0.74731957  0.62926124  1
