# generated using pymatgen
data_Sc13Al23N36
_symmetry_space_group_name_H-M   'P 1'
_cell_length_a   10.01313972
_cell_length_b   10.04303141
_cell_length_c   10.09645722
_cell_angle_alpha   89.88369600
_cell_angle_beta   90.20445351
_cell_angle_gamma   60.07992248
_symmetry_Int_Tables_number   1
_chemical_formula_structural   Sc13Al23N36
_chemical_formula_sum   'Sc13 Al23 N36'
_cell_volume   879.98845410
_cell_formula_units_Z   1
loop_
 _symmetry_equiv_pos_site_id
 _symmetry_equiv_pos_as_xyz
  1  'x, y, z'
loop_
 _atom_site_type_symbol
 _atom_site_label
 _atom_site_symmetry_multiplicity
 _atom_site_fract_x
 _atom_site_fract_y
 _atom_site_fract_z
 _atom_site_occupancy
  Al  Al0  1  0.10926389  0.09284029  0.32263228  1
  Al  Al1  1  0.22084078  0.20850121  0.07781220  1
  Al  Al2  1  0.77135235  0.10287334  0.82024166  1
  Al  Al3  1  0.88948177  0.20622376  0.57459828  1
  Al  Al4  1  0.55524644  0.21748996  0.06968761  1
  Al  Al5  1  0.22508984  0.20246861  0.57177782  1
  Al  Al6  1  0.88130101  0.21051920  0.07329532  1
  Al  Al7  1  0.54831083  0.21449634  0.57486918  1
  Al  Al8  1  0.22524271  0.54004046  0.13400041  1
  Al  Al9  1  0.44402464  0.43513487  0.32408240  1
  Al  Al10  1  0.55051210  0.53959046  0.07229991  1
  Al  Al11  1  0.22644972  0.54116422  0.62955121  1
  Al  Al12  1  0.88565612  0.54119290  0.06391894  1
  Al  Al13  1  0.44815008  0.43431676  0.81937572  1
  Al  Al14  1  0.55446783  0.53468056  0.57228176  1
  Al  Al15  1  0.11030583  0.75883257  0.38009048  1
  Al  Al16  1  0.76952128  0.76624051  0.82436829  1
  Al  Al17  1  0.89006913  0.87355731  0.63820881  1
  Al  Al18  1  0.44379108  0.75551758  0.32666463  1
  Al  Al19  1  0.55979110  0.85891130  0.06981915  1
  Al  Al20  1  0.12103876  0.75411565  0.88065444  1
  Al  Al21  1  0.44924235  0.75190770  0.82266117  1
  Al  Al22  1  0.55421954  0.87115827  0.57683985  1
  Sc  Sc23  1  0.44415252  0.09090839  0.32934970  1
  Sc  Sc24  1  0.10854833  0.09333528  0.83479607  1
  Sc  Sc25  1  0.77700317  0.09656407  0.33953938  1
  Sc  Sc26  1  0.45292880  0.08923040  0.83536462  1
  Sc  Sc27  1  0.11515452  0.42568137  0.34256667  1
  Sc  Sc28  1  0.76576521  0.42728214  0.83966528  1
  Sc  Sc29  1  0.88766129  0.53750583  0.59586978  1
  Sc  Sc30  1  0.12047256  0.43085563  0.84510184  1
  Sc  Sc31  1  0.77260756  0.42580934  0.32364517  1
  Sc  Sc32  1  0.22931623  0.86861106  0.09463441  1
  Sc  Sc33  1  0.22715769  0.87253645  0.58358356  1
  Sc  Sc34  1  0.77439950  0.75756229  0.33055197  1
  Sc  Sc35  1  0.88519395  0.87546211  0.09660306  1
  N  N36  1  0.21590486  0.19064506  0.38209401  1
  N  N37  1  0.09771984  0.11524968  0.12878892  1
  N  N38  1  0.87902929  0.19298073  0.88725451  1
  N  N39  1  0.77624159  0.09685174  0.62269014  1
  N  N40  1  0.53796381  0.23074821  0.38826739  1
  N  N41  1  0.45108831  0.08985257  0.11087960  1
  N  N42  1  0.22674952  0.20197012  0.89263046  1
  N  N43  1  0.10321651  0.11211630  0.62621273  1
  N  N44  1  0.90732032  0.19675748  0.38742626  1
  N  N45  1  0.76267846  0.12115332  0.12811527  1
  N  N46  1  0.56131044  0.22216396  0.87762246  1
  N  N47  1  0.44503684  0.09270196  0.61747355  1
  N  N48  1  0.22796318  0.55429051  0.32635545  1
  N  N49  1  0.11040987  0.43000231  0.10985691  1
  N  N50  1  0.88093027  0.55608691  0.86760054  1
  N  N51  1  0.76555426  0.41514162  0.62491500  1
  N  N52  1  0.53645770  0.54810728  0.38429079  1
  N  N53  1  0.44922808  0.42660681  0.12922474  1
  N  N54  1  0.23122702  0.55471013  0.82040976  1
  N  N55  1  0.13481306  0.41515769  0.61383575  1
  N  N56  1  0.88683960  0.53407405  0.38920593  1
  N  N57  1  0.77655809  0.43013632  0.10327598  1
  N  N58  1  0.53229357  0.54988378  0.88654009  1
  N  N59  1  0.45012977  0.42735542  0.62782852  1
  N  N60  1  0.22195702  0.87160190  0.35656311  1
  N  N61  1  0.12269788  0.73793481  0.06696120  1
  N  N62  1  0.88888338  0.87561966  0.84325157  1
  N  N63  1  0.76436719  0.78266608  0.63096521  1
  N  N64  1  0.54267492  0.86120945  0.39042264  1
  N  N65  1  0.46643258  0.74613925  0.13726459  1
  N  N66  1  0.23534276  0.85730005  0.86316769  1
  N  N67  1  0.09796512  0.75358256  0.57468886  1
  N  N68  1  0.90900589  0.86068568  0.31818595  1
  N  N69  1  0.76992402  0.74806105  0.11733835  1
  N  N70  1  0.56212886  0.85037693  0.88151864  1
  N  N71  1  0.46737213  0.74555914  0.63417703  1
