# generated using pymatgen
data_Sc13Al23N36
_symmetry_space_group_name_H-M   'P 1'
_cell_length_a   10.12796848
_cell_length_b   10.16641679
_cell_length_c   9.78323978
_cell_angle_alpha   90.08155086
_cell_angle_beta   90.16455735
_cell_angle_gamma   59.96209530
_symmetry_Int_Tables_number   1
_chemical_formula_structural   Sc13Al23N36
_chemical_formula_sum   'Sc13 Al23 N36'
_cell_volume   872.03874903
_cell_formula_units_Z   1
loop_
 _symmetry_equiv_pos_site_id
 _symmetry_equiv_pos_as_xyz
  1  'x, y, z'
loop_
 _atom_site_type_symbol
 _atom_site_label
 _atom_site_symmetry_multiplicity
 _atom_site_fract_x
 _atom_site_fract_y
 _atom_site_fract_z
 _atom_site_occupancy
  Al  Al0  1  0.10707778  0.09004455  0.31071485  1
  Al  Al1  1  0.21854188  0.20847963  0.10696206  1
  Al  Al2  1  0.77461104  0.09977421  0.81348939  1
  Al  Al3  1  0.89599009  0.20550210  0.57404321  1
  Al  Al4  1  0.54819046  0.21970117  0.13888359  1
  Al  Al5  1  0.22876974  0.20574839  0.63071156  1
  Al  Al6  1  0.87365642  0.20951135  0.07014588  1
  Al  Al7  1  0.54657699  0.21827298  0.62232352  1
  Al  Al8  1  0.22719508  0.53881973  0.13061881  1
  Al  Al9  1  0.43400179  0.44083857  0.38128401  1
  Al  Al10  1  0.55289885  0.54096879  0.07479195  1
  Al  Al11  1  0.23151977  0.53824410  0.62832321  1
  Al  Al12  1  0.88281412  0.54246053  0.06557804  1
  Al  Al13  1  0.44285877  0.43253335  0.88001558  1
  Al  Al14  1  0.55442082  0.53930578  0.57079013  1
  Al  Al15  1  0.11273301  0.75929153  0.37772945  1
  Al  Al16  1  0.76951148  0.76710990  0.82139031  1
  Al  Al17  1  0.89162545  0.87076444  0.62716802  1
  Al  Al18  1  0.44364447  0.75646109  0.32483506  1
  Al  Al19  1  0.56260812  0.85595580  0.07323365  1
  Al  Al20  1  0.12135485  0.75307128  0.87137747  1
  Al  Al21  1  0.45051079  0.75228475  0.82218503  1
  Al  Al22  1  0.55341121  0.87063188  0.57774850  1
  Sc  Sc23  1  0.43875012  0.09063564  0.34932351  1
  Sc  Sc24  1  0.10725877  0.09346076  0.85272454  1
  Sc  Sc25  1  0.77871435  0.09425279  0.35421171  1
  Sc  Sc26  1  0.46100903  0.09001909  0.86517839  1
  Sc  Sc27  1  0.12060327  0.42409901  0.35654109  1
  Sc  Sc28  1  0.76359103  0.42715829  0.83708755  1
  Sc  Sc29  1  0.89087222  0.53506569  0.60181196  1
  Sc  Sc30  1  0.12033008  0.43747462  0.86481875  1
  Sc  Sc31  1  0.77547079  0.42464356  0.32873509  1
  Sc  Sc32  1  0.22940723  0.86098086  0.09496138  1
  Sc  Sc33  1  0.22483947  0.87534177  0.59395713  1
  Sc  Sc34  1  0.77715072  0.75680917  0.33963884  1
  Sc  Sc35  1  0.88389715  0.87606377  0.09671770  1
  N  N36  1  0.21113804  0.19550057  0.31484392  1
  N  N37  1  0.09358424  0.10634802  0.10391364  1
  N  N38  1  0.87332303  0.19543908  0.87784200  1
  N  N39  1  0.78252680  0.09229333  0.60601785  1
  N  N40  1  0.53320078  0.23443962  0.33654233  1
  N  N41  1  0.45512520  0.08650518  0.10229125  1
  N  N42  1  0.22914474  0.20587297  0.86723502  1
  N  N43  1  0.10498210  0.11556554  0.62874136  1
  N  N44  1  0.91160446  0.19408139  0.38099848  1
  N  N45  1  0.76203339  0.11818907  0.12550913  1
  N  N46  1  0.56049730  0.22612518  0.81914832  1
  N  N47  1  0.44483907  0.09315789  0.60535412  1
  N  N48  1  0.23085015  0.55494307  0.32333109  1
  N  N49  1  0.10806472  0.43411113  0.09796588  1
  N  N50  1  0.87966265  0.55618869  0.85786287  1
  N  N51  1  0.76483043  0.41522477  0.61515234  1
  N  N52  1  0.53853628  0.55062418  0.37358537  1
  N  N53  1  0.43981357  0.42613534  0.07897406  1
  N  N54  1  0.23891404  0.54941606  0.81946110  1
  N  N55  1  0.13799876  0.41572924  0.60201730  1
  N  N56  1  0.89096677  0.53229199  0.38704002  1
  N  N57  1  0.77676465  0.42850018  0.10069545  1
  N  N58  1  0.53479353  0.55243095  0.88034882  1
  N  N59  1  0.44093859  0.43189462  0.57820699  1
  N  N60  1  0.22112974  0.87253719  0.34991726  1
  N  N61  1  0.12023614  0.73713550  0.06386979  1
  N  N62  1  0.88750252  0.87569513  0.83804580  1
  N  N63  1  0.76561919  0.78202105  0.62024690  1
  N  N64  1  0.54344288  0.85835550  0.38528047  1
  N  N65  1  0.46525528  0.74720718  0.13039588  1
  N  N66  1  0.23417859  0.85549048  0.85068684  1
  N  N67  1  0.10231797  0.75147192  0.57771294  1
  N  N68  1  0.90957597  0.86099399  0.32439691  1
  N  N69  1  0.77103329  0.74741478  0.11729249  1
  N  N70  1  0.56376846  0.84952293  0.87690427  1
  N  N71  1  0.46661522  0.74735774  0.62877735  1
