# generated using pymatgen
data_Sc13Al23N36
_symmetry_space_group_name_H-M   'P 1'
_cell_length_a   9.99356832
_cell_length_b   10.02840622
_cell_length_c   10.07566518
_cell_angle_alpha   89.53668191
_cell_angle_beta   89.69740408
_cell_angle_gamma   60.09473292
_symmetry_Int_Tables_number   1
_chemical_formula_structural   Sc13Al23N36
_chemical_formula_sum   'Sc13 Al23 N36'
_cell_volume   875.29811813
_cell_formula_units_Z   1
loop_
 _symmetry_equiv_pos_site_id
 _symmetry_equiv_pos_as_xyz
  1  'x, y, z'
loop_
 _atom_site_type_symbol
 _atom_site_label
 _atom_site_symmetry_multiplicity
 _atom_site_fract_x
 _atom_site_fract_y
 _atom_site_fract_z
 _atom_site_occupancy
  Al  Al0  1  0.10923161  0.09529090  0.31108603  1
  Al  Al1  1  0.22086534  0.20859626  0.06442360  1
  Al  Al2  1  0.77555093  0.09504196  0.80441537  1
  Al  Al3  1  0.88915617  0.20716330  0.56333282  1
  Al  Al4  1  0.55599986  0.21611225  0.05910266  1
  Al  Al5  1  0.22436113  0.20377298  0.55833350  1
  Al  Al6  1  0.88181832  0.20918532  0.06198654  1
  Al  Al7  1  0.54710560  0.21562782  0.56597066  1
  Al  Al8  1  0.23081508  0.53339424  0.05828263  1
  Al  Al9  1  0.43871707  0.43843179  0.31261948  1
  Al  Al10  1  0.55055964  0.53992760  0.06148537  1
  Al  Al11  1  0.23180645  0.53399021  0.56160609  1
  Al  Al12  1  0.88748821  0.54196297  0.04916093  1
  Al  Al13  1  0.44555234  0.43383360  0.81104200  1
  Al  Al14  1  0.55325594  0.53510862  0.56240272  1
  Al  Al15  1  0.11553073  0.76114137  0.35996333  1
  Al  Al16  1  0.77382517  0.76825453  0.80747879  1
  Al  Al17  1  0.88643520  0.87418700  0.56848962  1
  Al  Al18  1  0.44359329  0.75590861  0.31536103  1
  Al  Al19  1  0.56187263  0.85764453  0.05884064  1
  Al  Al20  1  0.11432031  0.75780141  0.84782913  1
  Al  Al21  1  0.45183786  0.75032637  0.81283329  1
  Al  Al22  1  0.55352752  0.87135848  0.56604356  1
  Sc  Sc23  1  0.44440688  0.09203977  0.31820751  1
  Sc  Sc24  1  0.10878801  0.09317000  0.82403392  1
  Sc  Sc25  1  0.77373527  0.10215609  0.33140547  1
  Sc  Sc26  1  0.45459717  0.08803512  0.82491838  1
  Sc  Sc27  1  0.11608384  0.42867319  0.31671664  1
  Sc  Sc28  1  0.76720592  0.42557940  0.82886960  1
  Sc  Sc29  1  0.88801479  0.53722690  0.58237848  1
  Sc  Sc30  1  0.12256975  0.42819477  0.81917739  1
  Sc  Sc31  1  0.77239820  0.42794546  0.31092732  1
  Sc  Sc32  1  0.22796902  0.86836157  0.08180687  1
  Sc  Sc33  1  0.22735854  0.87183142  0.57831490  1
  Sc  Sc34  1  0.77329521  0.75833765  0.32181471  1
  Sc  Sc35  1  0.88004556  0.87909384  0.06709654  1
  N  N36  1  0.21476377  0.19488423  0.36841770  1
  N  N37  1  0.09767266  0.11566896  0.11698565  1
  N  N38  1  0.87912542  0.18962025  0.87568856  1
  N  N39  1  0.77551602  0.09654777  0.60899183  1
  N  N40  1  0.53598620  0.23361581  0.37858397  1
  N  N41  1  0.45148106  0.08953768  0.09897990  1
  N  N42  1  0.22671675  0.20229111  0.87968475  1
  N  N43  1  0.10222676  0.11410929  0.61509870  1
  N  N44  1  0.90677658  0.19955655  0.37558177  1
  N  N45  1  0.76336048  0.11878251  0.12161284  1
  N  N46  1  0.56438849  0.21972724  0.86677852  1
  N  N47  1  0.44408793  0.09289942  0.60590584  1
  N  N48  1  0.23268130  0.54827175  0.37013903  1
  N  N49  1  0.11136564  0.42995820  0.09735508  1
  N  N50  1  0.88260858  0.55631428  0.85308267  1
  N  N51  1  0.76450518  0.41579199  0.61342532  1
  N  N52  1  0.53589699  0.54829231  0.37294154  1
  N  N53  1  0.44364087  0.42871194  0.12061954  1
  N  N54  1  0.23847127  0.54280542  0.86849921  1
  N  N55  1  0.13617138  0.41543399  0.60414134  1
  N  N56  1  0.88962617  0.53343368  0.37534097  1
  N  N57  1  0.77706015  0.42978502  0.09000106  1
  N  N58  1  0.53365842  0.54820171  0.87549846  1
  N  N59  1  0.44387273  0.43050329  0.62189799  1
  N  N60  1  0.22160998  0.87397660  0.34763636  1
  N  N61  1  0.11531233  0.74482586  0.08542174  1
  N  N62  1  0.88448234  0.87605173  0.85133635  1
  N  N63  1  0.76494827  0.78347187  0.61602780  1
  N  N64  1  0.54142527  0.86170394  0.37899488  1
  N  N65  1  0.46670563  0.74593963  0.12593458  1
  N  N66  1  0.23515421  0.85494421  0.85264252  1
  N  N67  1  0.10510497  0.75158031  0.59465908  1
  N  N68  1  0.90101687  0.86554763  0.37081926  1
  N  N69  1  0.77250743  0.74822609  0.11035128  1
  N  N70  1  0.56532627  0.84848990  0.87013792  1
  N  N71  1  0.46859214  0.74500410  0.62422470  1
