# generated using pymatgen
data_Sc13Al23N36
_symmetry_space_group_name_H-M   'P 1'
_cell_length_a   10.06557906
_cell_length_b   10.10655394
_cell_length_c   10.01260311
_cell_angle_alpha   90.17011227
_cell_angle_beta   90.15046501
_cell_angle_gamma   59.87396305
_symmetry_Int_Tables_number   1
_chemical_formula_structural   Sc13Al23N36
_chemical_formula_sum   'Sc13 Al23 N36'
_cell_volume   880.97632431
_cell_formula_units_Z   1
loop_
 _symmetry_equiv_pos_site_id
 _symmetry_equiv_pos_as_xyz
  1  'x, y, z'
loop_
 _atom_site_type_symbol
 _atom_site_label
 _atom_site_symmetry_multiplicity
 _atom_site_fract_x
 _atom_site_fract_y
 _atom_site_fract_z
 _atom_site_occupancy
  Al  Al0  1  0.11070868  0.08826585  0.34245051  1
  Al  Al1  1  0.21603725  0.20794993  0.13042968  1
  Al  Al2  1  0.77605411  0.09917253  0.81473514  1
  Al  Al3  1  0.89334792  0.20521221  0.57679512  1
  Al  Al4  1  0.54547393  0.22023768  0.14215900  1
  Al  Al5  1  0.23055622  0.20670674  0.64115242  1
  Al  Al6  1  0.87557722  0.20932327  0.06911356  1
  Al  Al7  1  0.54776877  0.21738666  0.62898848  1
  Al  Al8  1  0.22686057  0.53809795  0.13531135  1
  Al  Al9  1  0.43445983  0.44068391  0.38590155  1
  Al  Al10  1  0.55102391  0.54230755  0.07474966  1
  Al  Al11  1  0.23111528  0.53712279  0.63242882  1
  Al  Al12  1  0.88163856  0.54167333  0.06592771  1
  Al  Al13  1  0.44173015  0.43328803  0.88425704  1
  Al  Al14  1  0.55671062  0.53823852  0.57217180  1
  Al  Al15  1  0.11201714  0.75891136  0.38303627  1
  Al  Al16  1  0.76899268  0.76680808  0.82401844  1
  Al  Al17  1  0.89189196  0.86958335  0.63367206  1
  Al  Al18  1  0.44511424  0.75565770  0.32806270  1
  Al  Al19  1  0.55919699  0.85730642  0.07536851  1
  Al  Al20  1  0.12227652  0.75317218  0.87683737  1
  Al  Al21  1  0.45097565  0.75287042  0.82352671  1
  Al  Al22  1  0.55605787  0.86896227  0.57932633  1
  Sc  Sc23  1  0.43884229  0.09331723  0.36836820  1
  Sc  Sc24  1  0.10987541  0.09426048  0.85490759  1
  Sc  Sc25  1  0.77813113  0.09421242  0.35211961  1
  Sc  Sc26  1  0.45956126  0.09281753  0.87482113  1
  Sc  Sc27  1  0.12224014  0.42569512  0.37110156  1
  Sc  Sc28  1  0.76267004  0.42771867  0.83794144  1
  Sc  Sc29  1  0.89042639  0.53459627  0.60305136  1
  Sc  Sc30  1  0.12179981  0.43650768  0.87431675  1
  Sc  Sc31  1  0.77599885  0.42472674  0.32512205  1
  Sc  Sc32  1  0.22435195  0.86678321  0.10773889  1
  Sc  Sc33  1  0.22577112  0.87068916  0.60524946  1
  Sc  Sc34  1  0.77743388  0.75531238  0.33604450  1
  Sc  Sc35  1  0.88364408  0.87562995  0.09890491  1
  N  N36  1  0.21050421  0.19594101  0.32103640  1
  N  N37  1  0.09677368  0.11003901  0.09612731  1
  N  N38  1  0.87405288  0.19519963  0.88073412  1
  N  N39  1  0.78241569  0.09130617  0.61093872  1
  N  N40  1  0.53205173  0.23557255  0.33350162  1
  N  N41  1  0.44753994  0.09081954  0.10086818  1
  N  N42  1  0.23159063  0.20840716  0.83305691  1
  N  N43  1  0.10601508  0.11218230  0.62233948  1
  N  N44  1  0.90735042  0.19664021  0.38726935  1
  N  N45  1  0.76265167  0.11876906  0.12845271  1
  N  N46  1  0.56019222  0.22672091  0.82063910  1
  N  N47  1  0.44802668  0.09369567  0.59860312  1
  N  N48  1  0.23163334  0.55536357  0.32323014  1
  N  N49  1  0.11012032  0.42994264  0.09745413  1
  N  N50  1  0.88014747  0.55563949  0.86390964  1
  N  N51  1  0.76502199  0.41424032  0.62308537  1
  N  N52  1  0.54066536  0.55013422  0.37986143  1
  N  N53  1  0.43852449  0.42583714  0.07872721  1
  N  N54  1  0.23813933  0.54941649  0.81921922  1
  N  N55  1  0.13800991  0.41674297  0.59522986  1
  N  N56  1  0.88961136  0.53235213  0.39206606  1
  N  N57  1  0.77552253  0.42879700  0.10324605  1
  N  N58  1  0.53333330  0.55449566  0.88600880  1
  N  N59  1  0.44143653  0.43063473  0.57851058  1
  N  N60  1  0.22172894  0.87126362  0.35422875  1
  N  N61  1  0.12172146  0.73658870  0.06438693  1
  N  N62  1  0.88853198  0.87499664  0.84066250  1
  N  N63  1  0.76577257  0.78085024  0.62888421  1
  N  N64  1  0.54498484  0.85754759  0.39023364  1
  N  N65  1  0.46318130  0.74789793  0.13693426  1
  N  N66  1  0.23287813  0.85588121  0.84566240  1
  N  N67  1  0.10067606  0.74970650  0.57707605  1
  N  N68  1  0.91063393  0.85984162  0.32176322  1
  N  N69  1  0.76917512  0.74726956  0.12037401  1
  N  N70  1  0.56259827  0.85058811  0.88309239  1
  N  N71  1  0.47050430  0.74564749  0.63411096  1
