# generated using pymatgen
data_Sc13Al23N36
_symmetry_space_group_name_H-M   'P 1'
_cell_length_a   10.12902918
_cell_length_b   10.17554574
_cell_length_c   9.81520858
_cell_angle_alpha   90.42820907
_cell_angle_beta   89.94796527
_cell_angle_gamma   59.78012622
_symmetry_Int_Tables_number   1
_chemical_formula_structural   Sc13Al23N36
_chemical_formula_sum   'Sc13 Al23 N36'
_cell_volume   874.11935359
_cell_formula_units_Z   1
loop_
 _symmetry_equiv_pos_site_id
 _symmetry_equiv_pos_as_xyz
  1  'x, y, z'
loop_
 _atom_site_type_symbol
 _atom_site_label
 _atom_site_symmetry_multiplicity
 _atom_site_fract_x
 _atom_site_fract_y
 _atom_site_fract_z
 _atom_site_occupancy
  Al  Al0  1  0.11736789  0.08988805  0.39274371  1
  Al  Al1  1  0.21207288  0.20623134  0.12985602  1
  Al  Al2  1  0.77199398  0.09972457  0.81648220  1
  Al  Al3  1  0.88714004  0.20672368  0.58170639  1
  Al  Al4  1  0.54607129  0.22096347  0.13918100  1
  Al  Al5  1  0.23367238  0.20588903  0.63466326  1
  Al  Al6  1  0.87865347  0.20771291  0.06656444  1
  Al  Al7  1  0.54780977  0.21644565  0.62284054  1
  Al  Al8  1  0.22629790  0.54068225  0.13398388  1
  Al  Al9  1  0.43827943  0.44283291  0.38149317  1
  Al  Al10  1  0.54812936  0.53930431  0.11835686  1
  Al  Al11  1  0.23037744  0.53695633  0.62979727  1
  Al  Al12  1  0.88352518  0.54355384  0.06884615  1
  Al  Al13  1  0.44240950  0.43343252  0.88362917  1
  Al  Al14  1  0.55347159  0.53261248  0.63419352  1
  Al  Al15  1  0.11133467  0.75873168  0.38293135  1
  Al  Al16  1  0.76915736  0.76804565  0.82341090  1
  Al  Al17  1  0.89046939  0.87002415  0.63111558  1
  Al  Al18  1  0.44406568  0.75607589  0.32540123  1
  Al  Al19  1  0.55812520  0.85963747  0.07486641  1
  Al  Al20  1  0.12285787  0.75288049  0.87573685  1
  Al  Al21  1  0.44802492  0.75719099  0.82889400  1
  Al  Al22  1  0.55520862  0.86879062  0.57739882  1
  Sc  Sc23  1  0.44109892  0.09055176  0.35830139  1
  Sc  Sc24  1  0.11066849  0.09289150  0.85404565  1
  Sc  Sc25  1  0.77897148  0.09504647  0.35185897  1
  Sc  Sc26  1  0.45757631  0.09289000  0.86921422  1
  Sc  Sc27  1  0.12387275  0.42440049  0.36597306  1
  Sc  Sc28  1  0.76755702  0.42882159  0.85193434  1
  Sc  Sc29  1  0.89152448  0.53415076  0.60518018  1
  Sc  Sc30  1  0.12349210  0.43407772  0.87079567  1
  Sc  Sc31  1  0.78031079  0.42172656  0.33163459  1
  Sc  Sc32  1  0.21490899  0.87758163  0.11763957  1
  Sc  Sc33  1  0.23010984  0.86116416  0.60725686  1
  Sc  Sc34  1  0.77910916  0.75568762  0.34103169  1
  Sc  Sc35  1  0.88242994  0.87558853  0.09639345  1
  N  N36  1  0.21005976  0.19193690  0.32394979  1
  N  N37  1  0.09702293  0.11407678  0.07807909  1
  N  N38  1  0.87465198  0.19423471  0.87087468  1
  N  N39  1  0.78066896  0.09074704  0.60877042  1
  N  N40  1  0.53255922  0.23491654  0.33532393  1
  N  N41  1  0.44673907  0.09278198  0.10154562  1
  N  N42  1  0.23027940  0.20641885  0.82798073  1
  N  N43  1  0.11222140  0.10804957  0.60017708  1
  N  N44  1  0.90709224  0.19523735  0.38740004  1
  N  N45  1  0.76278127  0.11931592  0.12251264  1
  N  N46  1  0.55725770  0.22667888  0.81950308  1
  N  N47  1  0.45002430  0.09245799  0.59617125  1
  N  N48  1  0.23170518  0.55505383  0.32577613  1
  N  N49  1  0.11115175  0.42986278  0.09997983  1
  N  N50  1  0.88303180  0.55803209  0.86156968  1
  N  N51  1  0.76722978  0.41501484  0.62302482  1
  N  N52  1  0.53997806  0.54280669  0.32395439  1
  N  N53  1  0.43893638  0.42789533  0.07744068  1
  N  N54  1  0.23778742  0.54836170  0.82080014  1
  N  N55  1  0.13961338  0.41586448  0.59512021  1
  N  N56  1  0.89266588  0.53202979  0.38973742  1
  N  N57  1  0.77713873  0.42904626  0.09715781  1
  N  N58  1  0.53380335  0.54819057  0.84823501  1
  N  N59  1  0.44363097  0.43473919  0.57651955  1
  N  N60  1  0.22219271  0.87083024  0.35946191  1
  N  N61  1  0.12104597  0.73996492  0.06684200  1
  N  N62  1  0.88573280  0.87633804  0.84143989  1
  N  N63  1  0.76574633  0.78112057  0.62308564  1
  N  N64  1  0.54482090  0.85593859  0.38475523  1
  N  N65  1  0.45365186  0.75782773  0.12423402  1
  N  N66  1  0.23058196  0.85588488  0.83962681  1
  N  N67  1  0.09953147  0.74833045  0.57971044  1
  N  N68  1  0.91014764  0.86127179  0.32349453  1
  N  N69  1  0.76756062  0.74912825  0.11990636  1
  N  N70  1  0.56287585  0.85184242  0.87922995  1
  N  N71  1  0.47022127  0.74706334  0.63015444  1
