# generated using pymatgen
data_Sc13Al23N36
_symmetry_space_group_name_H-M   'P 1'
_cell_length_a   10.15265532
_cell_length_b   10.19165987
_cell_length_c   9.71082731
_cell_angle_alpha   90.54327504
_cell_angle_beta   89.94548137
_cell_angle_gamma   59.81716628
_symmetry_Int_Tables_number   1
_chemical_formula_structural   Sc13Al23N36
_chemical_formula_sum   'Sc13 Al23 N36'
_cell_volume   868.51899790
_cell_formula_units_Z   1
loop_
 _symmetry_equiv_pos_site_id
 _symmetry_equiv_pos_as_xyz
  1  'x, y, z'
loop_
 _atom_site_type_symbol
 _atom_site_label
 _atom_site_symmetry_multiplicity
 _atom_site_fract_x
 _atom_site_fract_y
 _atom_site_fract_z
 _atom_site_occupancy
  Al  Al0  1  0.11326957  0.09255123  0.38780421  1
  Al  Al1  1  0.21507852  0.20465087  0.12642567  1
  Al  Al2  1  0.76758352  0.10406035  0.87753420  1
  Al  Al3  1  0.88224204  0.20253370  0.61904164  1
  Al  Al4  1  0.54662944  0.22069540  0.12751782  1
  Al  Al5  1  0.23207568  0.20639002  0.62898777  1
  Al  Al6  1  0.88567359  0.21263676  0.10588249  1
  Al  Al7  1  0.55706381  0.21128176  0.62746953  1
  Al  Al8  1  0.22920087  0.53937943  0.13175241  1
  Al  Al9  1  0.43911424  0.43920895  0.37946855  1
  Al  Al10  1  0.55024580  0.53781044  0.12812143  1
  Al  Al11  1  0.23047401  0.53606134  0.62574388  1
  Al  Al12  1  0.88323042  0.54154927  0.07193720  1
  Al  Al13  1  0.44245825  0.43464779  0.87920894  1
  Al  Al14  1  0.55120480  0.53312949  0.62993305  1
  Al  Al15  1  0.11069708  0.75893982  0.38055345  1
  Al  Al16  1  0.76871775  0.76787329  0.82408203  1
  Al  Al17  1  0.88474408  0.87985017  0.63661924  1
  Al  Al18  1  0.44155531  0.75902707  0.32745901  1
  Al  Al19  1  0.55842972  0.85812406  0.07367991  1
  Al  Al20  1  0.12397436  0.75147306  0.87168813  1
  Al  Al21  1  0.44791358  0.75584544  0.82380204  1
  Al  Al22  1  0.55459909  0.87053636  0.57551455  1
  Sc  Sc23  1  0.44384319  0.09258704  0.35474791  1
  Sc  Sc24  1  0.10983437  0.09329796  0.85260775  1
  Sc  Sc25  1  0.78015293  0.09312339  0.36126252  1
  Sc  Sc26  1  0.45624194  0.08973523  0.86126028  1
  Sc  Sc27  1  0.12241692  0.42401615  0.36126764  1
  Sc  Sc28  1  0.76615894  0.42927675  0.85454358  1
  Sc  Sc29  1  0.89312514  0.53738299  0.60620521  1
  Sc  Sc30  1  0.12317745  0.43312575  0.86794370  1
  Sc  Sc31  1  0.77319575  0.42542665  0.36152687  1
  Sc  Sc32  1  0.21794157  0.87505782  0.11183345  1
  Sc  Sc33  1  0.22750793  0.86325322  0.60262616  1
  Sc  Sc34  1  0.77949329  0.75817053  0.34231660  1
  Sc  Sc35  1  0.88803396  0.86758838  0.09511996  1
  N  N36  1  0.21372778  0.18996736  0.32268925  1
  N  N37  1  0.09753574  0.11436576  0.07373467  1
  N  N38  1  0.87721400  0.19535268  0.82806774  1
  N  N39  1  0.77702691  0.09059827  0.58606437  1
  N  N40  1  0.54002518  0.23340705  0.32247133  1
  N  N41  1  0.44666008  0.09213336  0.09656157  1
  N  N42  1  0.22881395  0.20599805  0.82452641  1
  N  N43  1  0.10679725  0.11071467  0.59231367  1
  N  N44  1  0.90911344  0.19332575  0.34357837  1
  N  N45  1  0.76289384  0.11807280  0.08058885  1
  N  N46  1  0.55970603  0.22338051  0.82508080  1
  N  N47  1  0.45063057  0.09353170  0.59637378  1
  N  N48  1  0.23217129  0.55350753  0.32596746  1
  N  N49  1  0.11193414  0.42889966  0.09916670  1
  N  N50  1  0.88294372  0.55667427  0.85771650  1
  N  N51  1  0.76579335  0.41781100  0.60362397  1
  N  N52  1  0.53569641  0.54597958  0.32785494  1
  N  N53  1  0.44097188  0.43072699  0.07475928  1
  N  N54  1  0.23782873  0.54695394  0.81894981  1
  N  N55  1  0.13887458  0.41605718  0.59292289  1
  N  N56  1  0.89303869  0.53497927  0.38701008  1
  N  N57  1  0.77406105  0.43030328  0.09419103  1
  N  N58  1  0.53430275  0.54563629  0.83177983  1
  N  N59  1  0.44503765  0.42919292  0.57544706  1
  N  N60  1  0.22097245  0.87132002  0.35711092  1
  N  N61  1  0.12441740  0.73724870  0.06492390  1
  N  N62  1  0.88403868  0.87805461  0.84447163  1
  N  N63  1  0.76496449  0.78427291  0.62155744  1
  N  N64  1  0.54491744  0.85880876  0.38007256  1
  N  N65  1  0.45517131  0.75535577  0.12284155  1
  N  N66  1  0.23154101  0.85542218  0.83985017  1
  N  N67  1  0.09611969  0.75079038  0.58047972  1
  N  N68  1  0.91129232  0.86236109  0.31637335  1
  N  N69  1  0.76788155  0.74802400  0.11736988  1
  N  N70  1  0.56259621  0.84915290  0.87603503  1
  N  N71  1  0.46699945  0.74964126  0.62232892  1
