# generated using pymatgen
data_Sc13Al23N36
_symmetry_space_group_name_H-M   'P 1'
_cell_length_a   10.02209408
_cell_length_b   10.04884304
_cell_length_c   10.02968889
_cell_angle_alpha   89.49938850
_cell_angle_beta   89.77107835
_cell_angle_gamma   60.08973734
_symmetry_Int_Tables_number   1
_chemical_formula_structural   Sc13Al23N36
_chemical_formula_sum   'Sc13 Al23 N36'
_cell_volume   875.52392481
_cell_formula_units_Z   1
loop_
 _symmetry_equiv_pos_site_id
 _symmetry_equiv_pos_as_xyz
  1  'x, y, z'
loop_
 _atom_site_type_symbol
 _atom_site_label
 _atom_site_symmetry_multiplicity
 _atom_site_fract_x
 _atom_site_fract_y
 _atom_site_fract_z
 _atom_site_occupancy
  Al  Al0  1  0.10947636  0.09503676  0.31128097  1
  Al  Al1  1  0.22093172  0.20894031  0.06444063  1
  Al  Al2  1  0.77510837  0.09583987  0.80677828  1
  Al  Al3  1  0.88993574  0.20707679  0.56350759  1
  Al  Al4  1  0.55633388  0.21650776  0.05879956  1
  Al  Al5  1  0.22440797  0.20390207  0.55820238  1
  Al  Al6  1  0.88141203  0.20978664  0.06196013  1
  Al  Al7  1  0.54638985  0.21601451  0.56576586  1
  Al  Al8  1  0.23268032  0.53084650  0.05776205  1
  Al  Al9  1  0.43899306  0.43810384  0.31211327  1
  Al  Al10  1  0.55078457  0.53990554  0.06147565  1
  Al  Al11  1  0.23237012  0.53289153  0.55962253  1
  Al  Al12  1  0.88726563  0.54152402  0.04890174  1
  Al  Al13  1  0.44536482  0.43415467  0.81021531  1
  Al  Al14  1  0.55324108  0.53513135  0.56165726  1
  Al  Al15  1  0.11370374  0.76179590  0.37145505  1
  Al  Al16  1  0.77330009  0.76793632  0.80959910  1
  Al  Al17  1  0.88562839  0.87545591  0.58266542  1
  Al  Al18  1  0.44369732  0.75573261  0.31603160  1
  Al  Al19  1  0.56194829  0.85721013  0.05859928  1
  Al  Al20  1  0.11526902  0.75763674  0.86827301  1
  Al  Al21  1  0.45136361  0.75027313  0.81254819  1
  Al  Al22  1  0.55283259  0.87195190  0.56601532  1
  Sc  Sc23  1  0.44430352  0.09231248  0.31811280  1
  Sc  Sc24  1  0.10881141  0.09321987  0.82561555  1
  Sc  Sc25  1  0.77390848  0.10165392  0.33199231  1
  Sc  Sc26  1  0.45450563  0.08829685  0.82587899  1
  Sc  Sc27  1  0.11572900  0.42926185  0.31717032  1
  Sc  Sc28  1  0.76651660  0.42587955  0.82869477  1
  Sc  Sc29  1  0.88795805  0.53686785  0.58300571  1
  Sc  Sc30  1  0.12243883  0.42834573  0.81906092  1
  Sc  Sc31  1  0.77289810  0.42700212  0.31190749  1
  Sc  Sc32  1  0.22883052  0.86901246  0.08662655  1
  Sc  Sc33  1  0.22728890  0.87241758  0.58099780  1
  Sc  Sc34  1  0.77233106  0.75753455  0.32233187  1
  Sc  Sc35  1  0.88049632  0.87861366  0.07712874  1
  N  N36  1  0.21476710  0.19496982  0.36739491  1
  N  N37  1  0.09767381  0.11602018  0.11556930  1
  N  N38  1  0.87899783  0.19052999  0.87488520  1
  N  N39  1  0.77552370  0.09691129  0.60868353  1
  N  N40  1  0.53591238  0.23339491  0.37794287  1
  N  N41  1  0.45181115  0.08954510  0.09789150  1
  N  N42  1  0.22691097  0.20256455  0.87893257  1
  N  N43  1  0.10255334  0.11442686  0.61520103  1
  N  N44  1  0.90772289  0.19840528  0.37527759  1
  N  N45  1  0.76267619  0.12063076  0.12038832  1
  N  N46  1  0.56417308  0.22022835  0.86579263  1
  N  N47  1  0.44402194  0.09319024  0.60573523  1
  N  N48  1  0.23349811  0.54759020  0.36685470  1
  N  N49  1  0.11135487  0.43038480  0.09651084  1
  N  N50  1  0.88243734  0.55570806  0.85179945  1
  N  N51  1  0.76431179  0.41559116  0.61225673  1
  N  N52  1  0.53633166  0.54785146  0.37175061  1
  N  N53  1  0.44405557  0.42870383  0.11956434  1
  N  N54  1  0.23934873  0.54119680  0.86589994  1
  N  N55  1  0.13607851  0.41592881  0.60280369  1
  N  N56  1  0.88979193  0.53256437  0.37548628  1
  N  N57  1  0.77709813  0.42984287  0.08980902  1
  N  N58  1  0.53348390  0.54823063  0.87471799  1
  N  N59  1  0.44362812  0.43107864  0.62045040  1
  N  N60  1  0.22185013  0.87333327  0.34479027  1
  N  N61  1  0.11725934  0.74492432  0.07020457  1
  N  N62  1  0.88492359  0.87591421  0.84860135  1
  N  N63  1  0.76460706  0.78336275  0.61541178  1
  N  N64  1  0.54039219  0.86250835  0.37857235  1
  N  N65  1  0.46707450  0.74573669  0.12535557  1
  N  N66  1  0.23502390  0.85494011  0.84903310  1
  N  N67  1  0.10275855  0.75385250  0.57693859  1
  N  N68  1  0.90186037  0.86455610  0.34830282  1
  N  N69  1  0.77208708  0.74715396  0.10882628  1
  N  N70  1  0.56468520  0.84847056  0.86921052  1
  N  N71  1  0.46864377  0.74487328  0.62299054  1
