# generated using pymatgen
data_Sc13Al23N36
_symmetry_space_group_name_H-M   'P 1'
_cell_length_a   10.01080957
_cell_length_b   10.03282242
_cell_length_c   10.08677521
_cell_angle_alpha   89.43899565
_cell_angle_beta   89.84098454
_cell_angle_gamma   60.09868149
_symmetry_Int_Tables_number   1
_chemical_formula_structural   Sc13Al23N36
_chemical_formula_sum   'Sc13 Al23 N36'
_cell_volume   878.18132154
_cell_formula_units_Z   1
loop_
 _symmetry_equiv_pos_site_id
 _symmetry_equiv_pos_as_xyz
  1  'x, y, z'
loop_
 _atom_site_type_symbol
 _atom_site_label
 _atom_site_symmetry_multiplicity
 _atom_site_fract_x
 _atom_site_fract_y
 _atom_site_fract_z
 _atom_site_occupancy
  Al  Al0  1  0.10929348  0.09516718  0.31174048  1
  Al  Al1  1  0.22073553  0.20893497  0.06422257  1
  Al  Al2  1  0.77201422  0.10185658  0.80958150  1
  Al  Al3  1  0.88936993  0.20699568  0.56351978  1
  Al  Al4  1  0.55577736  0.21682759  0.05956382  1
  Al  Al5  1  0.22418303  0.20455334  0.55769860  1
  Al  Al6  1  0.88132903  0.21046079  0.06250750  1
  Al  Al7  1  0.54716578  0.21547243  0.56532793  1
  Al  Al8  1  0.23349979  0.52988106  0.05647525  1
  Al  Al9  1  0.43911669  0.43788115  0.31248457  1
  Al  Al10  1  0.55071026  0.54000860  0.06143894  1
  Al  Al11  1  0.23149250  0.53341308  0.55876708  1
  Al  Al12  1  0.88715757  0.54103115  0.04917851  1
  Al  Al13  1  0.44531086  0.43429227  0.80952262  1
  Al  Al14  1  0.55336157  0.53517592  0.56140206  1
  Al  Al15  1  0.10936416  0.76329794  0.37140568  1
  Al  Al16  1  0.77008283  0.76500282  0.81229745  1
  Al  Al17  1  0.88922226  0.87426441  0.62621435  1
  Al  Al18  1  0.44383298  0.75574364  0.31635058  1
  Al  Al19  1  0.56093051  0.85788600  0.05867143  1
  Al  Al20  1  0.11842082  0.75622712  0.87077687  1
  Al  Al21  1  0.45052289  0.75046669  0.81160263  1
  Al  Al22  1  0.55351170  0.87205275  0.56572964  1
  Sc  Sc23  1  0.44387200  0.09269023  0.31774906  1
  Sc  Sc24  1  0.10902788  0.09298377  0.82385558  1
  Sc  Sc25  1  0.77633524  0.09747268  0.33167601  1
  Sc  Sc26  1  0.45372707  0.08879407  0.82490088  1
  Sc  Sc27  1  0.11546039  0.43017040  0.31561715  1
  Sc  Sc28  1  0.76633916  0.42636905  0.82819873  1
  Sc  Sc29  1  0.88767117  0.53760866  0.58119256  1
  Sc  Sc30  1  0.12200548  0.42805410  0.81837736  1
  Sc  Sc31  1  0.77285681  0.42613962  0.31145867  1
  Sc  Sc32  1  0.22899175  0.86975396  0.08696509  1
  Sc  Sc33  1  0.22695973  0.87280423  0.57780036  1
  Sc  Sc34  1  0.77301690  0.75760639  0.31998874  1
  Sc  Sc35  1  0.88415336  0.87691703  0.08813974  1
  N  N36  1  0.21428313  0.19587859  0.36816867  1
  N  N37  1  0.09737652  0.11665911  0.11728923  1
  N  N38  1  0.87986132  0.19124671  0.87651638  1
  N  N39  1  0.77499100  0.09803855  0.61201774  1
  N  N40  1  0.53751174  0.23211631  0.37845278  1
  N  N41  1  0.45116042  0.08979520  0.09871661  1
  N  N42  1  0.22664538  0.20223197  0.87965002  1
  N  N43  1  0.10261307  0.11433526  0.61487683  1
  N  N44  1  0.90749199  0.19719882  0.37645383  1
  N  N45  1  0.76157405  0.12266602  0.11982972  1
  N  N46  1  0.56310464  0.22082792  0.86741489  1
  N  N47  1  0.44382199  0.09351712  0.60631882  1
  N  N48  1  0.23362447  0.54767063  0.36785529  1
  N  N49  1  0.11157290  0.43045872  0.09652686  1
  N  N50  1  0.88267899  0.55456950  0.85388034  1
  N  N51  1  0.76455760  0.41573181  0.61300375  1
  N  N52  1  0.53681516  0.54756526  0.37245745  1
  N  N53  1  0.44365063  0.42897383  0.12044621  1
  N  N54  1  0.24005538  0.53970584  0.86513551  1
  N  N55  1  0.13545417  0.41645055  0.60373388  1
  N  N56  1  0.88966570  0.53258687  0.37504953  1
  N  N57  1  0.77679135  0.43010966  0.09074402  1
  N  N58  1  0.53334736  0.54835096  0.87525509  1
  N  N59  1  0.44338438  0.43128315  0.62061205  1
  N  N60  1  0.22192409  0.87299864  0.34565028  1
  N  N61  1  0.11972864  0.74426241  0.06459266  1
  N  N62  1  0.88845190  0.87425899  0.83365560  1
  N  N63  1  0.76412060  0.78279471  0.61835212  1
  N  N64  1  0.54107353  0.86274026  0.37924267  1
  N  N65  1  0.46690064  0.74577633  0.12645772  1
  N  N66  1  0.23537909  0.85525550  0.84851859  1
  N  N67  1  0.09753153  0.75689079  0.57270175  1
  N  N68  1  0.90776105  0.86055631  0.31298238  1
  N  N69  1  0.77103168  0.74703754  0.10626385  1
  N  N70  1  0.56268531  0.84927523  0.87025127  1
  N  N71  1  0.46827949  0.74512632  0.62302938  1
