# generated using pymatgen
data_Sc13Al23N36
_symmetry_space_group_name_H-M   'P 1'
_cell_length_a   10.01027154
_cell_length_b   10.05777068
_cell_length_c   10.12735253
_cell_angle_alpha   89.88028553
_cell_angle_beta   90.27073814
_cell_angle_gamma   60.02363786
_symmetry_Int_Tables_number   1
_chemical_formula_structural   Sc13Al23N36
_chemical_formula_sum   'Sc13 Al23 N36'
_cell_volume   883.21607100
_cell_formula_units_Z   1
loop_
 _symmetry_equiv_pos_site_id
 _symmetry_equiv_pos_as_xyz
  1  'x, y, z'
loop_
 _atom_site_type_symbol
 _atom_site_label
 _atom_site_symmetry_multiplicity
 _atom_site_fract_x
 _atom_site_fract_y
 _atom_site_fract_z
 _atom_site_occupancy
  Al  Al0  1  0.10869708  0.09329493  0.31584360  1
  Al  Al1  1  0.22010508  0.20888543  0.07080749  1
  Al  Al2  1  0.77239777  0.10144131  0.81225245  1
  Al  Al3  1  0.88922903  0.20604804  0.56711899  1
  Al  Al4  1  0.55650986  0.21002260  0.06316836  1
  Al  Al5  1  0.22321377  0.20453553  0.56495571  1
  Al  Al6  1  0.88050699  0.21032037  0.06648539  1
  Al  Al7  1  0.55008399  0.20975454  0.56952706  1
  Al  Al8  1  0.23178227  0.53750205  0.12800519  1
  Al  Al9  1  0.43391575  0.44033628  0.38519351  1
  Al  Al10  1  0.55366491  0.54308080  0.06615754  1
  Al  Al11  1  0.23011044  0.53986846  0.62770470  1
  Al  Al12  1  0.88562150  0.54098789  0.05703755  1
  Al  Al13  1  0.43904552  0.43819962  0.87853940  1
  Al  Al14  1  0.55567242  0.54016233  0.56842751  1
  Al  Al15  1  0.11191648  0.75717115  0.37305500  1
  Al  Al16  1  0.76986456  0.76597289  0.81708769  1
  Al  Al17  1  0.89138476  0.87209302  0.63104903  1
  Al  Al18  1  0.44371540  0.75659090  0.31907253  1
  Al  Al19  1  0.55969773  0.85997339  0.06232263  1
  Al  Al20  1  0.12159822  0.75394258  0.87386894  1
  Al  Al21  1  0.44938939  0.75439935  0.81527126  1
  Al  Al22  1  0.55436688  0.87184553  0.56899419  1
  Sc  Sc23  1  0.44279178  0.09068905  0.32235297  1
  Sc  Sc24  1  0.10811558  0.09381439  0.82791089  1
  Sc  Sc25  1  0.77779056  0.09484336  0.33176141  1
  Sc  Sc26  1  0.45154448  0.08961870  0.82585212  1
  Sc  Sc27  1  0.11440176  0.42610361  0.33021356  1
  Sc  Sc28  1  0.76651535  0.42607197  0.83086111  1
  Sc  Sc29  1  0.88916768  0.53727506  0.58818985  1
  Sc  Sc30  1  0.12011256  0.43133583  0.83809191  1
  Sc  Sc31  1  0.77220563  0.42531734  0.31762454  1
  Sc  Sc32  1  0.22858063  0.86912290  0.08737046  1
  Sc  Sc33  1  0.22622894  0.87325946  0.57646561  1
  Sc  Sc34  1  0.77441146  0.75698005  0.32330241  1
  Sc  Sc35  1  0.88675300  0.87334172  0.09018057  1
  N  N36  1  0.21363928  0.19305570  0.37585385  1
  N  N37  1  0.09730926  0.11546546  0.12241290  1
  N  N38  1  0.87873995  0.19220571  0.88103256  1
  N  N39  1  0.77712136  0.09600370  0.61571700  1
  N  N40  1  0.54113747  0.22384921  0.37958903  1
  N  N41  1  0.45048940  0.08880830  0.10470875  1
  N  N42  1  0.22566974  0.20310477  0.88648429  1
  N  N43  1  0.10268073  0.11267465  0.61970211  1
  N  N44  1  0.90687622  0.19605155  0.38079223  1
  N  N45  1  0.76285273  0.11974815  0.12116913  1
  N  N46  1  0.56357014  0.21659153  0.86691152  1
  N  N47  1  0.44397894  0.09250953  0.60969081  1
  N  N48  1  0.23389402  0.55133286  0.31700561  1
  N  N49  1  0.11040294  0.43040564  0.10398225  1
  N  N50  1  0.88055005  0.55598493  0.86151401  1
  N  N51  1  0.76585533  0.41515158  0.61777354  1
  N  N52  1  0.53905932  0.55153438  0.37726199  1
  N  N53  1  0.44061070  0.42902286  0.07468084  1
  N  N54  1  0.23664757  0.55260491  0.81422487  1
  N  N55  1  0.13486346  0.41555651  0.61217818  1
  N  N56  1  0.88787425  0.53349787  0.38229043  1
  N  N57  1  0.77700700  0.42947555  0.09818909  1
  N  N58  1  0.53659637  0.55436654  0.87828927  1
  N  N59  1  0.44011314  0.43405143  0.58062216  1
  N  N60  1  0.22186580  0.87184274  0.35006174  1
  N  N61  1  0.12390397  0.73672223  0.06011319  1
  N  N62  1  0.89104689  0.87367633  0.83519220  1
  N  N63  1  0.76460689  0.78237893  0.62396468  1
  N  N64  1  0.54283144  0.86158337  0.38343442  1
  N  N65  1  0.46578449  0.74822040  0.13041841  1
  N  N66  1  0.23525766  0.85781449  0.85654244  1
  N  N67  1  0.09910227  0.75194163  0.56787152  1
  N  N68  1  0.91081738  0.85818434  0.31075955  1
  N  N69  1  0.76985488  0.74770526  0.11056762  1
  N  N70  1  0.56246156  0.85215926  0.87463572  1
  N  N71  1  0.46641694  0.74909906  0.62777516  1
