# generated using pymatgen
data_Sc13Al23N36
_symmetry_space_group_name_H-M   'P 1'
_cell_length_a   10.11180672
_cell_length_b   10.14800901
_cell_length_c   9.84539322
_cell_angle_alpha   90.06203739
_cell_angle_beta   90.13639580
_cell_angle_gamma   59.95356970
_symmetry_Int_Tables_number   1
_chemical_formula_structural   Sc13Al23N36
_chemical_formula_sum   'Sc13 Al23 N36'
_cell_volume   874.51786755
_cell_formula_units_Z   1
loop_
 _symmetry_equiv_pos_site_id
 _symmetry_equiv_pos_as_xyz
  1  'x, y, z'
loop_
 _atom_site_type_symbol
 _atom_site_label
 _atom_site_symmetry_multiplicity
 _atom_site_fract_x
 _atom_site_fract_y
 _atom_site_fract_z
 _atom_site_occupancy
  Al  Al0  1  0.10692118  0.08943653  0.31163466  1
  Al  Al1  1  0.21854647  0.20877994  0.11930011  1
  Al  Al2  1  0.77528315  0.09969527  0.81243781  1
  Al  Al3  1  0.89640655  0.20499227  0.57289044  1
  Al  Al4  1  0.54668769  0.21971542  0.13954275  1
  Al  Al5  1  0.22937585  0.20642443  0.64190375  1
  Al  Al6  1  0.87325703  0.20973088  0.06961508  1
  Al  Al7  1  0.54684898  0.21809087  0.62317830  1
  Al  Al8  1  0.22694841  0.53773975  0.13143010  1
  Al  Al9  1  0.43387892  0.44090162  0.38168008  1
  Al  Al10  1  0.55296143  0.54073347  0.07404437  1
  Al  Al11  1  0.23139410  0.53845910  0.62862830  1
  Al  Al12  1  0.88248437  0.54198965  0.06484415  1
  Al  Al13  1  0.44271402  0.43270856  0.88039802  1
  Al  Al14  1  0.55459776  0.53934380  0.57013310  1
  Al  Al15  1  0.11262533  0.75922586  0.37776160  1
  Al  Al16  1  0.76960397  0.76714100  0.82085025  1
  Al  Al17  1  0.89199062  0.87067961  0.62743663  1
  Al  Al18  1  0.44368278  0.75652405  0.32411566  1
  Al  Al19  1  0.56188021  0.85617504  0.07298790  1
  Al  Al20  1  0.12128925  0.75315348  0.87203103  1
  Al  Al21  1  0.45056819  0.75248693  0.82176874  1
  Al  Al22  1  0.55424001  0.87003938  0.57772538  1
  Sc  Sc23  1  0.43755286  0.09207748  0.35919283  1
  Sc  Sc24  1  0.10763683  0.09381823  0.85237987  1
  Sc  Sc25  1  0.77807328  0.09446367  0.35355008  1
  Sc  Sc26  1  0.46137153  0.09075414  0.86758993  1
  Sc  Sc27  1  0.12224015  0.42333133  0.36501630  1
  Sc  Sc28  1  0.76335739  0.42696873  0.83584847  1
  Sc  Sc29  1  0.89087313  0.53491096  0.60199969  1
  Sc  Sc30  1  0.12078089  0.43771341  0.86697949  1
  Sc  Sc31  1  0.77558848  0.42502530  0.32776900  1
  Sc  Sc32  1  0.22943555  0.86075977  0.09443012  1
  Sc  Sc33  1  0.22467889  0.87589307  0.59331792  1
  Sc  Sc34  1  0.77737106  0.75638165  0.33865303  1
  Sc  Sc35  1  0.88381941  0.87596709  0.09713539  1
  N  N36  1  0.21084117  0.19565150  0.31495659  1
  N  N37  1  0.09476537  0.10727609  0.10257079  1
  N  N38  1  0.87337280  0.19533430  0.87872598  1
  N  N39  1  0.78249319  0.09232681  0.60584821  1
  N  N40  1  0.53223328  0.23465776  0.33514031  1
  N  N41  1  0.45088579  0.08891000  0.09951459  1
  N  N42  1  0.23069130  0.20699719  0.84288369  1
  N  N43  1  0.10419959  0.11441079  0.62791345  1
  N  N44  1  0.91107001  0.19436352  0.38053946  1
  N  N45  1  0.76143862  0.11830302  0.12593825  1
  N  N46  1  0.56081572  0.22632498  0.81848286  1
  N  N47  1  0.44604785  0.09329246  0.60141281  1
  N  N48  1  0.23055702  0.55460083  0.32263793  1
  N  N49  1  0.10963016  0.43116000  0.09474606  1
  N  N50  1  0.87968913  0.55599668  0.85817857  1
  N  N51  1  0.76480367  0.41481708  0.61556146  1
  N  N52  1  0.53859218  0.55081174  0.37419386  1
  N  N53  1  0.43940207  0.42597921  0.07826525  1
  N  N54  1  0.23892443  0.54971957  0.81843123  1
  N  N55  1  0.13791319  0.41648072  0.59870575  1
  N  N56  1  0.89126124  0.53213329  0.38785855  1
  N  N57  1  0.77659405  0.42845295  0.10106776  1
  N  N58  1  0.53479345  0.55271898  0.88105617  1
  N  N59  1  0.44097625  0.43170378  0.57739826  1
  N  N60  1  0.22109485  0.87247041  0.34920670  1
  N  N61  1  0.12024103  0.73612871  0.06338108  1
  N  N62  1  0.88798958  0.87557473  0.83748430  1
  N  N63  1  0.76598153  0.78172959  0.62117412  1
  N  N64  1  0.54369396  0.85802598  0.38572814  1
  N  N65  1  0.46527521  0.74689500  0.13091078  1
  N  N66  1  0.23433896  0.85565041  0.85188941  1
  N  N67  1  0.10231341  0.75164634  0.57650153  1
  N  N68  1  0.90962674  0.86102736  0.32331795  1
  N  N69  1  0.77072221  0.74722373  0.11768909  1
  N  N70  1  0.56389958  0.84969200  0.87759400  1
  N  N71  1  0.46709143  0.74727316  0.62955230  1
