# generated using pymatgen
data_Sc13Al23N36
_symmetry_space_group_name_H-M   'P 1'
_cell_length_a   10.11333016
_cell_length_b   10.16398495
_cell_length_c   9.87010770
_cell_angle_alpha   90.44585399
_cell_angle_beta   89.89759106
_cell_angle_gamma   59.78582272
_symmetry_Int_Tables_number   1
_chemical_formula_structural   Sc13Al23N36
_chemical_formula_sum   'Sc13 Al23 N36'
_cell_volume   876.69144996
_cell_formula_units_Z   1
loop_
 _symmetry_equiv_pos_site_id
 _symmetry_equiv_pos_as_xyz
  1  'x, y, z'
loop_
 _atom_site_type_symbol
 _atom_site_label
 _atom_site_symmetry_multiplicity
 _atom_site_fract_x
 _atom_site_fract_y
 _atom_site_fract_z
 _atom_site_occupancy
  Al  Al0  1  0.11785012  0.08977918  0.39350558  1
  Al  Al1  1  0.21186472  0.20644847  0.13049414  1
  Al  Al2  1  0.77206669  0.09976697  0.81610673  1
  Al  Al3  1  0.88731918  0.20651053  0.58127795  1
  Al  Al4  1  0.54594877  0.22165566  0.13856476  1
  Al  Al5  1  0.23404935  0.20560558  0.63481251  1
  Al  Al6  1  0.87804378  0.20848290  0.06670123  1
  Al  Al7  1  0.54756738  0.21624100  0.62412390  1
  Al  Al8  1  0.22665466  0.54094909  0.13377461  1
  Al  Al9  1  0.43815035  0.44267689  0.38309686  1
  Al  Al10  1  0.54844320  0.53821464  0.12664459  1
  Al  Al11  1  0.23035953  0.53661291  0.63074142  1
  Al  Al12  1  0.88307628  0.54341525  0.06898504  1
  Al  Al13  1  0.44271554  0.43396548  0.88301499  1
  Al  Al14  1  0.55289135  0.53232377  0.63687086  1
  Al  Al15  1  0.11136873  0.75860359  0.38312599  1
  Al  Al16  1  0.76890869  0.76790945  0.82319168  1
  Al  Al17  1  0.89052732  0.86985335  0.63179632  1
  Al  Al18  1  0.44369157  0.75688803  0.32679114  1
  Al  Al19  1  0.55803115  0.85846899  0.07474210  1
  Al  Al20  1  0.12270647  0.75290938  0.87620432  1
  Al  Al21  1  0.44774099  0.75745342  0.82581595  1
  Al  Al22  1  0.55536681  0.86933048  0.57585950  1
  Sc  Sc23  1  0.44122943  0.09107314  0.35807794  1
  Sc  Sc24  1  0.11052133  0.09274672  0.85472549  1
  Sc  Sc25  1  0.77865583  0.09522709  0.35083300  1
  Sc  Sc26  1  0.45738850  0.09241684  0.87073378  1
  Sc  Sc27  1  0.12511794  0.42422985  0.36705920  1
  Sc  Sc28  1  0.76679216  0.42930533  0.85185243  1
  Sc  Sc29  1  0.89180662  0.53436365  0.60507534  1
  Sc  Sc30  1  0.12346505  0.43352980  0.87180376  1
  Sc  Sc31  1  0.78126206  0.42151682  0.33508107  1
  Sc  Sc32  1  0.21489487  0.87762391  0.11877944  1
  Sc  Sc33  1  0.22942246  0.86151160  0.60711943  1
  Sc  Sc34  1  0.77984667  0.75537648  0.33951009  1
  Sc  Sc35  1  0.88234244  0.87578027  0.09623006  1
  N  N36  1  0.20989697  0.19199235  0.32330218  1
  N  N37  1  0.09706268  0.11421880  0.07748332  1
  N  N38  1  0.87390539  0.19485721  0.87200883  1
  N  N39  1  0.78084157  0.09070381  0.60952945  1
  N  N40  1  0.53194399  0.23587344  0.33326151  1
  N  N41  1  0.44643037  0.09301259  0.10090028  1
  N  N42  1  0.23053228  0.20592863  0.82681361  1
  N  N43  1  0.11233248  0.10812269  0.59961048  1
  N  N44  1  0.90733856  0.19458746  0.38799619  1
  N  N45  1  0.76297178  0.11934664  0.12299529  1
  N  N46  1  0.55682948  0.22623871  0.81965169  1
  N  N47  1  0.45014499  0.09283679  0.59445406  1
  N  N48  1  0.23235243  0.55527009  0.32456879  1
  N  N49  1  0.11143761  0.42978465  0.09953476  1
  N  N50  1  0.88281141  0.55795552  0.86250064  1
  N  N51  1  0.76796074  0.41495672  0.62210192  1
  N  N52  1  0.54007328  0.54274527  0.32554664  1
  N  N53  1  0.44018158  0.42919318  0.07609380  1
  N  N54  1  0.23722376  0.54825371  0.82083439  1
  N  N55  1  0.14002089  0.41544677  0.59460719  1
  N  N56  1  0.89364641  0.53233514  0.39064121  1
  N  N57  1  0.77573086  0.42972363  0.09837513  1
  N  N58  1  0.53305629  0.54714191  0.83735205  1
  N  N59  1  0.44355815  0.43395828  0.57625481  1
  N  N60  1  0.22207094  0.87104200  0.35962529  1
  N  N61  1  0.12117447  0.74016506  0.06624527  1
  N  N62  1  0.88584679  0.87626911  0.84133589  1
  N  N63  1  0.76528889  0.78139772  0.62429667  1
  N  N64  1  0.54570893  0.85622540  0.38417557  1
  N  N65  1  0.45389125  0.75664720  0.12586821  1
  N  N66  1  0.23042667  0.85568536  0.83849933  1
  N  N67  1  0.09935502  0.74763314  0.57878890  1
  N  N68  1  0.91058111  0.86138748  0.32228875  1
  N  N69  1  0.76752920  0.74903150  0.12012823  1
  N  N70  1  0.56263359  0.85082322  0.88011942  1
  N  N71  1  0.46940755  0.74864268  0.62798469  1
