# generated using pymatgen
data_Sc13Al23N36
_symmetry_space_group_name_H-M   'P 1'
_cell_length_a   10.04486092
_cell_length_b   10.08261241
_cell_length_c   9.99891465
_cell_angle_alpha   89.85524034
_cell_angle_beta   90.24925061
_cell_angle_gamma   60.03527531
_symmetry_Int_Tables_number   1
_chemical_formula_structural   Sc13Al23N36
_chemical_formula_sum   'Sc13 Al23 N36'
_cell_volume   877.29217902
_cell_formula_units_Z   1
loop_
 _symmetry_equiv_pos_site_id
 _symmetry_equiv_pos_as_xyz
  1  'x, y, z'
loop_
 _atom_site_type_symbol
 _atom_site_label
 _atom_site_symmetry_multiplicity
 _atom_site_fract_x
 _atom_site_fract_y
 _atom_site_fract_z
 _atom_site_occupancy
  Al  Al0  1  0.10883559  0.09350129  0.31960165  1
  Al  Al1  1  0.22027044  0.20880254  0.07542560  1
  Al  Al2  1  0.77283617  0.10106077  0.81644536  1
  Al  Al3  1  0.88995141  0.20632234  0.57183830  1
  Al  Al4  1  0.55507986  0.21755094  0.06555802  1
  Al  Al5  1  0.22484033  0.20281817  0.56964637  1
  Al  Al6  1  0.88063802  0.20966742  0.07099020  1
  Al  Al7  1  0.54896630  0.21224482  0.57600223  1
  Al  Al8  1  0.22990400  0.53807627  0.13124855  1
  Al  Al9  1  0.44006434  0.43739525  0.34616287  1
  Al  Al10  1  0.54927595  0.53925611  0.06844615  1
  Al  Al11  1  0.22608226  0.54140351  0.62670617  1
  Al  Al12  1  0.88547487  0.54143927  0.06200702  1
  Al  Al13  1  0.44690233  0.43494603  0.82346153  1
  Al  Al14  1  0.55544642  0.53725405  0.57365244  1
  Al  Al15  1  0.11022739  0.75969410  0.37692636  1
  Al  Al16  1  0.76991839  0.76632460  0.82085748  1
  Al  Al17  1  0.89059503  0.87292011  0.63319506  1
  Al  Al18  1  0.44367752  0.75616752  0.32407224  1
  Al  Al19  1  0.56061460  0.85751471  0.06778232  1
  Al  Al20  1  0.12134123  0.75410497  0.87764889  1
  Al  Al21  1  0.44971876  0.75312838  0.81990493  1
  Al  Al22  1  0.55354760  0.87229883  0.57369627  1
  Sc  Sc23  1  0.44373029  0.09141483  0.32576669  1
  Sc  Sc24  1  0.10854605  0.09329519  0.83403376  1
  Sc  Sc25  1  0.77657488  0.09662666  0.33803865  1
  Sc  Sc26  1  0.45245281  0.08849327  0.83475015  1
  Sc  Sc27  1  0.11431486  0.42600315  0.33946712  1
  Sc  Sc28  1  0.76773032  0.42604559  0.83843534  1
  Sc  Sc29  1  0.88868168  0.53666199  0.59470995  1
  Sc  Sc30  1  0.12086920  0.43171765  0.84487574  1
  Sc  Sc31  1  0.77114974  0.42657891  0.32135408  1
  Sc  Sc32  1  0.22888206  0.86797334  0.09391525  1
  Sc  Sc33  1  0.22645138  0.87289289  0.58333864  1
  Sc  Sc34  1  0.77481819  0.75784973  0.33105688  1
  Sc  Sc35  1  0.88531915  0.87449464  0.09393299  1
  N  N36  1  0.21545098  0.19131374  0.37761725  1
  N  N37  1  0.09764555  0.11489725  0.12384047  1
  N  N38  1  0.87904542  0.19179120  0.88329103  1
  N  N39  1  0.77766622  0.09569250  0.61782027  1
  N  N40  1  0.53840646  0.22849967  0.38707278  1
  N  N41  1  0.45116781  0.08925832  0.10564961  1
  N  N42  1  0.22571796  0.20310684  0.88854149  1
  N  N43  1  0.10317554  0.11246188  0.62298472  1
  N  N44  1  0.90675626  0.19730357  0.38274044  1
  N  N45  1  0.76222276  0.12002732  0.12427454  1
  N  N46  1  0.56254651  0.21994286  0.86989147  1
  N  N47  1  0.44456220  0.09214823  0.61494866  1
  N  N48  1  0.22839582  0.55403507  0.32609782  1
  N  N49  1  0.11072321  0.43046124  0.10654952  1
  N  N50  1  0.88131465  0.55637772  0.86300141  1
  N  N51  1  0.76650489  0.41474269  0.62192565  1
  N  N52  1  0.53658875  0.55046797  0.38364322  1
  N  N53  1  0.44673240  0.42719248  0.11415071  1
  N  N54  1  0.23175830  0.55466071  0.81840678  1
  N  N55  1  0.13517403  0.41530071  0.61048909  1
  N  N56  1  0.88669500  0.53342676  0.38560055  1
  N  N57  1  0.77641482  0.42962390  0.09893657  1
  N  N58  1  0.53441584  0.55073029  0.87980082  1
  N  N59  1  0.44779681  0.42949792  0.61874493  1
  N  N60  1  0.22158613  0.87203487  0.35232295  1
  N  N61  1  0.12286100  0.73772184  0.06601500  1
  N  N62  1  0.88935475  0.87461587  0.84010233  1
  N  N63  1  0.76480748  0.78273670  0.62489188  1
  N  N64  1  0.54195246  0.86233923  0.38551448  1
  N  N65  1  0.46636539  0.74539699  0.13304102  1
  N  N66  1  0.23535986  0.85687283  0.85825588  1
  N  N67  1  0.09852138  0.75369965  0.57272941  1
  N  N68  1  0.90858420  0.86118161  0.31720723  1
  N  N69  1  0.77026751  0.74749805  0.11534167  1
  N  N70  1  0.56326192  0.84986466  0.87788746  1
  N  N71  1  0.46690774  0.74807776  0.63037080  1
