# generated using pymatgen
data_Sc13Al23N36
_symmetry_space_group_name_H-M   'P 1'
_cell_length_a   9.94386199
_cell_length_b   9.96870661
_cell_length_c   10.17768708
_cell_angle_alpha   89.99739557
_cell_angle_beta   90.03395261
_cell_angle_gamma   59.96671121
_symmetry_Int_Tables_number   1
_chemical_formula_structural   Sc13Al23N36
_chemical_formula_sum   'Sc13 Al23 N36'
_cell_volume   873.42926797
_cell_formula_units_Z   1
loop_
 _symmetry_equiv_pos_site_id
 _symmetry_equiv_pos_as_xyz
  1  'x, y, z'
loop_
 _atom_site_type_symbol
 _atom_site_label
 _atom_site_symmetry_multiplicity
 _atom_site_fract_x
 _atom_site_fract_y
 _atom_site_fract_z
 _atom_site_occupancy
  Al  Al0  1  0.10925029  0.09517033  0.41050588  1
  Al  Al1  1  0.22090887  0.20165906  0.15661955  1
  Al  Al2  1  0.77048678  0.10357612  0.90151438  1
  Al  Al3  1  0.88129556  0.20552392  0.65466961  1
  Al  Al4  1  0.54938802  0.21824910  0.14988058  1
  Al  Al5  1  0.22467001  0.20932900  0.65216965  1
  Al  Al6  1  0.88969113  0.20833079  0.15343482  1
  Al  Al7  1  0.55663222  0.21102354  0.65466654  1
  Al  Al8  1  0.23135857  0.53916890  0.15486856  1
  Al  Al9  1  0.43840029  0.44002757  0.40185397  1
  Al  Al10  1  0.54895574  0.54116609  0.15200016  1
  Al  Al11  1  0.22763392  0.53502668  0.65098864  1
  Al  Al12  1  0.88475797  0.53767166  0.15811633  1
  Al  Al13  1  0.44286253  0.43469724  0.89958218  1
  Al  Al14  1  0.55327575  0.53574567  0.65347466  1
  Al  Al15  1  0.11115428  0.75849640  0.40823171  1
  Al  Al16  1  0.77244519  0.75842992  0.90422469  1
  Al  Al17  1  0.88334041  0.87525452  0.66358059  1
  Al  Al18  1  0.44607154  0.75628270  0.40595772  1
  Al  Al19  1  0.55293118  0.86430034  0.14767407  1
  Al  Al20  1  0.12285298  0.75287282  0.89606151  1
  Al  Al21  1  0.44583593  0.75288804  0.89916129  1
  Al  Al22  1  0.56004009  0.86764036  0.65746333  1
  Sc  Sc23  1  0.44406828  0.09176942  0.39643327  1
  Sc  Sc24  1  0.11065942  0.08990071  0.89083522  1
  Sc  Sc25  1  0.78044699  0.09251970  0.39646523  1
  Sc  Sc26  1  0.45216941  0.09098569  0.89305938  1
  Sc  Sc27  1  0.12197472  0.42540823  0.38499662  1
  Sc  Sc28  1  0.76965754  0.43015201  0.90197856  1
  Sc  Sc29  1  0.89046185  0.53944029  0.64408189  1
  Sc  Sc30  1  0.11534954  0.43482075  0.90846275  1
  Sc  Sc31  1  0.76757522  0.42509896  0.39119396  1
  Sc  Sc32  1  0.22619566  0.86884345  0.16021990  1
  Sc  Sc33  1  0.22557392  0.86665449  0.63270199  1
  Sc  Sc34  1  0.77425009  0.76833752  0.39426666  1
  Sc  Sc35  1  0.89056435  0.87096289  0.12619200  1
  N  N36  1  0.21599582  0.18897100  0.34208757  1
  N  N37  1  0.10356172  0.10753686  0.09888169  1
  N  N38  1  0.87807784  0.19854713  0.83983081  1
  N  N39  1  0.77790844  0.09112414  0.60752910  1
  N  N40  1  0.54234970  0.23145285  0.33781552  1
  N  N41  1  0.44552086  0.09372762  0.10898610  1
  N  N42  1  0.22180066  0.21050907  0.83783180  1
  N  N43  1  0.09905088  0.11637501  0.60125562  1
  N  N44  1  0.90880284  0.19150997  0.33920560  1
  N  N45  1  0.76484767  0.11904020  0.09288994  1
  N  N46  1  0.56011485  0.22185267  0.84246096  1
  N  N47  1  0.44833443  0.09142096  0.61444378  1
  N  N48  1  0.23203967  0.55579064  0.34054549  1
  N  N49  1  0.11454460  0.42725831  0.12443061  1
  N  N50  1  0.88416560  0.55208369  0.85067042  1
  N  N51  1  0.76668312  0.41752632  0.60500056  1
  N  N52  1  0.52953640  0.55402487  0.33773721  1
  N  N53  1  0.44267033  0.43045759  0.08961328  1
  N  N54  1  0.23384689  0.54461150  0.83726015  1
  N  N55  1  0.13337588  0.41837854  0.59785557  1
  N  N56  1  0.88645577  0.53926335  0.34736877  1
  N  N57  1  0.77411219  0.42826684  0.11814456  1
  N  N58  1  0.53807147  0.54615870  0.84027736  1
  N  N59  1  0.44436488  0.42966618  0.59184551  1
  N  N60  1  0.22128003  0.87210636  0.38132388  1
  N  N61  1  0.12864232  0.73990820  0.08195802  1
  N  N62  1  0.88480397  0.87439380  0.86129586  1
  N  N63  1  0.76845923  0.78294185  0.60327618  1
  N  N64  1  0.54220177  0.86115221  0.33327347  1
  N  N65  1  0.45726440  0.75038599  0.08719225  1
  N  N66  1  0.23336094  0.85348564  0.84475596  1
  N  N67  1  0.09538720  0.74998670  0.59720503  1
  N  N68  1  0.91068646  0.86299244  0.33356094  1
  N  N69  1  0.76783785  0.74927343  0.09579521  1
  N  N70  1  0.56246536  0.85079854  0.84500867  1
  N  N71  1  0.47168047  0.74648499  0.59194157  1
