# generated using pymatgen
data_Sc13Al23N36
_symmetry_space_group_name_H-M   'P 1'
_cell_length_a   10.02084557
_cell_length_b   10.07587764
_cell_length_c   10.09182765
_cell_angle_alpha   90.51658119
_cell_angle_beta   90.01350346
_cell_angle_gamma   59.78099093
_symmetry_Int_Tables_number   1
_chemical_formula_structural   Sc13Al23N36
_chemical_formula_sum   'Sc13 Al23 N36'
_cell_volume   880.44453665
_cell_formula_units_Z   1
loop_
 _symmetry_equiv_pos_site_id
 _symmetry_equiv_pos_as_xyz
  1  'x, y, z'
loop_
 _atom_site_type_symbol
 _atom_site_label
 _atom_site_symmetry_multiplicity
 _atom_site_fract_x
 _atom_site_fract_y
 _atom_site_fract_z
 _atom_site_occupancy
  Al  Al0  1  0.10938984  0.09676448  0.38510408  1
  Al  Al1  1  0.21768634  0.20583624  0.13051112  1
  Al  Al2  1  0.77046635  0.10471199  0.88155849  1
  Al  Al3  1  0.88350349  0.20021338  0.63195698  1
  Al  Al4  1  0.54914488  0.21952212  0.12811483  1
  Al  Al5  1  0.22884162  0.20635480  0.62860301  1
  Al  Al6  1  0.88752772  0.21402576  0.12892497  1
  Al  Al7  1  0.55749659  0.21078398  0.63067916  1
  Al  Al8  1  0.22874025  0.53921282  0.13231771  1
  Al  Al9  1  0.43951710  0.43831205  0.38060430  1
  Al  Al10  1  0.55253728  0.53710976  0.13410825  1
  Al  Al11  1  0.23016137  0.53638362  0.62915477  1
  Al  Al12  1  0.88312585  0.54095699  0.06757683  1
  Al  Al13  1  0.44253567  0.43540055  0.88159169  1
  Al  Al14  1  0.55177195  0.53082546  0.63406550  1
  Al  Al15  1  0.10981713  0.75723413  0.38301158  1
  Al  Al16  1  0.76789599  0.76794484  0.82466160  1
  Al  Al17  1  0.88560562  0.87917705  0.64154967  1
  Al  Al18  1  0.44325597  0.75960017  0.32799715  1
  Al  Al19  1  0.55446851  0.86007940  0.06936843  1
  Al  Al20  1  0.12469252  0.75287648  0.87473678  1
  Al  Al21  1  0.44694154  0.75714480  0.81491352  1
  Al  Al22  1  0.55772773  0.86940676  0.57346999  1
  Sc  Sc23  1  0.44421471  0.09483047  0.36382007  1
  Sc  Sc24  1  0.11146953  0.09029190  0.86603339  1
  Sc  Sc25  1  0.78254798  0.09033282  0.36791110  1
  Sc  Sc26  1  0.45471956  0.09142751  0.86445862  1
  Sc  Sc27  1  0.12191333  0.42506541  0.36875415  1
  Sc  Sc28  1  0.76700994  0.42488696  0.86552137  1
  Sc  Sc29  1  0.89157968  0.53861363  0.60805568  1
  Sc  Sc30  1  0.12401785  0.43111251  0.87229436  1
  Sc  Sc31  1  0.77136257  0.42243960  0.37907113  1
  Sc  Sc32  1  0.21335714  0.87712694  0.12998446  1
  Sc  Sc33  1  0.22381929  0.86817734  0.60169070  1
  Sc  Sc34  1  0.77910291  0.75413162  0.32846855  1
  Sc  Sc35  1  0.88735596  0.87038873  0.09451117  1
  N  N36  1  0.21430780  0.19124232  0.31819206  1
  N  N37  1  0.10000911  0.11399002  0.07445799  1
  N  N38  1  0.88129521  0.19119607  0.81737283  1
  N  N39  1  0.77916860  0.08925131  0.58180015  1
  N  N40  1  0.54415819  0.23170063  0.31663752  1
  N  N41  1  0.44612362  0.09461537  0.09032711  1
  N  N42  1  0.22649905  0.20436917  0.81537259  1
  N  N43  1  0.10024192  0.11700676  0.57762652  1
  N  N44  1  0.90891313  0.19306470  0.31645695  1
  N  N45  1  0.76471607  0.12059305  0.07362020  1
  N  N46  1  0.56150042  0.22322871  0.82111773  1
  N  N47  1  0.44966636  0.09503793  0.59170892  1
  N  N48  1  0.23242218  0.55302994  0.32010711  1
  N  N49  1  0.11186144  0.42930145  0.09455079  1
  N  N50  1  0.88231879  0.55502743  0.85996959  1
  N  N51  1  0.76595408  0.41395352  0.59869392  1
  N  N52  1  0.53781588  0.54414284  0.32530601  1
  N  N53  1  0.44195399  0.43113694  0.07148336  1
  N  N54  1  0.23682398  0.54719964  0.81583682  1
  N  N55  1  0.13903583  0.41641767  0.58869317  1
  N  N56  1  0.88992532  0.53656617  0.39536128  1
  N  N57  1  0.77316198  0.43064845  0.08809754  1
  N  N58  1  0.53524256  0.54436387  0.82544399  1
  N  N59  1  0.44478760  0.42852049  0.57101735  1
  N  N60  1  0.21990069  0.87200280  0.35799419  1
  N  N61  1  0.12662985  0.73778363  0.06072401  1
  N  N62  1  0.88629236  0.87802340  0.84428471  1
  N  N63  1  0.76343723  0.78511597  0.63313612  1
  N  N64  1  0.54775306  0.85835657  0.38544519  1
  N  N65  1  0.45323435  0.75853469  0.13119207  1
  N  N66  1  0.22926275  0.85583792  0.82555578  1
  N  N67  1  0.09490914  0.74980967  0.57444176  1
  N  N68  1  0.91180232  0.86141933  0.30924047  1
  N  N69  1  0.76651749  0.74834314  0.11519530  1
  N  N70  1  0.55992338  0.84891431  0.87976780  1
  N  N71  1  0.46808583  0.74990487  0.62232872  1
