# generated using pymatgen
data_Sc13Al23N36
_symmetry_space_group_name_H-M   'P 1'
_cell_length_a   10.03864496
_cell_length_b   10.08232420
_cell_length_c   10.00450991
_cell_angle_alpha   90.79533081
_cell_angle_beta   90.33978955
_cell_angle_gamma   59.80812559
_symmetry_Int_Tables_number   1
_chemical_formula_structural   Sc13Al23N36
_chemical_formula_sum   'Sc13 Al23 N36'
_cell_volume   875.13912540
_cell_formula_units_Z   1
loop_
 _symmetry_equiv_pos_site_id
 _symmetry_equiv_pos_as_xyz
  1  'x, y, z'
loop_
 _atom_site_type_symbol
 _atom_site_label
 _atom_site_symmetry_multiplicity
 _atom_site_fract_x
 _atom_site_fract_y
 _atom_site_fract_z
 _atom_site_occupancy
  Al  Al0  1  0.11077674  0.09456377  0.39934499  1
  Al  Al1  1  0.22077503  0.20019180  0.14065745  1
  Al  Al2  1  0.77034577  0.10668686  0.89097726  1
  Al  Al3  1  0.87936873  0.20716123  0.64309611  1
  Al  Al4  1  0.55028547  0.21893492  0.13703584  1
  Al  Al5  1  0.22558368  0.21132632  0.64063386  1
  Al  Al6  1  0.89114638  0.20661260  0.13998161  1
  Al  Al7  1  0.55705897  0.21183817  0.64164369  1
  Al  Al8  1  0.23151180  0.53950285  0.14391537  1
  Al  Al9  1  0.43906861  0.43919953  0.39200210  1
  Al  Al10  1  0.54666687  0.54296374  0.14417560  1
  Al  Al11  1  0.22852156  0.53464566  0.63936980  1
  Al  Al12  1  0.88723204  0.53188856  0.15664378  1
  Al  Al13  1  0.44314974  0.43480318  0.88988849  1
  Al  Al14  1  0.55351243  0.53137589  0.64409813  1
  Al  Al15  1  0.11169704  0.75782487  0.39470392  1
  Al  Al16  1  0.77065225  0.76681383  0.82163574  1
  Al  Al17  1  0.88696147  0.88050826  0.64691249  1
  Al  Al18  1  0.44065512  0.75375775  0.39674965  1
  Al  Al19  1  0.56259246  0.85585461  0.07690070  1
  Al  Al20  1  0.12332717  0.75246443  0.88422310  1
  Al  Al21  1  0.44430578  0.75276317  0.87003851  1
  Al  Al22  1  0.55300329  0.87425222  0.58627764  1
  Sc  Sc23  1  0.44426005  0.09495588  0.37163048  1
  Sc  Sc24  1  0.10887554  0.09441433  0.87412982  1
  Sc  Sc25  1  0.78234348  0.09183522  0.37889284  1
  Sc  Sc26  1  0.45184914  0.09474525  0.87283769  1
  Sc  Sc27  1  0.12898664  0.42078459  0.37213475  1
  Sc  Sc28  1  0.77062524  0.43589444  0.89088482  1
  Sc  Sc29  1  0.89329254  0.53290778  0.61596321  1
  Sc  Sc30  1  0.11015715  0.44130087  0.89479489  1
  Sc  Sc31  1  0.76767630  0.41974765  0.37799576  1
  Sc  Sc32  1  0.22228763  0.87173548  0.14248628  1
  Sc  Sc33  1  0.22070060  0.86886118  0.62089765  1
  Sc  Sc34  1  0.77667988  0.76521051  0.35795851  1
  Sc  Sc35  1  0.88736675  0.86625715  0.10790789  1
  N  N36  1  0.21619504  0.18619159  0.32960543  1
  N  N37  1  0.10205998  0.10997535  0.08436099  1
  N  N38  1  0.87511517  0.20306363  0.83161722  1
  N  N39  1  0.77858378  0.09193385  0.59407119  1
  N  N40  1  0.54404954  0.23351119  0.32724535  1
  N  N41  1  0.44795900  0.09171401  0.10091254  1
  N  N42  1  0.22034697  0.21489098  0.83011506  1
  N  N43  1  0.09880388  0.11846999  0.59403565  1
  N  N44  1  0.91243487  0.18801441  0.32840258  1
  N  N45  1  0.76591505  0.11704668  0.08464188  1
  N  N46  1  0.56159258  0.22287985  0.83271405  1
  N  N47  1  0.44700583  0.09692322  0.60617648  1
  N  N48  1  0.23381793  0.55459810  0.33189877  1
  N  N49  1  0.11332789  0.42681757  0.11669889  1
  N  N50  1  0.88294603  0.55429234  0.83151604  1
  N  N51  1  0.76439694  0.41541709  0.59423704  1
  N  N52  1  0.53010682  0.55211670  0.33371252  1
  N  N53  1  0.44266627  0.43042053  0.08134792  1
  N  N54  1  0.23485419  0.54478652  0.82787955  1
  N  N55  1  0.13742263  0.41686653  0.58765164  1
  N  N56  1  0.89254324  0.53008151  0.35828950  1
  N  N57  1  0.77449394  0.42765041  0.11321774  1
  N  N58  1  0.53990789  0.54276884  0.83386585  1
  N  N59  1  0.44445989  0.42823011  0.58336557  1
  N  N60  1  0.22072598  0.87150405  0.37134369  1
  N  N61  1  0.12644001  0.73756969  0.07206606  1
  N  N62  1  0.88613457  0.87779723  0.84899066  1
  N  N63  1  0.76664204  0.78433854  0.62125045  1
  N  N64  1  0.54325206  0.86266731  0.39248444  1
  N  N65  1  0.45399587  0.74996706  0.08976875  1
  N  N66  1  0.22930098  0.85618974  0.83744439  1
  N  N67  1  0.09587678  0.74899775  0.58648432  1
  N  N68  1  0.91369204  0.86350503  0.32314144  1
  N  N69  1  0.76745353  0.74609173  0.13510968  1
  N  N70  1  0.56580885  0.85072407  0.87879818  1
  N  N71  1  0.46369285  0.74504184  0.60259489  1
