# generated using pymatgen
data_Sc13Al23N36
_symmetry_space_group_name_H-M   'P 1'
_cell_length_a   10.05449938
_cell_length_b   10.09721392
_cell_length_c   10.05034325
_cell_angle_alpha   90.28211578
_cell_angle_beta   90.14227254
_cell_angle_gamma   59.84975715
_symmetry_Int_Tables_number   1
_chemical_formula_structural   Sc13Al23N36
_chemical_formula_sum   'Sc13 Al23 N36'
_cell_volume   882.28476273
_cell_formula_units_Z   1
loop_
 _symmetry_equiv_pos_site_id
 _symmetry_equiv_pos_as_xyz
  1  'x, y, z'
loop_
 _atom_site_type_symbol
 _atom_site_label
 _atom_site_symmetry_multiplicity
 _atom_site_fract_x
 _atom_site_fract_y
 _atom_site_fract_z
 _atom_site_occupancy
  Al  Al0  1  0.11668778  0.09081526  0.39234753  1
  Al  Al1  1  0.21280253  0.20622345  0.13300574  1
  Al  Al2  1  0.77513642  0.09870797  0.81495180  1
  Al  Al3  1  0.88700127  0.20740955  0.57739445  1
  Al  Al4  1  0.54546337  0.22067150  0.14118816  1
  Al  Al5  1  0.23286449  0.20668274  0.63742248  1
  Al  Al6  1  0.87702652  0.20923684  0.06554844  1
  Al  Al7  1  0.54774505  0.21691058  0.62918502  1
  Al  Al8  1  0.22697760  0.53937952  0.13519472  1
  Al  Al9  1  0.43496118  0.44041795  0.38585217  1
  Al  Al10  1  0.54856552  0.54440194  0.07446427  1
  Al  Al11  1  0.23086853  0.53601617  0.63285968  1
  Al  Al12  1  0.88142642  0.54182796  0.06550204  1
  Al  Al13  1  0.44124701  0.43344869  0.88443522  1
  Al  Al14  1  0.55819241  0.53740292  0.57160743  1
  Al  Al15  1  0.11182041  0.75862775  0.38486267  1
  Al  Al16  1  0.76867973  0.76692828  0.82411032  1
  Al  Al17  1  0.89188845  0.86899724  0.63481082  1
  Al  Al18  1  0.44606834  0.75502927  0.33012596  1
  Al  Al19  1  0.55734566  0.85784498  0.07560795  1
  Al  Al20  1  0.12378677  0.75348330  0.87800842  1
  Al  Al21  1  0.45097711  0.75303473  0.82281781  1
  Al  Al22  1  0.55674467  0.86918183  0.57826544  1
  Sc  Sc23  1  0.43974961  0.09317128  0.36592722  1
  Sc  Sc24  1  0.11169921  0.09224205  0.85948292  1
  Sc  Sc25  1  0.77940795  0.09408907  0.34893342  1
  Sc  Sc26  1  0.45747162  0.09342909  0.87569265  1
  Sc  Sc27  1  0.12245460  0.42574647  0.36946717  1
  Sc  Sc28  1  0.76206751  0.42921056  0.83855320  1
  Sc  Sc29  1  0.89074245  0.53481257  0.60194923  1
  Sc  Sc30  1  0.12222097  0.43463016  0.87527499  1
  Sc  Sc31  1  0.77736225  0.42341092  0.32252022  1
  Sc  Sc32  1  0.21690972  0.87532078  0.12542321  1
  Sc  Sc33  1  0.22899834  0.86304047  0.61016683  1
  Sc  Sc34  1  0.77801786  0.75494831  0.33474645  1
  Sc  Sc35  1  0.88375009  0.87493475  0.09742813  1
  N  N36  1  0.20893291  0.19361275  0.32206685  1
  N  N37  1  0.09886731  0.11179408  0.07843627  1
  N  N38  1  0.87395340  0.19565961  0.87596923  1
  N  N39  1  0.78206141  0.09058725  0.61208593  1
  N  N40  1  0.53279073  0.23562478  0.33170481  1
  N  N41  1  0.44610141  0.09163907  0.10100644  1
  N  N42  1  0.23036855  0.20736380  0.82574665  1
  N  N43  1  0.11136885  0.10961977  0.59792033  1
  N  N44  1  0.90445967  0.19825859  0.38833121  1
  N  N45  1  0.76381522  0.11862010  0.12596626  1
  N  N46  1  0.55884171  0.22650669  0.82056181  1
  N  N47  1  0.44945412  0.09371605  0.59573132  1
  N  N48  1  0.23221866  0.55573782  0.32258399  1
  N  N49  1  0.11029192  0.42964256  0.09813667  1
  N  N50  1  0.88075433  0.55594730  0.86450896  1
  N  N51  1  0.76537856  0.41485793  0.62504635  1
  N  N52  1  0.54222025  0.54905567  0.38010954  1
  N  N53  1  0.43834582  0.42602360  0.07806628  1
  N  N54  1  0.23734210  0.54877729  0.81950463  1
  N  N55  1  0.13834611  0.41649073  0.59255576  1
  N  N56  1  0.88956361  0.53218502  0.39178228  1
  N  N57  1  0.77497677  0.42901791  0.10137181  1
  N  N58  1  0.53196871  0.55566193  0.88647650  1
  N  N59  1  0.44175999  0.43046848  0.57817399  1
  N  N60  1  0.22168516  0.87207094  0.35900137  1
  N  N61  1  0.12357547  0.73918094  0.06468042  1
  N  N62  1  0.88831091  0.87483667  0.84143104  1
  N  N63  1  0.76568091  0.78079637  0.62987910  1
  N  N64  1  0.54590344  0.85745466  0.39012654  1
  N  N65  1  0.45933484  0.75030263  0.13833970  1
  N  N66  1  0.23150020  0.85550898  0.83440295  1
  N  N67  1  0.09972017  0.74776752  0.57694182  1
  N  N68  1  0.91170299  0.85910419  0.32008842  1
  N  N69  1  0.76802572  0.74749797  0.12019823  1
  N  N70  1  0.56173757  0.85103022  0.88372807  1
  N  N71  1  0.47356115  0.74408756  0.63383684  1
