# generated using pymatgen
data_Sc13Al23N36
_symmetry_space_group_name_H-M   'P 1'
_cell_length_a   10.14226720
_cell_length_b   10.18316893
_cell_length_c   9.73180099
_cell_angle_alpha   90.52762433
_cell_angle_beta   89.96095545
_cell_angle_gamma   59.81574844
_symmetry_Int_Tables_number   1
_chemical_formula_structural   Sc13Al23N36
_chemical_formula_sum   'Sc13 Al23 N36'
_cell_volume   868.77218253
_cell_formula_units_Z   1
loop_
 _symmetry_equiv_pos_site_id
 _symmetry_equiv_pos_as_xyz
  1  'x, y, z'
loop_
 _atom_site_type_symbol
 _atom_site_label
 _atom_site_symmetry_multiplicity
 _atom_site_fract_x
 _atom_site_fract_y
 _atom_site_fract_z
 _atom_site_occupancy
  Al  Al0  1  0.11160054  0.09351661  0.38638465  1
  Al  Al1  1  0.21547656  0.20456192  0.12653739  1
  Al  Al2  1  0.76828959  0.10485360  0.87945572  1
  Al  Al3  1  0.88130464  0.20220949  0.62562283  1
  Al  Al4  1  0.54724624  0.22052503  0.12737939  1
  Al  Al5  1  0.23131708  0.20639389  0.62840571  1
  Al  Al6  1  0.88796358  0.21182901  0.12086327  1
  Al  Al7  1  0.55711481  0.21127642  0.62748876  1
  Al  Al8  1  0.22923916  0.53932057  0.13174250  1
  Al  Al9  1  0.43906728  0.43917074  0.37962267  1
  Al  Al10  1  0.55081688  0.53755274  0.12862361  1
  Al  Al11  1  0.23045753  0.53614185  0.62593612  1
  Al  Al12  1  0.88323817  0.54138576  0.07241462  1
  Al  Al13  1  0.44260159  0.43461413  0.87932558  1
  Al  Al14  1  0.55151807  0.53280355  0.63046921  1
  Al  Al15  1  0.11071547  0.75887564  0.38060212  1
  Al  Al16  1  0.76878261  0.76786194  0.82404974  1
  Al  Al17  1  0.88478834  0.88001386  0.63674880  1
  Al  Al18  1  0.44131112  0.75927227  0.32731286  1
  Al  Al19  1  0.55840010  0.85821197  0.07340121  1
  Al  Al20  1  0.12385736  0.75161822  0.87181361  1
  Al  Al21  1  0.44801920  0.75580530  0.82343193  1
  Al  Al22  1  0.55466361  0.87049046  0.57539429  1
  Sc  Sc23  1  0.44384685  0.09259042  0.35487941  1
  Sc  Sc24  1  0.10915182  0.09357590  0.85464067  1
  Sc  Sc25  1  0.78018637  0.09309055  0.36159521  1
  Sc  Sc26  1  0.45617576  0.08984161  0.86108364  1
  Sc  Sc27  1  0.12231625  0.42411185  0.36150560  1
  Sc  Sc28  1  0.76683544  0.42768762  0.85825507  1
  Sc  Sc29  1  0.89299772  0.53714656  0.60675524  1
  Sc  Sc30  1  0.12315632  0.43287933  0.86807829  1
  Sc  Sc31  1  0.77228548  0.42575916  0.36461999  1
  Sc  Sc32  1  0.21799333  0.87501314  0.11205790  1
  Sc  Sc33  1  0.22691238  0.86421259  0.60243146  1
  Sc  Sc34  1  0.77947498  0.75800464  0.34192583  1
  Sc  Sc35  1  0.88790308  0.86801825  0.09516390  1
  N  N36  1  0.21366219  0.19008619  0.32247440  1
  N  N37  1  0.09806822  0.11436704  0.07323904  1
  N  N38  1  0.87740262  0.19439006  0.82287206  1
  N  N39  1  0.77736508  0.09073035  0.58403221  1
  N  N40  1  0.54044592  0.23323958  0.32212526  1
  N  N41  1  0.44677120  0.09224481  0.09626854  1
  N  N42  1  0.22841706  0.20567990  0.82342264  1
  N  N43  1  0.10428209  0.11222938  0.58934314  1
  N  N44  1  0.90948801  0.19332731  0.32843144  1
  N  N45  1  0.76359490  0.11866246  0.08038074  1
  N  N46  1  0.56032888  0.22318222  0.82480856  1
  N  N47  1  0.45044105  0.09360738  0.59614008  1
  N  N48  1  0.23217208  0.55348667  0.32565577  1
  N  N49  1  0.11201876  0.42888530  0.09895668  1
  N  N50  1  0.88268036  0.55626863  0.85757083  1
  N  N51  1  0.76592695  0.41675276  0.60139480  1
  N  N52  1  0.53565418  0.54604484  0.32777738  1
  N  N53  1  0.44107429  0.43075823  0.07456240  1
  N  N54  1  0.23781956  0.54693856  0.81878682  1
  N  N55  1  0.13873471  0.41624390  0.59266435  1
  N  N56  1  0.89279726  0.53488012  0.38748121  1
  N  N57  1  0.77423279  0.43008831  0.09407115  1
  N  N58  1  0.53507739  0.54519089  0.83145133  1
  N  N59  1  0.44502580  0.42914142  0.57526259  1
  N  N60  1  0.22048144  0.87166395  0.35686889  1
  N  N61  1  0.12444350  0.73721387  0.06468181  1
  N  N62  1  0.88415073  0.87831921  0.84436028  1
  N  N63  1  0.76501562  0.78429182  0.62192766  1
  N  N64  1  0.54494624  0.85873938  0.38035664  1
  N  N65  1  0.45525199  0.75538496  0.12313099  1
  N  N66  1  0.23145796  0.85564014  0.83941419  1
  N  N67  1  0.09619595  0.75089722  0.58015875  1
  N  N68  1  0.91111196  0.86255578  0.31620826  1
  N  N69  1  0.76795625  0.74807941  0.11744502  1
  N  N70  1  0.56257818  0.84921358  0.87617693  1
  N  N71  1  0.46691336  0.74965826  0.62241685  1
