# generated using pymatgen
data_Sc13Al23N36
_symmetry_space_group_name_H-M   'P 1'
_cell_length_a   10.11287175
_cell_length_b   10.15567793
_cell_length_c   9.86573208
_cell_angle_alpha   90.37628520
_cell_angle_beta   90.03771141
_cell_angle_gamma   59.76715040
_symmetry_Int_Tables_number   1
_chemical_formula_structural   Sc13Al23N36
_chemical_formula_sum   'Sc13 Al23 N36'
_cell_volume   875.40327462
_cell_formula_units_Z   1
loop_
 _symmetry_equiv_pos_site_id
 _symmetry_equiv_pos_as_xyz
  1  'x, y, z'
loop_
 _atom_site_type_symbol
 _atom_site_label
 _atom_site_symmetry_multiplicity
 _atom_site_fract_x
 _atom_site_fract_y
 _atom_site_fract_z
 _atom_site_occupancy
  Al  Al0  1  0.11699410  0.09037599  0.39347725  1
  Al  Al1  1  0.21201183  0.20615807  0.13031630  1
  Al  Al2  1  0.77279596  0.09958745  0.81647055  1
  Al  Al3  1  0.88666789  0.20723385  0.58057019  1
  Al  Al4  1  0.54639904  0.22049099  0.13950998  1
  Al  Al5  1  0.23362127  0.20601858  0.63532695  1
  Al  Al6  1  0.87789230  0.20878873  0.06504439  1
  Al  Al7  1  0.54746068  0.21716799  0.62512601  1
  Al  Al8  1  0.22634425  0.54040169  0.13400787  1
  Al  Al9  1  0.43525618  0.44044842  0.38212129  1
  Al  Al10  1  0.54792486  0.54452331  0.07900038  1
  Al  Al11  1  0.23133646  0.53611124  0.63096311  1
  Al  Al12  1  0.88256837  0.54279830  0.06706109  1
  Al  Al13  1  0.44190769  0.43361863  0.88372023  1
  Al  Al14  1  0.55811681  0.53667121  0.57185792  1
  Al  Al15  1  0.11124241  0.75900850  0.38382359  1
  Al  Al16  1  0.76870861  0.76752539  0.82378234  1
  Al  Al17  1  0.89072285  0.86986828  0.63210123  1
  Al  Al18  1  0.44517371  0.75521682  0.32857928  1
  Al  Al19  1  0.55760233  0.85856946  0.07587851  1
  Al  Al20  1  0.12351221  0.75322397  0.87636440  1
  Al  Al21  1  0.45078558  0.75232954  0.82509727  1
  Al  Al22  1  0.55559130  0.86901801  0.57837794  1
  Sc  Sc23  1  0.44090609  0.09088101  0.35958515  1
  Sc  Sc24  1  0.11106592  0.09253148  0.85467656  1
  Sc  Sc25  1  0.77949062  0.09472570  0.35135820  1
  Sc  Sc26  1  0.45773492  0.09240830  0.87050016  1
  Sc  Sc27  1  0.12305427  0.42476406  0.36631407  1
  Sc  Sc28  1  0.76233665  0.43048970  0.84221402  1
  Sc  Sc29  1  0.89171228  0.53419038  0.60405358  1
  Sc  Sc30  1  0.12288693  0.43419671  0.87132356  1
  Sc  Sc31  1  0.77977645  0.42213183  0.32505262  1
  Sc  Sc32  1  0.21571461  0.87699055  0.12088178  1
  Sc  Sc33  1  0.23033265  0.86081720  0.60834738  1
  Sc  Sc34  1  0.77875067  0.75558598  0.33987109  1
  Sc  Sc35  1  0.88267729  0.87537904  0.09645987  1
  N  N36  1  0.20962689  0.19230116  0.32356833  1
  N  N37  1  0.09738932  0.11330187  0.07765423  1
  N  N38  1  0.87409795  0.19592270  0.87081859  1
  N  N39  1  0.78079640  0.09080736  0.60947894  1
  N  N40  1  0.53354873  0.23417039  0.33413125  1
  N  N41  1  0.44652207  0.09173388  0.10185164  1
  N  N42  1  0.23035327  0.20658550  0.82763120  1
  N  N43  1  0.11200282  0.10827848  0.59991150  1
  N  N44  1  0.90615203  0.19672390  0.38746336  1
  N  N45  1  0.76345360  0.11897677  0.12258122  1
  N  N46  1  0.55783490  0.22688914  0.82082829  1
  N  N47  1  0.44999997  0.09258890  0.59692022  1
  N  N48  1  0.23127479  0.55574671  0.32458669  1
  N  N49  1  0.11053126  0.42993947  0.09932642  1
  N  N50  1  0.88186181  0.55668922  0.86139138  1
  N  N51  1  0.76528255  0.41586177  0.62277406  1
  N  N52  1  0.54224488  0.54768795  0.37255420  1
  N  N53  1  0.43840483  0.42676330  0.08069158  1
  N  N54  1  0.23811153  0.54844502  0.82104748  1
  N  N55  1  0.13901791  0.41615317  0.59478042  1
  N  N56  1  0.89166029  0.53158050  0.38977322  1
  N  N57  1  0.77620849  0.42918300  0.09938602  1
  N  N58  1  0.53241888  0.55452836  0.88604258  1
  N  N59  1  0.44220320  0.43166432  0.57793315  1
  N  N60  1  0.22166537  0.87150139  0.36019870  1
  N  N61  1  0.12184301  0.74034569  0.06651273  1
  N  N62  1  0.88619828  0.87596755  0.84168462  1
  N  N63  1  0.76598236  0.78090078  0.62463328  1
  N  N64  1  0.54511362  0.85676142  0.38701032  1
  N  N65  1  0.45662872  0.75338277  0.13397310  1
  N  N66  1  0.23181528  0.85518346  0.83754056  1
  N  N67  1  0.09971045  0.74800172  0.57947076  1
  N  N68  1  0.91040390  0.86069475  0.32292157  1
  N  N69  1  0.76768736  0.74847160  0.11985941  1
  N  N70  1  0.56198049  0.85098221  0.88066605  1
  N  N71  1  0.47318312  0.74323774  0.63208444  1
