# generated using pymatgen
data_Sc13Al23N36
_symmetry_space_group_name_H-M   'P 1'
_cell_length_a   9.94386720
_cell_length_b   9.96870838
_cell_length_c   10.17768294
_cell_angle_alpha   89.99744227
_cell_angle_beta   90.03401009
_cell_angle_gamma   59.96669977
_symmetry_Int_Tables_number   1
_chemical_formula_structural   Sc13Al23N36
_chemical_formula_sum   'Sc13 Al23 N36'
_cell_volume   873.42942445
_cell_formula_units_Z   1
loop_
 _symmetry_equiv_pos_site_id
 _symmetry_equiv_pos_as_xyz
  1  'x, y, z'
loop_
 _atom_site_type_symbol
 _atom_site_label
 _atom_site_symmetry_multiplicity
 _atom_site_fract_x
 _atom_site_fract_y
 _atom_site_fract_z
 _atom_site_occupancy
  Al  Al0  1  0.10926978  0.09517697  0.40609882  1
  Al  Al1  1  0.22092765  0.20166578  0.15221094  1
  Al  Al2  1  0.77050806  0.10358054  0.89710213  1
  Al  Al3  1  0.88131468  0.20553100  0.65026304  1
  Al  Al4  1  0.54941001  0.21825543  0.14546647  1
  Al  Al5  1  0.22469122  0.20933421  0.64775586  1
  Al  Al6  1  0.88971217  0.20833443  0.14902602  1
  Al  Al7  1  0.55665175  0.21102839  0.65025975  1
  Al  Al8  1  0.23137943  0.53917375  0.15046104  1
  Al  Al9  1  0.43842221  0.44003236  0.39744235  1
  Al  Al10  1  0.54897303  0.54117375  0.14758681  1
  Al  Al11  1  0.22765281  0.53503358  0.64657302  1
  Al  Al12  1  0.88477844  0.53767818  0.15370128  1
  Al  Al13  1  0.44288087  0.43470394  0.89516831  1
  Al  Al14  1  0.55329699  0.53574993  0.64906555  1
  Al  Al15  1  0.11117353  0.75850301  0.40381709  1
  Al  Al16  1  0.77246394  0.75843586  0.89981706  1
  Al  Al17  1  0.88336229  0.87525768  0.65917017  1
  Al  Al18  1  0.44609200  0.75628781  0.40155046  1
  Al  Al19  1  0.55295117  0.86430585  0.14326912  1
  Al  Al20  1  0.12287523  0.75287759  0.89165422  1
  Al  Al21  1  0.44585610  0.75289517  0.89474850  1
  Al  Al22  1  0.56006022  0.86764669  0.65305017  1
  Sc  Sc23  1  0.44408919  0.09177760  0.39201913  1
  Sc  Sc24  1  0.11068096  0.08990635  0.88642302  1
  Sc  Sc25  1  0.78046755  0.09252556  0.39205919  1
  Sc  Sc26  1  0.45218922  0.09099023  0.88865141  1
  Sc  Sc27  1  0.12199193  0.42541536  0.38058681  1
  Sc  Sc28  1  0.76967693  0.43015701  0.89757367  1
  Sc  Sc29  1  0.89048009  0.53944418  0.63967399  1
  Sc  Sc30  1  0.11537156  0.43482576  0.90405062  1
  Sc  Sc31  1  0.76759463  0.42510559  0.38677738  1
  Sc  Sc32  1  0.22621711  0.86885024  0.15581164  1
  Sc  Sc33  1  0.22559296  0.86665941  0.62828909  1
  Sc  Sc34  1  0.77427200  0.76834215  0.38985703  1
  Sc  Sc35  1  0.89058452  0.87096953  0.12177863  1
  N  N36  1  0.21601471  0.18897785  0.33767972  1
  N  N37  1  0.10358216  0.10754307  0.09447105  1
  N  N38  1  0.87809800  0.19855410  0.83542356  1
  N  N39  1  0.77792881  0.09112894  0.60312397  1
  N  N40  1  0.54237344  0.23145914  0.33340248  1
  N  N41  1  0.44554065  0.09373326  0.10457973  1
  N  N42  1  0.22182275  0.21051420  0.83341936  1
  N  N43  1  0.09907026  0.11638082  0.59684814  1
  N  N44  1  0.90882384  0.19151396  0.33479689  1
  N  N45  1  0.76486879  0.11904589  0.08847759  1
  N  N46  1  0.56013429  0.22185746  0.83805346  1
  N  N47  1  0.44835528  0.09142697  0.61003008  1
  N  N48  1  0.23206029  0.55579492  0.33613742  1
  N  N49  1  0.11456521  0.42726419  0.12001962  1
  N  N50  1  0.88418473  0.55208827  0.84626448  1
  N  N51  1  0.76670254  0.41753095  0.60058718  1
  N  N52  1  0.52955397  0.55403295  0.33332508  1
  N  N53  1  0.44268910  0.43046421  0.08520076  1
  N  N54  1  0.23386601  0.54461867  0.83284656  1
  N  N55  1  0.13339330  0.41838517  0.59344553  1
  N  N56  1  0.88647507  0.53927007  0.34295410  1
  N  N57  1  0.77413138  0.42827201  0.11373766  1
  N  N58  1  0.53809239  0.54616404  0.83586846  1
  N  N59  1  0.44438569  0.42967054  0.58743558  1
  N  N60  1  0.22130041  0.87211282  0.37691570  1
  N  N61  1  0.12866457  0.73991356  0.07755130  1
  N  N62  1  0.88482599  0.87439746  0.85688742  1
  N  N63  1  0.76848087  0.78294508  0.59886735  1
  N  N64  1  0.54222218  0.86115765  0.32886810  1
  N  N65  1  0.45728453  0.75039374  0.08278104  1
  N  N66  1  0.23338091  0.85349101  0.84034454  1
  N  N67  1  0.09540637  0.74999257  0.59279088  1
  N  N68  1  0.91070511  0.86299982  0.32914912  1
  N  N69  1  0.76785613  0.74928111  0.09138644  1
  N  N70  1  0.56248569  0.85080514  0.84059657  1
  N  N71  1  0.47170056  0.74648962  0.58753376  1
