# generated using pymatgen
data_Sc13Al23N36
_symmetry_space_group_name_H-M   'P 1'
_cell_length_a   10.12781876
_cell_length_b   10.17149542
_cell_length_c   9.81693456
_cell_angle_alpha   90.40305777
_cell_angle_beta   89.99301179
_cell_angle_gamma   59.76741790
_symmetry_Int_Tables_number   1
_chemical_formula_structural   Sc13Al23N36
_chemical_formula_sum   'Sc13 Al23 N36'
_cell_volume   873.71540222
_cell_formula_units_Z   1
loop_
 _symmetry_equiv_pos_site_id
 _symmetry_equiv_pos_as_xyz
  1  'x, y, z'
loop_
 _atom_site_type_symbol
 _atom_site_label
 _atom_site_symmetry_multiplicity
 _atom_site_fract_x
 _atom_site_fract_y
 _atom_site_fract_z
 _atom_site_occupancy
  Al  Al0  1  0.11697850  0.09014622  0.39278341  1
  Al  Al1  1  0.21207260  0.20614723  0.12984894  1
  Al  Al2  1  0.77220847  0.09981157  0.81675573  1
  Al  Al3  1  0.88705705  0.20660532  0.58145751  1
  Al  Al4  1  0.54615517  0.22047645  0.13964840  1
  Al  Al5  1  0.23361855  0.20598194  0.63490039  1
  Al  Al6  1  0.87859651  0.20802962  0.06591508  1
  Al  Al7  1  0.54780296  0.21654356  0.62347319  1
  Al  Al8  1  0.22609300  0.54040936  0.13414898  1
  Al  Al9  1  0.43639606  0.44151407  0.38022950  1
  Al  Al10  1  0.54794062  0.54282328  0.08973573  1
  Al  Al11  1  0.23062646  0.53682231  0.63006564  1
  Al  Al12  1  0.88344659  0.54312695  0.06811427  1
  Al  Al13  1  0.44212900  0.43357543  0.88425083  1
  Al  Al14  1  0.55718845  0.53454967  0.59108638  1
  Al  Al15  1  0.11116881  0.75900770  0.38316319  1
  Al  Al16  1  0.76897162  0.76788380  0.82382517  1
  Al  Al17  1  0.89044755  0.87006867  0.63143739  1
  Al  Al18  1  0.44466867  0.75554303  0.32593449  1
  Al  Al19  1  0.55778892  0.85957150  0.07526107  1
  Al  Al20  1  0.12329398  0.75299393  0.87585459  1
  Al  Al21  1  0.44987981  0.75353130  0.82837964  1
  Al  Al22  1  0.55551129  0.86873776  0.57832314  1
  Sc  Sc23  1  0.44097581  0.09032595  0.35866649  1
  Sc  Sc24  1  0.11085564  0.09282072  0.85415664  1
  Sc  Sc25  1  0.77921188  0.09497162  0.35183729  1
  Sc  Sc26  1  0.45764450  0.09286315  0.86947781  1
  Sc  Sc27  1  0.12314613  0.42453232  0.36580008  1
  Sc  Sc28  1  0.76433174  0.43014983  0.84765503  1
  Sc  Sc29  1  0.89192178  0.53416457  0.60496217  1
  Sc  Sc30  1  0.12341243  0.43423675  0.87088331  1
  Sc  Sc31  1  0.78009336  0.42191353  0.32669744  1
  Sc  Sc32  1  0.21509252  0.87742524  0.11886566  1
  Sc  Sc33  1  0.23005159  0.86101650  0.60781089  1
  Sc  Sc34  1  0.77876424  0.75567652  0.34092516  1
  Sc  Sc35  1  0.88251772  0.87548843  0.09640079  1
  N  N36  1  0.20988464  0.19203328  0.32398080  1
  N  N37  1  0.09724704  0.11365153  0.07802715  1
  N  N38  1  0.87449908  0.19502786  0.87048515  1
  N  N39  1  0.78060450  0.09078086  0.60896225  1
  N  N40  1  0.53313659  0.23397197  0.33563103  1
  N  N41  1  0.44678288  0.09217005  0.10186385  1
  N  N42  1  0.23023547  0.20664603  0.82815695  1
  N  N43  1  0.11210200  0.10814080  0.60033221  1
  N  N44  1  0.90656220  0.19602598  0.38753139  1
  N  N45  1  0.76299212  0.11923466  0.12237267  1
  N  N46  1  0.55747453  0.22715204  0.81999890  1
  N  N47  1  0.44996736  0.09231186  0.59691508  1
  N  N48  1  0.23082667  0.55544295  0.32567639  1
  N  N49  1  0.11077534  0.42989753  0.09986458  1
  N  N50  1  0.88270101  0.55741203  0.86115665  1
  N  N51  1  0.76612526  0.41524172  0.62391130  1
  N  N52  1  0.54145490  0.54519330  0.35056572  1
  N  N53  1  0.43775703  0.42635471  0.08042823  1
  N  N54  1  0.23840615  0.54840347  0.82080193  1
  N  N55  1  0.13943183  0.41604071  0.59515832  1
  N  N56  1  0.89205473  0.53185213  0.38993222  1
  N  N57  1  0.77805677  0.42853740  0.09826983  1
  N  N58  1  0.53336972  0.55289109  0.88226940  1
  N  N59  1  0.44266563  0.43327091  0.57722234  1
  N  N60  1  0.22174922  0.87125265  0.35994173  1
  N  N61  1  0.12134605  0.74001388  0.06684288  1
  N  N62  1  0.88583911  0.87626528  0.84158244  1
  N  N63  1  0.76598695  0.78090853  0.62350737  1
  N  N64  1  0.54470966  0.85614222  0.38621614  1
  N  N65  1  0.45445902  0.75695964  0.12912542  1
  N  N66  1  0.23121422  0.85559884  0.83863131  1
  N  N67  1  0.09955364  0.74846360  0.57989743  1
  N  N68  1  0.91003392  0.86108647  0.32353412  1
  N  N69  1  0.76756981  0.74889335  0.11969981  1
  N  N70  1  0.56233485  0.85180914  0.87935740  1
  N  N71  1  0.47231647  0.74363599  0.63231581  1
