# generated using pymatgen
data_Sc13Al23N36
_symmetry_space_group_name_H-M   'P 1'
_cell_length_a   10.03656037
_cell_length_b   10.06571600
_cell_length_c   10.02414239
_cell_angle_alpha   89.85477789
_cell_angle_beta   90.16192413
_cell_angle_gamma   60.07125119
_symmetry_Int_Tables_number   1
_chemical_formula_structural   Sc13Al23N36
_chemical_formula_sum   'Sc13 Al23 N36'
_cell_volume   877.63223191
_cell_formula_units_Z   1
loop_
 _symmetry_equiv_pos_site_id
 _symmetry_equiv_pos_as_xyz
  1  'x, y, z'
loop_
 _atom_site_type_symbol
 _atom_site_label
 _atom_site_symmetry_multiplicity
 _atom_site_fract_x
 _atom_site_fract_y
 _atom_site_fract_z
 _atom_site_occupancy
  Al  Al0  1  0.10964708  0.09278275  0.31161161  1
  Al  Al1  1  0.22091611  0.20887084  0.06739615  1
  Al  Al2  1  0.77126275  0.10274030  0.80907166  1
  Al  Al3  1  0.89006979  0.20623791  0.56415325  1
  Al  Al4  1  0.55559859  0.21761114  0.05923462  1
  Al  Al5  1  0.22543852  0.20197862  0.56122869  1
  Al  Al6  1  0.88094608  0.21035117  0.06289815  1
  Al  Al7  1  0.54788555  0.21476097  0.56435111  1
  Al  Al8  1  0.22502341  0.54005190  0.12264332  1
  Al  Al9  1  0.44379237  0.43538261  0.31363890  1
  Al  Al10  1  0.55017799  0.53967986  0.06199901  1
  Al  Al11  1  0.22674748  0.54091599  0.61722207  1
  Al  Al12  1  0.88575487  0.54128224  0.05333946  1
  Al  Al13  1  0.44780348  0.43439667  0.80877184  1
  Al  Al14  1  0.55435011  0.53475378  0.56131151  1
  Al  Al15  1  0.11070299  0.75940200  0.36939389  1
  Al  Al16  1  0.76947784  0.76633744  0.81330027  1
  Al  Al17  1  0.88979895  0.87366367  0.62608554  1
  Al  Al18  1  0.44384806  0.75566505  0.31624231  1
  Al  Al19  1  0.56035381  0.85817703  0.05948460  1
  Al  Al20  1  0.12098229  0.75402152  0.86859901  1
  Al  Al21  1  0.44957421  0.75155246  0.81186857  1
  Al  Al22  1  0.55393100  0.87131308  0.56601051  1
  Sc  Sc23  1  0.44459085  0.09089942  0.31858969  1
  Sc  Sc24  1  0.10851039  0.09370852  0.82612192  1
  Sc  Sc25  1  0.77729183  0.09649141  0.33065440  1
  Sc  Sc26  1  0.45343882  0.08896889  0.82610429  1
  Sc  Sc27  1  0.11576377  0.42596878  0.33445757  1
  Sc  Sc28  1  0.76539424  0.42710211  0.82955123  1
  Sc  Sc29  1  0.88763036  0.53722043  0.58657906  1
  Sc  Sc30  1  0.12075878  0.43089378  0.83471786  1
  Sc  Sc31  1  0.77295916  0.42589979  0.31389473  1
  Sc  Sc32  1  0.22915652  0.86804201  0.08520031  1
  Sc  Sc33  1  0.22679550  0.87263141  0.57605667  1
  Sc  Sc34  1  0.77506031  0.75769885  0.32189071  1
  Sc  Sc35  1  0.88507530  0.87556235  0.08581576  1
  N  N36  1  0.21628634  0.19040330  0.36982922  1
  N  N37  1  0.09796003  0.11487255  0.11589576  1
  N  N38  1  0.87857060  0.19295174  0.87548896  1
  N  N39  1  0.77639720  0.09667621  0.61023702  1
  N  N40  1  0.53785293  0.23095514  0.37660076  1
  N  N41  1  0.45148584  0.08974140  0.09876119  1
  N  N42  1  0.22710042  0.20239160  0.88079355  1
  N  N43  1  0.10317782  0.11270862  0.61578130  1
  N  N44  1  0.90798289  0.19661776  0.37566217  1
  N  N45  1  0.76267362  0.12092794  0.11739841  1
  N  N46  1  0.56155126  0.22225830  0.86585108  1
  N  N47  1  0.44515042  0.09259898  0.60629035  1
  N  N48  1  0.22815234  0.55453580  0.31687121  1
  N  N49  1  0.11038774  0.43035620  0.09822608  1
  N  N50  1  0.88098681  0.55582510  0.85465925  1
  N  N51  1  0.76524446  0.41507865  0.61307063  1
  N  N52  1  0.53650823  0.54817925  0.37226395  1
  N  N53  1  0.44858802  0.42684265  0.11767673  1
  N  N54  1  0.23139779  0.55405665  0.80995768  1
  N  N55  1  0.13518584  0.41528145  0.60049078  1
  N  N56  1  0.88719493  0.53394285  0.37827556  1
  N  N57  1  0.77654549  0.43010867  0.09179075  1
  N  N58  1  0.53207733  0.54982096  0.87504921  1
  N  N59  1  0.44983719  0.42767527  0.61604910  1
  N  N60  1  0.22202896  0.87178682  0.34497867  1
  N  N61  1  0.12247037  0.73832222  0.05639769  1
  N  N62  1  0.88819690  0.87575350  0.83240613  1
  N  N63  1  0.76449475  0.78284795  0.61809825  1
  N  N64  1  0.54267491  0.86134218  0.37836597  1
  N  N65  1  0.46614040  0.74622215  0.12546900  1
  N  N66  1  0.23496981  0.85698840  0.84921801  1
  N  N67  1  0.09823470  0.75391884  0.56505842  1
  N  N68  1  0.90910418  0.86101178  0.30886681  1
  N  N69  1  0.77030224  0.74790722  0.10652206  1
  N  N70  1  0.56238537  0.84981660  0.86988784  1
  N  N71  1  0.46768061  0.74539267  0.62224419  1
