# generated using pymatgen
data_Sc13Al23N36
_symmetry_space_group_name_H-M   'P 1'
_cell_length_a   10.06899046
_cell_length_b   10.11451089
_cell_length_c   10.00674322
_cell_angle_alpha   90.35418933
_cell_angle_beta   90.09549397
_cell_angle_gamma   59.78446819
_symmetry_Int_Tables_number   1
_chemical_formula_structural   Sc13Al23N36
_chemical_formula_sum   'Sc13 Al23 N36'
_cell_volume   880.63912541
_cell_formula_units_Z   1
loop_
 _symmetry_equiv_pos_site_id
 _symmetry_equiv_pos_as_xyz
  1  'x, y, z'
loop_
 _atom_site_type_symbol
 _atom_site_label
 _atom_site_symmetry_multiplicity
 _atom_site_fract_x
 _atom_site_fract_y
 _atom_site_fract_z
 _atom_site_occupancy
  Al  Al0  1  0.11703454  0.09141686  0.39569858  1
  Al  Al1  1  0.21191667  0.20636179  0.13209553  1
  Al  Al2  1  0.77416735  0.09899954  0.81527593  1
  Al  Al3  1  0.88632410  0.20740243  0.57853228  1
  Al  Al4  1  0.54586072  0.22105243  0.13987631  1
  Al  Al5  1  0.23376141  0.20617227  0.63607560  1
  Al  Al6  1  0.87706178  0.20953824  0.06357597  1
  Al  Al7  1  0.54773474  0.21668002  0.62786686  1
  Al  Al8  1  0.22676294  0.54032070  0.13441827  1
  Al  Al9  1  0.43539125  0.44020538  0.38457704  1
  Al  Al10  1  0.54734819  0.54550624  0.07471062  1
  Al  Al11  1  0.23106867  0.53558505  0.63230679  1
  Al  Al12  1  0.88136426  0.54233876  0.06519508  1
  Al  Al13  1  0.44120043  0.43357667  0.88381080  1
  Al  Al14  1  0.55877101  0.53692667  0.57084693  1
  Al  Al15  1  0.11140537  0.75840238  0.38503863  1
  Al  Al16  1  0.76827876  0.76708292  0.82367517  1
  Al  Al17  1  0.89150328  0.86909766  0.63439612  1
  Al  Al18  1  0.44644484  0.75459982  0.33034857  1
  Al  Al19  1  0.55657389  0.85800546  0.07564003  1
  Al  Al20  1  0.12437358  0.75343716  0.87750689  1
  Al  Al21  1  0.45062314  0.75295753  0.82205944  1
  Al  Al22  1  0.55673043  0.86933067  0.57729287  1
  Sc  Sc23  1  0.44063151  0.09223167  0.36230755  1
  Sc  Sc24  1  0.11211876  0.09142636  0.85715450  1
  Sc  Sc25  1  0.77994037  0.09433943  0.34847914  1
  Sc  Sc26  1  0.45739659  0.09289726  0.87439297  1
  Sc  Sc27  1  0.12314702  0.42524889  0.36791675  1
  Sc  Sc28  1  0.76179156  0.43014153  0.83886902  1
  Sc  Sc29  1  0.89126928  0.53454321  0.60181687  1
  Sc  Sc30  1  0.12243919  0.43396761  0.87390344  1
  Sc  Sc31  1  0.77870484  0.42258238  0.32209473  1
  Sc  Sc32  1  0.21453183  0.87765357  0.12844060  1
  Sc  Sc33  1  0.22977964  0.86136367  0.60882044  1
  Sc  Sc34  1  0.77893311  0.75489764  0.33532449  1
  Sc  Sc35  1  0.88321941  0.87502802  0.09582816  1
  N  N36  1  0.20904381  0.19277275  0.32217089  1
  N  N37  1  0.09824797  0.11257443  0.07668651  1
  N  N38  1  0.87409175  0.19599188  0.87289948  1
  N  N39  1  0.78165469  0.09040661  0.61132957  1
  N  N40  1  0.53342288  0.23520979  0.33124492  1
  N  N41  1  0.44587237  0.09187539  0.10119496  1
  N  N42  1  0.23061771  0.20663708  0.82516559  1
  N  N43  1  0.11195499  0.10902797  0.59790919  1
  N  N44  1  0.90499888  0.19789118  0.38844332  1
  N  N45  1  0.76405251  0.11881078  0.12367341  1
  N  N46  1  0.55813526  0.22651105  0.82045782  1
  N  N47  1  0.45003393  0.09335587  0.59472648  1
  N  N48  1  0.23230040  0.55583034  0.32258196  1
  N  N49  1  0.11017446  0.42999894  0.09820101  1
  N  N50  1  0.88108908  0.55620521  0.86319559  1
  N  N51  1  0.76557287  0.41531060  0.62424085  1
  N  N52  1  0.54296684  0.54815617  0.37821580  1
  N  N53  1  0.43831321  0.42662948  0.07816824  1
  N  N54  1  0.23720573  0.54844370  0.81985164  1
  N  N55  1  0.13887260  0.41599966  0.59236836  1
  N  N56  1  0.89053177  0.53175041  0.39055905  1
  N  N57  1  0.77473315  0.42951283  0.09968801  1
  N  N58  1  0.53138136  0.55588340  0.88569051  1
  N  N59  1  0.44213165  0.43057862  0.57777222  1
  N  N60  1  0.22175962  0.87198626  0.36113022  1
  N  N61  1  0.12351274  0.74047296  0.06499166  1
  N  N62  1  0.88729867  0.87523766  0.84173071  1
  N  N63  1  0.76579670  0.78079970  0.62833467  1
  N  N64  1  0.54637589  0.85707313  0.38848528  1
  N  N65  1  0.45712951  0.75187299  0.13772610  1
  N  N66  1  0.23134100  0.85492556  0.83204236  1
  N  N67  1  0.09939312  0.74711315  0.57739364  1
  N  N68  1  0.91179541  0.85958702  0.31965762  1
  N  N69  1  0.76738904  0.74795417  0.11966820  1
  N  N70  1  0.56126704  0.85079811  0.88289006  1
  N  N71  1  0.47422322  0.74369752  0.63224275  1
