# generated using pymatgen
data_Sc13Al23N36
_symmetry_space_group_name_H-M   'P 1'
_cell_length_a   9.98357138
_cell_length_b   10.01745785
_cell_length_c   10.07314584
_cell_angle_alpha   89.62183845
_cell_angle_beta   89.73371777
_cell_angle_gamma   60.06394531
_symmetry_Int_Tables_number   1
_chemical_formula_structural   Sc13Al23N36
_chemical_formula_sum   'Sc13 Al23 N36'
_cell_volume   872.98884541
_cell_formula_units_Z   1
loop_
 _symmetry_equiv_pos_site_id
 _symmetry_equiv_pos_as_xyz
  1  'x, y, z'
loop_
 _atom_site_type_symbol
 _atom_site_label
 _atom_site_symmetry_multiplicity
 _atom_site_fract_x
 _atom_site_fract_y
 _atom_site_fract_z
 _atom_site_occupancy
  Al  Al0  1  0.10962277  0.09485863  0.31064185  1
  Al  Al1  1  0.22085728  0.20863576  0.06438084  1
  Al  Al2  1  0.77530633  0.09513473  0.80458302  1
  Al  Al3  1  0.88908599  0.20698639  0.56325514  1
  Al  Al4  1  0.55592689  0.21590057  0.05953855  1
  Al  Al5  1  0.22441302  0.20374167  0.55842150  1
  Al  Al6  1  0.88204129  0.20872805  0.06201913  1
  Al  Al7  1  0.54683145  0.21586563  0.56632360  1
  Al  Al8  1  0.22910161  0.53676663  0.05997630  1
  Al  Al9  1  0.43830552  0.43880402  0.31358736  1
  Al  Al10  1  0.55055719  0.53985599  0.06169080  1
  Al  Al11  1  0.23003500  0.53681759  0.56192911  1
  Al  Al12  1  0.88748104  0.54187694  0.04947183  1
  Al  Al13  1  0.44433019  0.43482529  0.81224444  1
  Al  Al14  1  0.55278769  0.53532712  0.56262471  1
  Al  Al15  1  0.11636142  0.75899873  0.32351046  1
  Al  Al16  1  0.77363102  0.76831560  0.80751583  1
  Al  Al17  1  0.88908465  0.87243983  0.56845247  1
  Al  Al18  1  0.44347203  0.75631394  0.31491609  1
  Al  Al19  1  0.56194360  0.85799656  0.05890648  1
  Al  Al20  1  0.11379485  0.75696352  0.81649227  1
  Al  Al21  1  0.45062658  0.75085220  0.81264734  1
  Al  Al22  1  0.55331960  0.87147699  0.56601541  1
  Sc  Sc23  1  0.44445506  0.09204816  0.31816591  1
  Sc  Sc24  1  0.10909103  0.09238406  0.82325429  1
  Sc  Sc25  1  0.77472780  0.10063763  0.33227675  1
  Sc  Sc26  1  0.45455453  0.08806290  0.82487271  1
  Sc  Sc27  1  0.11653907  0.42906090  0.31740903  1
  Sc  Sc28  1  0.76716228  0.42555955  0.82892050  1
  Sc  Sc29  1  0.88807990  0.53710442  0.58260045  1
  Sc  Sc30  1  0.12286402  0.42885850  0.82014030  1
  Sc  Sc31  1  0.77234000  0.42797109  0.31105541  1
  Sc  Sc32  1  0.22819354  0.86742762  0.07771375  1
  Sc  Sc33  1  0.22587403  0.87077295  0.57198877  1
  Sc  Sc34  1  0.77455473  0.75878730  0.32245990  1
  Sc  Sc35  1  0.88288937  0.87743911  0.06537613  1
  N  N36  1  0.21463658  0.19513454  0.36835587  1
  N  N37  1  0.09826653  0.11470125  0.11663053  1
  N  N38  1  0.87925987  0.18952896  0.87568796  1
  N  N39  1  0.77578688  0.09624164  0.60919150  1
  N  N40  1  0.53627393  0.23352950  0.37879748  1
  N  N41  1  0.45133642  0.08965245  0.09897875  1
  N  N42  1  0.22641995  0.20234622  0.87951020  1
  N  N43  1  0.10286796  0.11270864  0.61440063  1
  N  N44  1  0.90676783  0.19943859  0.37535347  1
  N  N45  1  0.76426803  0.11692973  0.12173801  1
  N  N46  1  0.56387791  0.22023332  0.86716626  1
  N  N47  1  0.44406502  0.09302215  0.60596181  1
  N  N48  1  0.23179020  0.55086596  0.37314372  1
  N  N49  1  0.11123230  0.43032164  0.09745410  1
  N  N50  1  0.88265146  0.55622522  0.85322491  1
  N  N51  1  0.76434641  0.41588436  0.61344640  1
  N  N52  1  0.53590020  0.54858390  0.37308707  1
  N  N53  1  0.44341029  0.42889619  0.12116726  1
  N  N54  1  0.23575400  0.54758089  0.87197968  1
  N  N55  1  0.13621028  0.41568171  0.60459573  1
  N  N56  1  0.88974528  0.53351827  0.37533620  1
  N  N57  1  0.77704368  0.42966372  0.09011470  1
  N  N58  1  0.53350498  0.54852635  0.87565305  1
  N  N59  1  0.44294359  0.43117218  0.62282282  1
  N  N60  1  0.22167074  0.87395722  0.34839359  1
  N  N61  1  0.11642495  0.74318586  0.11776217  1
  N  N62  1  0.88502910  0.87573107  0.85245273  1
  N  N63  1  0.76503019  0.78349003  0.61604624  1
  N  N64  1  0.54209594  0.86154391  0.37881901  1
  N  N65  1  0.46630318  0.74647259  0.12556041  1
  N  N66  1  0.23341184  0.85388582  0.85515289  1
  N  N67  1  0.10452997  0.75016185  0.61845521  1
  N  N68  1  0.90582489  0.86321565  0.37446546  1
  N  N69  1  0.77294836  0.74898380  0.11042347  1
  N  N70  1  0.56498271  0.84846915  0.87010779  1
  N  N71  1  0.46669192  0.74613249  0.62394970  1
