# generated using pymatgen
data_Sc13Al23N36
_symmetry_space_group_name_H-M   'P 1'
_cell_length_a   10.02965939
_cell_length_b   10.08402912
_cell_length_c   10.06323619
_cell_angle_alpha   90.55300327
_cell_angle_beta   90.02499138
_cell_angle_gamma   59.77084462
_symmetry_Int_Tables_number   1
_chemical_formula_structural   Sc13Al23N36
_chemical_formula_sum   'Sc13 Al23 N36'
_cell_volume   879.33665289
_cell_formula_units_Z   1
loop_
 _symmetry_equiv_pos_site_id
 _symmetry_equiv_pos_as_xyz
  1  'x, y, z'
loop_
 _atom_site_type_symbol
 _atom_site_label
 _atom_site_symmetry_multiplicity
 _atom_site_fract_x
 _atom_site_fract_y
 _atom_site_fract_z
 _atom_site_occupancy
  Al  Al0  1  0.10960850  0.09619648  0.39867328  1
  Al  Al1  1  0.21828319  0.20442350  0.14371486  1
  Al  Al2  1  0.77031185  0.10479132  0.89465371  1
  Al  Al3  1  0.88276213  0.20109146  0.64498626  1
  Al  Al4  1  0.54895366  0.21930798  0.14125475  1
  Al  Al5  1  0.22845112  0.20717256  0.64193068  1
  Al  Al6  1  0.88807914  0.21279395  0.14216662  1
  Al  Al7  1  0.55747163  0.21089123  0.64403797  1
  Al  Al8  1  0.22907186  0.53942145  0.14599926  1
  Al  Al9  1  0.43932691  0.43852658  0.39422416  1
  Al  Al10  1  0.55167539  0.53715845  0.14718701  1
  Al  Al11  1  0.22996335  0.53600026  0.64199089  1
  Al  Al12  1  0.88338533  0.54022816  0.08750468  1
  Al  Al13  1  0.44248965  0.43515905  0.89442298  1
  Al  Al14  1  0.55232950  0.53060723  0.64731982  1
  Al  Al15  1  0.11025663  0.75759234  0.39613412  1
  Al  Al16  1  0.76826979  0.76771283  0.83579754  1
  Al  Al17  1  0.88578271  0.87943608  0.65368758  1
  Al  Al18  1  0.44254357  0.75996689  0.34061950  1
  Al  Al19  1  0.55541881  0.85948893  0.08296659  1
  Al  Al20  1  0.12415285  0.75272826  0.88738902  1
  Al  Al21  1  0.44733757  0.75670544  0.82933654  1
  Al  Al22  1  0.55670012  0.86963120  0.58704507  1
  Sc  Sc23  1  0.44391817  0.09501079  0.37730263  1
  Sc  Sc24  1  0.11088385  0.09113119  0.87784196  1
  Sc  Sc25  1  0.78221158  0.09108687  0.38087462  1
  Sc  Sc26  1  0.45443713  0.09145898  0.87706027  1
  Sc  Sc27  1  0.12212271  0.42476322  0.37969883  1
  Sc  Sc28  1  0.76752164  0.42596391  0.88033785  1
  Sc  Sc29  1  0.89231906  0.53732727  0.62025154  1
  Sc  Sc30  1  0.12269539  0.43232417  0.88746775  1
  Sc  Sc31  1  0.77093618  0.42278049  0.38997088  1
  Sc  Sc32  1  0.21348188  0.87679965  0.14093062  1
  Sc  Sc33  1  0.22427110  0.86777788  0.61536762  1
  Sc  Sc34  1  0.77876332  0.75605549  0.34603601  1
  Sc  Sc35  1  0.88689439  0.86974694  0.10854594  1
  N  N36  1  0.21458643  0.19024598  0.33171132  1
  N  N37  1  0.09989774  0.11393365  0.08699903  1
  N  N38  1  0.88015717  0.19260927  0.83112184  1
  N  N39  1  0.77892556  0.08970523  0.59517431  1
  N  N40  1  0.54364870  0.23201880  0.33022265  1
  N  N41  1  0.44630423  0.09415718  0.10373990  1
  N  N42  1  0.22571381  0.20600571  0.82938710  1
  N  N43  1  0.10036135  0.11668620  0.59214226  1
  N  N44  1  0.90940884  0.19258869  0.33003201  1
  N  N45  1  0.76475725  0.12001669  0.08733581  1
  N  N46  1  0.56138914  0.22297588  0.83481035  1
  N  N47  1  0.44950821  0.09495107  0.60612527  1
  N  N48  1  0.23254475  0.55337617  0.33384051  1
  N  N49  1  0.11168360  0.42899944  0.11036614  1
  N  N50  1  0.88234119  0.55530910  0.87071270  1
  N  N51  1  0.76585026  0.41407945  0.61019740  1
  N  N52  1  0.53673688  0.54479559  0.33858950  1
  N  N53  1  0.44173285  0.43087759  0.08475262  1
  N  N54  1  0.23656765  0.54682305  0.82916785  1
  N  N55  1  0.13926175  0.41623049  0.59993989  1
  N  N56  1  0.89022424  0.53593423  0.40562316  1
  N  N57  1  0.77333515  0.43021354  0.10364075  1
  N  N58  1  0.53591138  0.54391022  0.83952937  1
  N  N59  1  0.44489873  0.42848347  0.58493733  1
  N  N60  1  0.21982197  0.87208031  0.37077880  1
  N  N61  1  0.12584792  0.73737056  0.07393818  1
  N  N62  1  0.88593073  0.87806989  0.85656388  1
  N  N63  1  0.76407639  0.78478417  0.64292059  1
  N  N64  1  0.54622723  0.85897839  0.39863657  1
  N  N65  1  0.45318712  0.75820742  0.14314025  1
  N  N66  1  0.22950617  0.85578094  0.84049408  1
  N  N67  1  0.09540634  0.74990242  0.58809148  1
  N  N68  1  0.91202763  0.86212238  0.32335117  1
  N  N69  1  0.76631696  0.74805975  0.13139813  1
  N  N70  1  0.56105645  0.84863966  0.89256918  1
  N  N71  1  0.46807278  0.74968005  0.63628697  1
