# generated using pymatgen
data_Sc13Al23N36
_symmetry_space_group_name_H-M   'P 1'
_cell_length_a   10.06503508
_cell_length_b   10.10639688
_cell_length_c   10.00901582
_cell_angle_alpha   90.13536024
_cell_angle_beta   90.15165027
_cell_angle_gamma   59.88440376
_symmetry_Int_Tables_number   1
_chemical_formula_structural   Sc13Al23N36
_chemical_formula_sum   'Sc13 Al23 N36'
_cell_volume   880.69343972
_cell_formula_units_Z   1
loop_
 _symmetry_equiv_pos_site_id
 _symmetry_equiv_pos_as_xyz
  1  'x, y, z'
loop_
 _atom_site_type_symbol
 _atom_site_label
 _atom_site_symmetry_multiplicity
 _atom_site_fract_x
 _atom_site_fract_y
 _atom_site_fract_z
 _atom_site_occupancy
  Al  Al0  1  0.10812774  0.08887416  0.32618721  1
  Al  Al1  1  0.21730110  0.20878476  0.13028866  1
  Al  Al2  1  0.77649464  0.09926591  0.81474496  1
  Al  Al3  1  0.89483511  0.20475484  0.57584629  1
  Al  Al4  1  0.54536874  0.22014194  0.14260215  1
  Al  Al5  1  0.23016696  0.20677423  0.64217404  1
  Al  Al6  1  0.87462709  0.20951000  0.07035657  1
  Al  Al7  1  0.54787068  0.21749420  0.62897998  1
  Al  Al8  1  0.22682619  0.53771235  0.13545482  1
  Al  Al9  1  0.43434901  0.44071898  0.38593213  1
  Al  Al10  1  0.55169749  0.54176570  0.07482903  1
  Al  Al11  1  0.23120594  0.53748819  0.63235964  1
  Al  Al12  1  0.88162993  0.54165394  0.06599311  1
  Al  Al13  1  0.44187604  0.43326216  0.88426154  1
  Al  Al14  1  0.55637934  0.53840196  0.57221669  1
  Al  Al15  1  0.11220426  0.75917423  0.38228591  1
  Al  Al16  1  0.76908024  0.76680290  0.82400856  1
  Al  Al17  1  0.89203335  0.86972065  0.63343532  1
  Al  Al18  1  0.44444639  0.75607333  0.32763104  1
  Al  Al19  1  0.55960472  0.85712669  0.07526583  1
  Al  Al20  1  0.12186395  0.75314610  0.87656002  1
  Al  Al21  1  0.45082317  0.75292178  0.82359555  1
  Al  Al22  1  0.55596924  0.86887141  0.57956899  1
  Sc  Sc23  1  0.43826005  0.09337728  0.36903850  1
  Sc  Sc24  1  0.10950799  0.09443239  0.85332337  1
  Sc  Sc25  1  0.77802938  0.09426514  0.35293173  1
  Sc  Sc26  1  0.46011179  0.09264267  0.87460813  1
  Sc  Sc27  1  0.12231352  0.42534075  0.37174537  1
  Sc  Sc28  1  0.76296573  0.42717922  0.83775799  1
  Sc  Sc29  1  0.89026016  0.53468654  0.60324142  1
  Sc  Sc30  1  0.12163653  0.43696483  0.87396669  1
  Sc  Sc31  1  0.77586663  0.42479298  0.32591875  1
  Sc  Sc32  1  0.22650311  0.86402691  0.10314335  1
  Sc  Sc33  1  0.22518804  0.87277827  0.60151226  1
  Sc  Sc34  1  0.77724361  0.75537893  0.33625669  1
  Sc  Sc35  1  0.88365543  0.87574956  0.09941586  1
  N  N36  1  0.21069669  0.19640022  0.32101662  1
  N  N37  1  0.09563390  0.10926575  0.10451808  1
  N  N38  1  0.87450047  0.19481156  0.88255896  1
  N  N39  1  0.78267323  0.09150330  0.61077642  1
  N  N40  1  0.53183303  0.23552318  0.33398017  1
  N  N41  1  0.44783162  0.09059659  0.10072423  1
  N  N42  1  0.23172390  0.20845140  0.83510696  1
  N  N43  1  0.10484443  0.11288668  0.62773605  1
  N  N44  1  0.90883507  0.19579201  0.38653579  1
  N  N45  1  0.76214677  0.11872515  0.12910700  1
  N  N46  1  0.56066452  0.22677374  0.82063259  1
  N  N47  1  0.44769306  0.09366058  0.59952856  1
  N  N48  1  0.23147133  0.55519702  0.32335884  1
  N  N49  1  0.10999060  0.42998692  0.09705832  1
  N  N50  1  0.87992880  0.55557732  0.86384095  1
  N  N51  1  0.76506588  0.41394100  0.62265704  1
  N  N52  1  0.54029581  0.55043173  0.37988743  1
  N  N53  1  0.43855465  0.42575327  0.07882802  1
  N  N54  1  0.23834067  0.54964062  0.81911219  1
  N  N55  1  0.13788658  0.41681259  0.59621842  1
  N  N56  1  0.88960837  0.53245152  0.39230784  1
  N  N57  1  0.77568076  0.42869829  0.10376394  1
  N  N58  1  0.53377431  0.55421823  0.88593082  1
  N  N59  1  0.44137345  0.43063122  0.57858980  1
  N  N60  1  0.22139144  0.87184595  0.35348020  1
  N  N61  1  0.12133415  0.73582777  0.06432962  1
  N  N62  1  0.88872357  0.87501953  0.84044153  1
  N  N63  1  0.76580480  0.78092548  0.62881603  1
  N  N64  1  0.54480204  0.85748005  0.39042718  1
  N  N65  1  0.46408520  0.74726253  0.13668875  1
  N  N66  1  0.23334320  0.85603367  0.84959436  1
  N  N67  1  0.10104963  0.75025531  0.57703893  1
  N  N68  1  0.91040856  0.85994844  0.32202514  1
  N  N69  1  0.76941271  0.74719623  0.12038315  1
  N  N70  1  0.56278309  0.85051038  0.88295867  1
  N  N71  1  0.46954048  0.74608322  0.63423573  1
