# generated using pymatgen
data_Sc13Al23N36
_symmetry_space_group_name_H-M   'P 1'
_cell_length_a   10.00922017
_cell_length_b   10.06119100
_cell_length_c   10.10280781
_cell_angle_alpha   90.78239494
_cell_angle_beta   90.04102788
_cell_angle_gamma   59.77414909
_symmetry_Int_Tables_number   1
_chemical_formula_structural   Sc13Al23N36
_chemical_formula_sum   'Sc13 Al23 N36'
_cell_volume   878.97789064
_cell_formula_units_Z   1
loop_
 _symmetry_equiv_pos_site_id
 _symmetry_equiv_pos_as_xyz
  1  'x, y, z'
loop_
 _atom_site_type_symbol
 _atom_site_label
 _atom_site_symmetry_multiplicity
 _atom_site_fract_x
 _atom_site_fract_y
 _atom_site_fract_z
 _atom_site_occupancy
  Al  Al0  1  0.11041204  0.09461814  0.39807760  1
  Al  Al1  1  0.22094375  0.20059441  0.14234443  1
  Al  Al2  1  0.77020229  0.10648539  0.89166422  1
  Al  Al3  1  0.88078939  0.20574136  0.64418259  1
  Al  Al4  1  0.54931700  0.21800350  0.13888448  1
  Al  Al5  1  0.22598535  0.21111945  0.64133046  1
  Al  Al6  1  0.88892015  0.20881642  0.14071816  1
  Al  Al7  1  0.55726302  0.21085004  0.64374274  1
  Al  Al8  1  0.23040409  0.53919896  0.14524870  1
  Al  Al9  1  0.43917078  0.43885536  0.39407747  1
  Al  Al10  1  0.54940360  0.53671462  0.14661843  1
  Al  Al11  1  0.22863825  0.53457492  0.64024134  1
  Al  Al12  1  0.88671378  0.53191371  0.15822987  1
  Al  Al13  1  0.44251329  0.43441700  0.89161607  1
  Al  Al14  1  0.55575567  0.52874004  0.64644281  1
  Al  Al15  1  0.11255973  0.75799718  0.39438120  1
  Al  Al16  1  0.76927719  0.76749948  0.82348140  1
  Al  Al17  1  0.88760211  0.88056458  0.64834013  1
  Al  Al18  1  0.44106320  0.76107682  0.33598292  1
  Al  Al19  1  0.56004534  0.85596098  0.08073008  1
  Al  Al20  1  0.12316095  0.75220890  0.88385714  1
  Al  Al21  1  0.44873004  0.75549791  0.82818710  1
  Al  Al22  1  0.55293304  0.87130917  0.58478375  1
  Sc  Sc23  1  0.44356701  0.09522468  0.37765664  1
  Sc  Sc24  1  0.10894646  0.09421784  0.87425051  1
  Sc  Sc25  1  0.78210458  0.09222529  0.38104375  1
  Sc  Sc26  1  0.45156556  0.09348170  0.87630765  1
  Sc  Sc27  1  0.12875809  0.42089707  0.37336465  1
  Sc  Sc28  1  0.77102011  0.43548059  0.89193442  1
  Sc  Sc29  1  0.89364906  0.53385874  0.61932168  1
  Sc  Sc30  1  0.11018528  0.44118555  0.89715287  1
  Sc  Sc31  1  0.76785473  0.42021305  0.38314619  1
  Sc  Sc32  1  0.21218516  0.87662998  0.13668023  1
  Sc  Sc33  1  0.22559828  0.86729009  0.61448234  1
  Sc  Sc34  1  0.77704917  0.76521807  0.35837493  1
  Sc  Sc35  1  0.88517700  0.86685279  0.10911934  1
  N  N36  1  0.21673443  0.18588113  0.32899773  1
  N  N37  1  0.09984620  0.11358756  0.08299701  1
  N  N38  1  0.87533353  0.20233265  0.83058079  1
  N  N39  1  0.77899366  0.09182135  0.59425377  1
  N  N40  1  0.54352268  0.23215029  0.32762814  1
  N  N41  1  0.44710713  0.09283310  0.10045106  1
  N  N42  1  0.22060236  0.21487025  0.82873494  1
  N  N43  1  0.10009845  0.11722320  0.59180624  1
  N  N44  1  0.91145948  0.18912237  0.32728298  1
  N  N45  1  0.76528459  0.11785788  0.08375197  1
  N  N46  1  0.56103607  0.22172215  0.83300736  1
  N  N47  1  0.44777588  0.09599672  0.60578105  1
  N  N48  1  0.23409318  0.55431026  0.33151220  1
  N  N49  1  0.11298204  0.42682661  0.11722790  1
  N  N50  1  0.88360566  0.55438910  0.83197222  1
  N  N51  1  0.76612373  0.41480517  0.59629847  1
  N  N52  1  0.53354596  0.54635308  0.33609516  1
  N  N53  1  0.44191388  0.42986142  0.08175914  1
  N  N54  1  0.23452583  0.54417403  0.82707737  1
  N  N55  1  0.13803035  0.41654094  0.58663251  1
  N  N56  1  0.89236827  0.53028552  0.35738427  1
  N  N57  1  0.77381938  0.42883785  0.11126956  1
  N  N58  1  0.54040143  0.54110555  0.83837699  1
  N  N59  1  0.44522452  0.42804468  0.58424298  1
  N  N60  1  0.22020677  0.87207667  0.36834725  1
  N  N61  1  0.12454563  0.73570803  0.07007868  1
  N  N62  1  0.88560210  0.87802090  0.84888693  1
  N  N63  1  0.76595998  0.78538473  0.62449679  1
  N  N64  1  0.54250046  0.85999942  0.39776912  1
  N  N65  1  0.45271153  0.75793171  0.13932257  1
  N  N66  1  0.22942027  0.85616351  0.83914532  1
  N  N67  1  0.09737430  0.74928025  0.58541485  1
  N  N68  1  0.91415865  0.86401256  0.32249552  1
  N  N69  1  0.76616737  0.74688378  0.13843789  1
  N  N70  1  0.56523130  0.84702225  0.88935164  1
  N  N71  1  0.46916732  0.74882081  0.63672805  1
