# generated using pymatgen
data_Sc13Al23N36
_symmetry_space_group_name_H-M   'P 1'
_cell_length_a   10.00683613
_cell_length_b   10.02523619
_cell_length_c   10.04004958
_cell_angle_alpha   90.37688015
_cell_angle_beta   90.24457439
_cell_angle_gamma   59.92075565
_symmetry_Int_Tables_number   1
_chemical_formula_structural   Sc13Al23N36
_chemical_formula_sum   'Sc13 Al23 N36'
_cell_volume   871.56719288
_cell_formula_units_Z   1
loop_
 _symmetry_equiv_pos_site_id
 _symmetry_equiv_pos_as_xyz
  1  'x, y, z'
loop_
 _atom_site_type_symbol
 _atom_site_label
 _atom_site_symmetry_multiplicity
 _atom_site_fract_x
 _atom_site_fract_y
 _atom_site_fract_z
 _atom_site_occupancy
  Al  Al0  1  0.10972975  0.09485043  0.39902521  1
  Al  Al1  1  0.22043597  0.20073466  0.14315652  1
  Al  Al2  1  0.76977654  0.10553726  0.89021904  1
  Al  Al3  1  0.87963437  0.20608065  0.64231715  1
  Al  Al4  1  0.54940226  0.21877638  0.13783117  1
  Al  Al5  1  0.22590192  0.20986257  0.64051604  1
  Al  Al6  1  0.89062572  0.20718290  0.13984355  1
  Al  Al7  1  0.55714816  0.21107568  0.64112284  1
  Al  Al8  1  0.23176841  0.53922624  0.14298745  1
  Al  Al9  1  0.43850032  0.44065826  0.39024221  1
  Al  Al10  1  0.54809882  0.54180416  0.13965339  1
  Al  Al11  1  0.22855375  0.53475503  0.63845261  1
  Al  Al12  1  0.88508591  0.53596960  0.15256814  1
  Al  Al13  1  0.44335010  0.43456517  0.88742381  1
  Al  Al14  1  0.55257687  0.53556953  0.64220366  1
  Al  Al15  1  0.11190291  0.75848711  0.39495768  1
  Al  Al16  1  0.77382756  0.76154404  0.86584411  1
  Al  Al17  1  0.88502879  0.87714608  0.64700825  1
  Al  Al18  1  0.44427174  0.75622142  0.39434478  1
  Al  Al19  1  0.55398500  0.86235797  0.13871685  1
  Al  Al20  1  0.12454876  0.75234931  0.88333138  1
  Al  Al21  1  0.44625872  0.75366693  0.88749773  1
  Al  Al22  1  0.55674770  0.86938381  0.64078223  1
  Sc  Sc23  1  0.44385602  0.09324683  0.38139054  1
  Sc  Sc24  1  0.10983955  0.09235098  0.87488297  1
  Sc  Sc25  1  0.78123153  0.09209536  0.37947901  1
  Sc  Sc26  1  0.45250136  0.09170926  0.88101331  1
  Sc  Sc27  1  0.12581156  0.42314166  0.37142537  1
  Sc  Sc28  1  0.77028883  0.43361940  0.88835585  1
  Sc  Sc29  1  0.89244544  0.53551654  0.62041483  1
  Sc  Sc30  1  0.11290920  0.43819572  0.89513364  1
  Sc  Sc31  1  0.76561125  0.42253836  0.37747996  1
  Sc  Sc32  1  0.22437101  0.87011828  0.14458176  1
  Sc  Sc33  1  0.22515479  0.86671954  0.62078681  1
  Sc  Sc34  1  0.77460882  0.76840842  0.37782245  1
  Sc  Sc35  1  0.88937162  0.86749409  0.11114104  1
  N  N36  1  0.21600071  0.18761278  0.33107764  1
  N  N37  1  0.10290501  0.10815185  0.08541940  1
  N  N38  1  0.87614332  0.20085857  0.83029892  1
  N  N39  1  0.77799279  0.09157400  0.59367365  1
  N  N40  1  0.54243940  0.23293591  0.32741422  1
  N  N41  1  0.44630365  0.09267055  0.10009685  1
  N  N42  1  0.22243035  0.21245847  0.82904601  1
  N  N43  1  0.09896279  0.11680895  0.59329654  1
  N  N44  1  0.91062106  0.18993996  0.32795596  1
  N  N45  1  0.76488081  0.11757390  0.08374097  1
  N  N46  1  0.56064014  0.22164491  0.83135576  1
  N  N47  1  0.44799278  0.09224810  0.60240044  1
  N  N48  1  0.23300551  0.55549368  0.33034145  1
  N  N49  1  0.11348118  0.42710710  0.11557378  1
  N  N50  1  0.88462657  0.55257261  0.83193936  1
  N  N51  1  0.76445307  0.41637107  0.59380026  1
  N  N52  1  0.52836482  0.55444648  0.32713665  1
  N  N53  1  0.44255491  0.43023348  0.07879187  1
  N  N54  1  0.23471453  0.54451304  0.82656327  1
  N  N55  1  0.13685174  0.41678415  0.58649002  1
  N  N56  1  0.88853900  0.53491234  0.34946164  1
  N  N57  1  0.77455946  0.42779264  0.10936135  1
  N  N58  1  0.53819750  0.54646058  0.83132618  1
  N  N59  1  0.44452569  0.42965370  0.58172937  1
  N  N60  1  0.22073493  0.87233686  0.36908853  1
  N  N61  1  0.12800637  0.73863961  0.07090015  1
  N  N62  1  0.88555954  0.87628256  0.84773147  1
  N  N63  1  0.76853213  0.78300343  0.59685646  1
  N  N64  1  0.54022797  0.86182551  0.32809735  1
  N  N65  1  0.45719001  0.75076612  0.07757930  1
  N  N66  1  0.23336109  0.85432664  0.83598831  1
  N  N67  1  0.09673325  0.74979147  0.58620172  1
  N  N68  1  0.91211920  0.86210258  0.32289130  1
  N  N69  1  0.76888705  0.74655220  0.10030608  1
  N  N70  1  0.56030138  0.85256194  0.83185592  1
  N  N71  1  0.46937861  0.74586603  0.58241926  1
