# generated using pymatgen
data_Sc13Al23N36
_symmetry_space_group_name_H-M   'P 1'
_cell_length_a   10.13022543
_cell_length_b   10.17602076
_cell_length_c   9.81006705
_cell_angle_alpha   90.42320801
_cell_angle_beta   89.95875220
_cell_angle_gamma   59.77799289
_symmetry_Int_Tables_number   1
_chemical_formula_structural   Sc13Al23N36
_chemical_formula_sum   'Sc13 Al23 N36'
_cell_volume   873.78828248
_cell_formula_units_Z   1
loop_
 _symmetry_equiv_pos_site_id
 _symmetry_equiv_pos_as_xyz
  1  'x, y, z'
loop_
 _atom_site_type_symbol
 _atom_site_label
 _atom_site_symmetry_multiplicity
 _atom_site_fract_x
 _atom_site_fract_y
 _atom_site_fract_z
 _atom_site_occupancy
  Al  Al0  1  0.11723414  0.08997090  0.39269420  1
  Al  Al1  1  0.21207889  0.20619482  0.12980475  1
  Al  Al2  1  0.77201001  0.09975465  0.81660862  1
  Al  Al3  1  0.88714856  0.20661852  0.58167505  1
  Al  Al4  1  0.54605648  0.22079846  0.13934682  1
  Al  Al5  1  0.23364413  0.20592562  0.63469985  1
  Al  Al6  1  0.87873343  0.20769941  0.06640028  1
  Al  Al7  1  0.54790394  0.21633981  0.62283114  1
  Al  Al8  1  0.22619545  0.54059705  0.13406578  1
  Al  Al9  1  0.43808661  0.44271084  0.38081475  1
  Al  Al10  1  0.54813378  0.53991141  0.11341564  1
  Al  Al11  1  0.23031891  0.53703444  0.62974409  1
  Al  Al12  1  0.88359561  0.54345814  0.06866697  1
  Al  Al13  1  0.44227251  0.43341065  0.88398699  1
  Al  Al14  1  0.55422533  0.53279196  0.62810973  1
  Al  Al15  1  0.11127144  0.75879574  0.38294318  1
  Al  Al16  1  0.76913927  0.76802864  0.82355606  1
  Al  Al17  1  0.89043815  0.87005543  0.63118099  1
  Al  Al18  1  0.44425952  0.75585341  0.32519559  1
  Al  Al19  1  0.55803883  0.85978357  0.07488528  1
  Al  Al20  1  0.12300609  0.75288377  0.87571001  1
  Al  Al21  1  0.44828932  0.75663944  0.82926104  1
  Al  Al22  1  0.55532215  0.86873933  0.57769552  1
  Sc  Sc23  1  0.44106099  0.09042754  0.35835367  1
  Sc  Sc24  1  0.11070697  0.09290343  0.85403951  1
  Sc  Sc25  1  0.77902734  0.09504141  0.35187569  1
  Sc  Sc26  1  0.45758249  0.09297244  0.86920943  1
  Sc  Sc27  1  0.12362863  0.42443126  0.36583546  1
  Sc  Sc28  1  0.76711482  0.42902876  0.85140540  1
  Sc  Sc29  1  0.89165070  0.53416884  0.60515460  1
  Sc  Sc30  1  0.12351166  0.43414626  0.87077716  1
  Sc  Sc31  1  0.78018212  0.42178706  0.33021324  1
  Sc  Sc32  1  0.21488053  0.87761035  0.11789465  1
  Sc  Sc33  1  0.23003538  0.86117419  0.60735816  1
  Sc  Sc34  1  0.77898872  0.75568266  0.34107019  1
  Sc  Sc35  1  0.88246594  0.87555019  0.09636895  1
  N  N36  1  0.21003542  0.19193901  0.32400427  1
  N  N37  1  0.09708084  0.11396873  0.07811192  1
  N  N38  1  0.87470711  0.19428330  0.87068566  1
  N  N39  1  0.78063397  0.09075254  0.60876714  1
  N  N40  1  0.53268597  0.23462448  0.33562034  1
  N  N41  1  0.44678836  0.09264748  0.10166854  1
  N  N42  1  0.23025519  0.20650587  0.82809279  1
  N  N43  1  0.11217784  0.10808787  0.60024593  1
  N  N44  1  0.90695522  0.19543785  0.38741319  1
  N  N45  1  0.76279023  0.11932734  0.12243216  1
  N  N46  1  0.55729434  0.22684617  0.81951599  1
  N  N47  1  0.45000162  0.09238463  0.59642438  1
  N  N48  1  0.23142033  0.55511185  0.32591765  1
  N  N49  1  0.11104775  0.42987312  0.10000386  1
  N  N50  1  0.88304358  0.55795228  0.86138396  1
  N  N51  1  0.76707106  0.41497692  0.62327679  1
  N  N52  1  0.54019077  0.54298706  0.32577386  1
  N  N53  1  0.43843979  0.42736360  0.07809564  1
  N  N54  1  0.23794661  0.54837193  0.82071704  1
  N  N55  1  0.13961459  0.41590508  0.59513510  1
  N  N56  1  0.89246290  0.53199869  0.38977300  1
  N  N57  1  0.77773248  0.42877690  0.09717980  1
  N  N58  1  0.53383665  0.54923284  0.85593773  1
  N  N59  1  0.44351865  0.43467392  0.57649393  1
  N  N60  1  0.22212682  0.87088239  0.35960999  1
  N  N61  1  0.12112324  0.73993387  0.06687199  1
  N  N62  1  0.88573202  0.87634192  0.84148836  1
  N  N63  1  0.76582968  0.78104875  0.62311123  1
  N  N64  1  0.54473361  0.85589260  0.38514217  1
  N  N65  1  0.45355482  0.75821422  0.12481447  1
  N  N66  1  0.23062461  0.85591856  0.83933950  1
  N  N67  1  0.09950532  0.74844113  0.57981267  1
  N  N68  1  0.91007767  0.86123867  0.32355525  1
  N  N69  1  0.76755413  0.74908819  0.11979715  1
  N  N70  1  0.56276784  0.85200024  0.87910446  1
  N  N71  1  0.47068650  0.74624992  0.63073127  1
