# generated using pymatgen
data_Sc13Al23N36
_symmetry_space_group_name_H-M   'P 1'
_cell_length_a   9.94324813
_cell_length_b   9.96813355
_cell_length_c   10.17914059
_cell_angle_alpha   89.99311853
_cell_angle_beta   90.03171642
_cell_angle_gamma   59.96719343
_symmetry_Int_Tables_number   1
_chemical_formula_structural   Sc13Al23N36
_chemical_formula_sum   'Sc13 Al23 N36'
_cell_volume   873.45411068
_cell_formula_units_Z   1
loop_
 _symmetry_equiv_pos_site_id
 _symmetry_equiv_pos_as_xyz
  1  'x, y, z'
loop_
 _atom_site_type_symbol
 _atom_site_label
 _atom_site_symmetry_multiplicity
 _atom_site_fract_x
 _atom_site_fract_y
 _atom_site_fract_z
 _atom_site_occupancy
  Al  Al0  1  0.10928615  0.09518972  0.40170196  1
  Al  Al1  1  0.22095152  0.20168418  0.14783966  1
  Al  Al2  1  0.77053744  0.10357252  0.89270837  1
  Al  Al3  1  0.88135362  0.20553526  0.64587961  1
  Al  Al4  1  0.54943267  0.21825845  0.14108005  1
  Al  Al5  1  0.22469850  0.20933827  0.64337315  1
  Al  Al6  1  0.88972335  0.20834869  0.14465697  1
  Al  Al7  1  0.55666604  0.21103879  0.64588572  1
  Al  Al8  1  0.23139291  0.53918297  0.14607019  1
  Al  Al9  1  0.43843986  0.44003784  0.39305313  1
  Al  Al10  1  0.54900317  0.54117938  0.14320984  1
  Al  Al11  1  0.22766767  0.53504158  0.64220012  1
  Al  Al12  1  0.88479451  0.53769930  0.14928263  1
  Al  Al13  1  0.44289726  0.43471165  0.89078784  1
  Al  Al14  1  0.55332187  0.53575803  0.64467726  1
  Al  Al15  1  0.11119380  0.75851053  0.39944663  1
  Al  Al16  1  0.77248551  0.75844854  0.89545734  1
  Al  Al17  1  0.88338558  0.87526191  0.65479513  1
  Al  Al18  1  0.44611891  0.75629931  0.39716459  1
  Al  Al19  1  0.55296756  0.86432928  0.13887542  1
  Al  Al20  1  0.12288156  0.75288939  0.88727627  1
  Al  Al21  1  0.44587482  0.75289608  0.89036327  1
  Al  Al22  1  0.56008222  0.86765674  0.64868044  1
  Sc  Sc23  1  0.44410371  0.09178637  0.38766045  1
  Sc  Sc24  1  0.11070918  0.08988749  0.88208712  1
  Sc  Sc25  1  0.78047969  0.09254083  0.38771605  1
  Sc  Sc26  1  0.45220272  0.09099357  0.88427452  1
  Sc  Sc27  1  0.12198602  0.42544222  0.37622305  1
  Sc  Sc28  1  0.76969102  0.43013586  0.89321335  1
  Sc  Sc29  1  0.89049486  0.53945971  0.63537212  1
  Sc  Sc30  1  0.11540666  0.43480429  0.89968530  1
  Sc  Sc31  1  0.76762749  0.42512939  0.38241580  1
  Sc  Sc32  1  0.22625085  0.86884125  0.15146419  1
  Sc  Sc33  1  0.22561500  0.86667293  0.62390812  1
  Sc  Sc34  1  0.77428919  0.76834140  0.38549740  1
  Sc  Sc35  1  0.89060105  0.87099341  0.11743302  1
  N  N36  1  0.21603170  0.18900488  0.33328081  1
  N  N37  1  0.10361028  0.10754181  0.09010663  1
  N  N38  1  0.87814105  0.19854259  0.83101304  1
  N  N39  1  0.77794759  0.09114225  0.59874854  1
  N  N40  1  0.54239525  0.23145932  0.32899788  1
  N  N41  1  0.44555258  0.09375319  0.10016715  1
  N  N42  1  0.22183194  0.21050392  0.82900821  1
  N  N43  1  0.09909023  0.11639114  0.59241590  1
  N  N44  1  0.90882674  0.19153634  0.33040163  1
  N  N45  1  0.76489075  0.11906099  0.08405861  1
  N  N46  1  0.56015079  0.22186498  0.83365588  1
  N  N47  1  0.44837187  0.09143831  0.60563835  1
  N  N48  1  0.23207232  0.55580948  0.33172946  1
  N  N49  1  0.11459068  0.42727473  0.11560837  1
  N  N50  1  0.88420258  0.55208391  0.84192756  1
  N  N51  1  0.76673664  0.41754681  0.59619400  1
  N  N52  1  0.52958307  0.55404223  0.32892799  1
  N  N53  1  0.44271140  0.43047668  0.08080430  1
  N  N54  1  0.23387616  0.54462488  0.82845369  1
  N  N55  1  0.13339108  0.41840484  0.58905627  1
  N  N56  1  0.88648525  0.53929946  0.33848594  1
  N  N57  1  0.77415034  0.42828129  0.10932936  1
  N  N58  1  0.53811357  0.54616866  0.83145732  1
  N  N59  1  0.44440315  0.42967948  0.58303264  1
  N  N60  1  0.22132359  0.87212175  0.37253126  1
  N  N61  1  0.12868051  0.73993660  0.07315343  1
  N  N62  1  0.88485207  0.87439609  0.85248223  1
  N  N63  1  0.76850717  0.78294413  0.59448206  1
  N  N64  1  0.54224287  0.86117684  0.32445183  1
  N  N65  1  0.45730424  0.75040497  0.07837631  1
  N  N66  1  0.23340238  0.85349079  0.83593027  1
  N  N67  1  0.09542756  0.74999844  0.58839387  1
  N  N68  1  0.91071476  0.86302061  0.32477443  1
  N  N69  1  0.76786870  0.74931608  0.08697400  1
  N  N70  1  0.56251031  0.85080917  0.83619938  1
  N  N71  1  0.47173304  0.74650101  0.58312498  1
