# generated using pymatgen
data_Sc13Al23N36
_symmetry_space_group_name_H-M   'P 1'
_cell_length_a   10.02246483
_cell_length_b   10.07207344
_cell_length_c   10.08341150
_cell_angle_alpha   90.26034679
_cell_angle_beta   90.39357277
_cell_angle_gamma   60.03714236
_symmetry_Int_Tables_number   1
_chemical_formula_structural   Sc13Al23N36
_chemical_formula_sum   'Sc13 Al23 N36'
_cell_volume   881.82694483
_cell_formula_units_Z   1
loop_
 _symmetry_equiv_pos_site_id
 _symmetry_equiv_pos_as_xyz
  1  'x, y, z'
loop_
 _atom_site_type_symbol
 _atom_site_label
 _atom_site_symmetry_multiplicity
 _atom_site_fract_x
 _atom_site_fract_y
 _atom_site_fract_z
 _atom_site_occupancy
  Al  Al0  1  0.10812747  0.09346664  0.31978111  1
  Al  Al1  1  0.21999688  0.20907221  0.07702951  1
  Al  Al2  1  0.77761072  0.09893440  0.81410764  1
  Al  Al3  1  0.89207362  0.20599374  0.57136552  1
  Al  Al4  1  0.54746813  0.22094085  0.13865792  1
  Al  Al5  1  0.22357319  0.20440281  0.57207729  1
  Al  Al6  1  0.87916777  0.20944568  0.07178591  1
  Al  Al7  1  0.54804752  0.21727446  0.62621186  1
  Al  Al8  1  0.22923818  0.53912467  0.13034314  1
  Al  Al9  1  0.43330111  0.43958304  0.38431167  1
  Al  Al10  1  0.55350297  0.54276927  0.07004074  1
  Al  Al11  1  0.23096357  0.53885776  0.62978811  1
  Al  Al12  1  0.88550338  0.54127794  0.06147828  1
  Al  Al13  1  0.44251477  0.43278778  0.88248052  1
  Al  Al14  1  0.55556674  0.53876814  0.57008553  1
  Al  Al15  1  0.11212095  0.75796064  0.37692559  1
  Al  Al16  1  0.77069241  0.76562571  0.82109002  1
  Al  Al17  1  0.89290671  0.86946000  0.63165073  1
  Al  Al18  1  0.44367331  0.75558340  0.32358645  1
  Al  Al19  1  0.55992007  0.85914442  0.06898942  1
  Al  Al20  1  0.12230268  0.75358940  0.87666398  1
  Al  Al21  1  0.44991628  0.75310924  0.82033410  1
  Al  Al22  1  0.55460258  0.87093225  0.57566960  1
  Sc  Sc23  1  0.44020234  0.08771025  0.33602124  1
  Sc  Sc24  1  0.10926776  0.09412797  0.83524640  1
  Sc  Sc25  1  0.77813115  0.09341309  0.34999534  1
  Sc  Sc26  1  0.45468155  0.08997568  0.84234703  1
  Sc  Sc27  1  0.11594408  0.42612430  0.33588638  1
  Sc  Sc28  1  0.76581901  0.42554725  0.83593857  1
  Sc  Sc29  1  0.88897666  0.53561056  0.59338756  1
  Sc  Sc30  1  0.12106220  0.43211718  0.84258408  1
  Sc  Sc31  1  0.77254815  0.42459193  0.32090327  1
  Sc  Sc32  1  0.22821954  0.86883227  0.09232650  1
  Sc  Sc33  1  0.22654411  0.87339671  0.58278482  1
  Sc  Sc34  1  0.77521357  0.75531171  0.32961349  1
  Sc  Sc35  1  0.88453218  0.87640969  0.09772560  1
  N  N36  1  0.21123225  0.19381982  0.38199298  1
  N  N37  1  0.09706777  0.11548382  0.12560549  1
  N  N38  1  0.87902530  0.19169886  0.88539471  1
  N  N39  1  0.78226321  0.09185023  0.60967934  1
  N  N40  1  0.53218877  0.23508576  0.33084507  1
  N  N41  1  0.44886472  0.08737572  0.11135843  1
  N  N42  1  0.22676752  0.20441726  0.89147892  1
  N  N43  1  0.10330644  0.11313201  0.62626086  1
  N  N44  1  0.90747978  0.19682379  0.38473410  1
  N  N45  1  0.76419044  0.11936237  0.12839228  1
  N  N46  1  0.56083394  0.22661935  0.81837904  1
  N  N47  1  0.44461095  0.09235980  0.61319551  1
  N  N48  1  0.23210951  0.55435775  0.31929441  1
  N  N49  1  0.10964018  0.43088113  0.10822080  1
  N  N50  1  0.88095950  0.55568673  0.86472901  1
  N  N51  1  0.76469321  0.41425599  0.62177659  1
  N  N52  1  0.53902874  0.55095170  0.37920341  1
  N  N53  1  0.44043790  0.42597263  0.07512001  1
  N  N54  1  0.23936649  0.55156741  0.81708358  1
  N  N55  1  0.13460987  0.41599730  0.61601414  1
  N  N56  1  0.88908332  0.53186546  0.38644259  1
  N  N57  1  0.77676373  0.42947869  0.10120772  1
  N  N58  1  0.53607642  0.55363111  0.88256875  1
  N  N59  1  0.44031163  0.42962156  0.57526305  1
  N  N60  1  0.22151199  0.87265131  0.35403530  1
  N  N61  1  0.12207903  0.73794170  0.06341522  1
  N  N62  1  0.89103197  0.87438090  0.83696482  1
  N  N63  1  0.76551988  0.78061712  0.62733408  1
  N  N64  1  0.54434021  0.85782423  0.38952693  1
  N  N65  1  0.46526670  0.74770474  0.13438292  1
  N  N66  1  0.23537967  0.85796437  0.85999992  1
  N  N67  1  0.10163167  0.75030972  0.57211549  1
  N  N68  1  0.90965512  0.85882955  0.31850997  1
  N  N69  1  0.76993205  0.74776770  0.11595510  1
  N  N70  1  0.56348467  0.85124556  0.87957957  1
  N  N71  1  0.46671822  0.74718996  0.63218473  1
