# generated using pymatgen
data_Sc13Al23N36
_symmetry_space_group_name_H-M   'P 1'
_cell_length_a   10.05336340
_cell_length_b   10.10073416
_cell_length_c   10.05495288
_cell_angle_alpha   90.35273056
_cell_angle_beta   90.10477173
_cell_angle_gamma   59.78677830
_symmetry_Int_Tables_number   1
_chemical_formula_structural   Sc13Al23N36
_chemical_formula_sum   'Sc13 Al23 N36'
_cell_volume   882.32619088
_cell_formula_units_Z   1
loop_
 _symmetry_equiv_pos_site_id
 _symmetry_equiv_pos_as_xyz
  1  'x, y, z'
loop_
 _atom_site_type_symbol
 _atom_site_label
 _atom_site_symmetry_multiplicity
 _atom_site_fract_x
 _atom_site_fract_y
 _atom_site_fract_z
 _atom_site_occupancy
  Al  Al0  1  0.11706780  0.09175550  0.39647519  1
  Al  Al1  1  0.21196210  0.20640680  0.13271328  1
  Al  Al2  1  0.77457286  0.09891321  0.81486699  1
  Al  Al3  1  0.88622311  0.20738513  0.57800844  1
  Al  Al4  1  0.54551711  0.22116238  0.14004055  1
  Al  Al5  1  0.23377259  0.20623119  0.63626185  1
  Al  Al6  1  0.87684723  0.20971255  0.06318789  1
  Al  Al7  1  0.54788682  0.21652928  0.62853738  1
  Al  Al8  1  0.22675272  0.54033959  0.13458930  1
  Al  Al9  1  0.43552380  0.44011213  0.38507329  1
  Al  Al10  1  0.54702944  0.54582870  0.07396222  1
  Al  Al11  1  0.23100127  0.53542101  0.63257561  1
  Al  Al12  1  0.88104001  0.54226828  0.06470434  1
  Al  Al13  1  0.44101154  0.43363219  0.88394197  1
  Al  Al14  1  0.55910688  0.53680756  0.57070109  1
  Al  Al15  1  0.11140051  0.75820192  0.38544296  1
  Al  Al16  1  0.76811857  0.76698243  0.82373190  1
  Al  Al17  1  0.89174320  0.86882276  0.63521638  1
  Al  Al18  1  0.44688250  0.75442414  0.33066122  1
  Al  Al19  1  0.55601305  0.85809725  0.07537053  1
  Al  Al20  1  0.12467277  0.75348125  0.87774243  1
  Al  Al21  1  0.45050730  0.75313514  0.82129188  1
  Al  Al22  1  0.55718908  0.86922069  0.57701531  1
  Sc  Sc23  1  0.44052821  0.09259273  0.36352018  1
  Sc  Sc24  1  0.11259059  0.09099520  0.85816833  1
  Sc  Sc25  1  0.78012573  0.09420337  0.34725259  1
  Sc  Sc26  1  0.45722850  0.09326918  0.87553886  1
  Sc  Sc27  1  0.12325565  0.42536178  0.36850426  1
  Sc  Sc28  1  0.76174265  0.43007277  0.83830303  1
  Sc  Sc29  1  0.89109892  0.53463371  0.60108027  1
  Sc  Sc30  1  0.12242173  0.43392663  0.87486695  1
  Sc  Sc31  1  0.77867369  0.42255827  0.32109592  1
  Sc  Sc32  1  0.21375310  0.87797323  0.13111227  1
  Sc  Sc33  1  0.22963399  0.86151801  0.60888885  1
  Sc  Sc34  1  0.77900094  0.75467457  0.33366289  1
  Sc  Sc35  1  0.88331050  0.87494028  0.09535263  1
  N  N36  1  0.20888153  0.19287425  0.32172972  1
  N  N37  1  0.09859817  0.11227607  0.07650712  1
  N  N38  1  0.87417551  0.19593630  0.87369938  1
  N  N39  1  0.78200323  0.09021750  0.61209436  1
  N  N40  1  0.53331588  0.23541804  0.33037581  1
  N  N41  1  0.44560947  0.09204568  0.10079323  1
  N  N42  1  0.23062659  0.20674323  0.82430777  1
  N  N43  1  0.11202319  0.10925951  0.59711138  1
  N  N44  1  0.90459353  0.19821339  0.38888136  1
  N  N45  1  0.76416086  0.11881859  0.12401131  1
  N  N46  1  0.55813973  0.22656588  0.82013089  1
  N  N47  1  0.45006967  0.09355927  0.59391069  1
  N  N48  1  0.23259966  0.55587948  0.32194954  1
  N  N49  1  0.11006723  0.43001613  0.09792242  1
  N  N50  1  0.88094326  0.55615364  0.86405648  1
  N  N51  1  0.76573312  0.41503980  0.62504293  1
  N  N52  1  0.54341489  0.54806933  0.37916609  1
  N  N53  1  0.43814252  0.42648995  0.07742976  1
  N  N54  1  0.23701667  0.54841362  0.81929530  1
  N  N55  1  0.13889318  0.41591340  0.59145575  1
  N  N56  1  0.89016683  0.53190869  0.39083462  1
  N  N57  1  0.77440841  0.42957611  0.09982713  1
  N  N58  1  0.53110476  0.55635018  0.88597858  1
  N  N59  1  0.44217858  0.43029677  0.57741872  1
  N  N60  1  0.22182688  0.87208114  0.36155532  1
  N  N61  1  0.12403670  0.74046450  0.06436403  1
  N  N62  1  0.88759317  0.87506591  0.84178703  1
  N  N63  1  0.76575144  0.78068815  0.62968216  1
  N  N64  1  0.54688837  0.85700520  0.38901607  1
  N  N65  1  0.45690868  0.75181513  0.13866553  1
  N  N66  1  0.23103435  0.85489191  0.83008132  1
  N  N67  1  0.09920745  0.74684427  0.57669137  1
  N  N68  1  0.91234184  0.85918901  0.31835147  1
  N  N69  1  0.76709648  0.74795073  0.11946640  1
  N  N70  1  0.56088103  0.85095856  0.88345425  1
  N  N71  1  0.47464703  0.74362023  0.63239331  1
