# generated using pymatgen
data_Sc13Al23N36
_symmetry_space_group_name_H-M   'P 1'
_cell_length_a   10.14782731
_cell_length_b   10.18855324
_cell_length_c   9.76107092
_cell_angle_alpha   90.50775982
_cell_angle_beta   89.91142189
_cell_angle_gamma   59.79500255
_symmetry_Int_Tables_number   1
_chemical_formula_structural   Sc13Al23N36
_chemical_formula_sum   'Sc13 Al23 N36'
_cell_volume   872.13822324
_cell_formula_units_Z   1
loop_
 _symmetry_equiv_pos_site_id
 _symmetry_equiv_pos_as_xyz
  1  'x, y, z'
loop_
 _atom_site_type_symbol
 _atom_site_label
 _atom_site_symmetry_multiplicity
 _atom_site_fract_x
 _atom_site_fract_y
 _atom_site_fract_z
 _atom_site_occupancy
  Al  Al0  1  0.11716950  0.09007459  0.38960626  1
  Al  Al1  1  0.21302536  0.20535790  0.12742980  1
  Al  Al2  1  0.76943198  0.09970268  0.84284788  1
  Al  Al3  1  0.88589994  0.20498539  0.58174215  1
  Al  Al4  1  0.54647157  0.22060525  0.13099082  1
  Al  Al5  1  0.23327920  0.20633791  0.63106290  1
  Al  Al6  1  0.87989907  0.21063945  0.06591284  1
  Al  Al7  1  0.55334143  0.21333329  0.62543010  1
  Al  Al8  1  0.22825957  0.54024229  0.13185432  1
  Al  Al9  1  0.43883175  0.44064462  0.38038888  1
  Al  Al10  1  0.54926761  0.53805741  0.12657369  1
  Al  Al11  1  0.23056327  0.53611554  0.62704340  1
  Al  Al12  1  0.88280837  0.54234394  0.06997460  1
  Al  Al13  1  0.44245437  0.43468216  0.88036968  1
  Al  Al14  1  0.55211988  0.53277495  0.63087476  1
  Al  Al15  1  0.11111913  0.75878523  0.38090240  1
  Al  Al16  1  0.76856848  0.76758968  0.82272745  1
  Al  Al17  1  0.88754949  0.87522323  0.63291606  1
  Al  Al18  1  0.44263853  0.75810647  0.32662548  1
  Al  Al19  1  0.55810427  0.85818750  0.07365712  1
  Al  Al20  1  0.12436939  0.75145811  0.87304437  1
  Al  Al21  1  0.44779335  0.75642744  0.82373868  1
  Al  Al22  1  0.55483057  0.87032670  0.57495702  1
  Sc  Sc23  1  0.44227425  0.09234385  0.35520630  1
  Sc  Sc24  1  0.11054048  0.09311415  0.85067097  1
  Sc  Sc25  1  0.77922229  0.09415118  0.35067380  1
  Sc  Sc26  1  0.45601006  0.09080541  0.86494391  1
  Sc  Sc27  1  0.12361638  0.42461615  0.36234935  1
  Sc  Sc28  1  0.76567230  0.43108783  0.84857737  1
  Sc  Sc29  1  0.89262518  0.53598228  0.60403762  1
  Sc  Sc30  1  0.12301879  0.43377294  0.86912236  1
  Sc  Sc31  1  0.77803219  0.42357815  0.34291502  1
  Sc  Sc32  1  0.21666781  0.87644189  0.11332374  1
  Sc  Sc33  1  0.22871686  0.86193816  0.60384614  1
  Sc  Sc34  1  0.77939465  0.75740933  0.34030581  1
  Sc  Sc35  1  0.88533605  0.87117732  0.09390723  1
  N  N36  1  0.21145223  0.19146204  0.32287849  1
  N  N37  1  0.09726812  0.11397105  0.07636062  1
  N  N38  1  0.87542476  0.19797456  0.86571028  1
  N  N39  1  0.77879915  0.09143748  0.60194550  1
  N  N40  1  0.53596526  0.23463885  0.32691370  1
  N  N41  1  0.44578575  0.09250882  0.09800404  1
  N  N42  1  0.22924994  0.20665942  0.82560725  1
  N  N43  1  0.11128763  0.10833605  0.59772690  1
  N  N44  1  0.90757505  0.19371241  0.38233014  1
  N  N45  1  0.76235739  0.11635047  0.10232023  1
  N  N46  1  0.55723978  0.22498528  0.82295003  1
  N  N47  1  0.45059744  0.09335390  0.59534130  1
  N  N48  1  0.23257061  0.55442453  0.32486067  1
  N  N49  1  0.11163722  0.42949730  0.09910796  1
  N  N50  1  0.88289874  0.55751632  0.85931867  1
  N  N51  1  0.76708577  0.41677503  0.61303472  1
  N  N52  1  0.53804562  0.54454322  0.32709857  1
  N  N53  1  0.44068507  0.43018244  0.07498828  1
  N  N54  1  0.23775228  0.54726286  0.81918222  1
  N  N55  1  0.13926912  0.41594112  0.59283129  1
  N  N56  1  0.89332934  0.53403128  0.38707318  1
  N  N57  1  0.77500198  0.42990258  0.09800141  1
  N  N58  1  0.53317763  0.54656567  0.83320697  1
  N  N59  1  0.44452496  0.43106418  0.57533345  1
  N  N60  1  0.22158044  0.87118655  0.35762225  1
  N  N61  1  0.12320398  0.73853327  0.06494165  1
  N  N62  1  0.88539957  0.87610497  0.84240291  1
  N  N63  1  0.76516341  0.78299335  0.62154272  1
  N  N64  1  0.54500722  0.85823204  0.38083322  1
  N  N65  1  0.45471177  0.75568218  0.12349665  1
  N  N66  1  0.23112198  0.85552824  0.83876521  1
  N  N67  1  0.09769602  0.74924467  0.57922489  1
  N  N68  1  0.91118452  0.86179734  0.31886014  1
  N  N69  1  0.76739743  0.74857041  0.11775070  1
  N  N70  1  0.56248445  0.84976219  0.87679901  1
  N  N71  1  0.46815539  0.74916755  0.62349036  1
