# generated using pymatgen
data_Sc13Al23N36
_symmetry_space_group_name_H-M   'P 1'
_cell_length_a   10.04588962
_cell_length_b   10.08729719
_cell_length_c   9.99776793
_cell_angle_alpha   89.85173984
_cell_angle_beta   90.25589744
_cell_angle_gamma   60.02846000
_symmetry_Int_Tables_number   1
_chemical_formula_structural   Sc13Al23N36
_chemical_formula_sum   'Sc13 Al23 N36'
_cell_volume   877.62770992
_cell_formula_units_Z   1
loop_
 _symmetry_equiv_pos_site_id
 _symmetry_equiv_pos_as_xyz
  1  'x, y, z'
loop_
 _atom_site_type_symbol
 _atom_site_label
 _atom_site_symmetry_multiplicity
 _atom_site_fract_x
 _atom_site_fract_y
 _atom_site_fract_z
 _atom_site_occupancy
  Al  Al0  1  0.10879376  0.09355667  0.31953047  1
  Al  Al1  1  0.22016516  0.20892230  0.07540242  1
  Al  Al2  1  0.77326276  0.10069524  0.81608787  1
  Al  Al3  1  0.89001079  0.20627759  0.57169626  1
  Al  Al4  1  0.55507166  0.21686866  0.06510070  1
  Al  Al5  1  0.22467040  0.20295963  0.56959677  1
  Al  Al6  1  0.88053758  0.20966280  0.07094746  1
  Al  Al7  1  0.54956738  0.21081679  0.57671768  1
  Al  Al8  1  0.23185797  0.53716257  0.13117782  1
  Al  Al9  1  0.43731540  0.43890701  0.36615619  1
  Al  Al10  1  0.54934493  0.53951671  0.06797684  1
  Al  Al11  1  0.22611566  0.54146999  0.62740577  1
  Al  Al12  1  0.88553815  0.54142151  0.06208150  1
  Al  Al13  1  0.44531412  0.43545153  0.83503090  1
  Al  Al14  1  0.55605906  0.53836891  0.57470986  1
  Al  Al15  1  0.11037737  0.75956702  0.37665986  1
  Al  Al16  1  0.76995566  0.76631931  0.82080738  1
  Al  Al17  1  0.89073074  0.87274742  0.63300827  1
  Al  Al18  1  0.44371318  0.75624247  0.32382576  1
  Al  Al19  1  0.56060821  0.85753838  0.06770836  1
  Al  Al20  1  0.12126651  0.75417106  0.87771020  1
  Al  Al21  1  0.44971106  0.75370257  0.81961800  1
  Al  Al22  1  0.55352997  0.87242834  0.57346874  1
  Sc  Sc23  1  0.44362084  0.09136653  0.32545791  1
  Sc  Sc24  1  0.10855703  0.09325145  0.83408413  1
  Sc  Sc25  1  0.77660146  0.09657420  0.33776730  1
  Sc  Sc26  1  0.45230909  0.08827205  0.83448095  1
  Sc  Sc27  1  0.11425998  0.42600647  0.33879656  1
  Sc  Sc28  1  0.76822890  0.42580505  0.83822167  1
  Sc  Sc29  1  0.88883860  0.53668258  0.59455514  1
  Sc  Sc30  1  0.12076194  0.43172799  0.84490185  1
  Sc  Sc31  1  0.77097358  0.42655750  0.32122620  1
  Sc  Sc32  1  0.22877768  0.86789043  0.09391231  1
  Sc  Sc33  1  0.22628422  0.87296699  0.58324253  1
  Sc  Sc34  1  0.77483592  0.75781263  0.33099976  1
  Sc  Sc35  1  0.88544164  0.87430702  0.09389699  1
  N  N36  1  0.21527271  0.19154466  0.37757244  1
  N  N37  1  0.09764203  0.11485988  0.12377717  1
  N  N38  1  0.87907531  0.19162355  0.88324222  1
  N  N39  1  0.77793291  0.09551932  0.61760989  1
  N  N40  1  0.53894974  0.22721572  0.38677147  1
  N  N41  1  0.45116963  0.08906105  0.10543424  1
  N  N42  1  0.22553235  0.20329803  0.88849482  1
  N  N43  1  0.10317235  0.11244648  0.62296356  1
  N  N44  1  0.90670317  0.19729940  0.38263251  1
  N  N45  1  0.76213022  0.11996480  0.12407190  1
  N  N46  1  0.56330584  0.21844009  0.86809261  1
  N  N47  1  0.44441302  0.09199308  0.61483790  1
  N  N48  1  0.22986177  0.55335102  0.32562177  1
  N  N49  1  0.11064213  0.43052331  0.10672800  1
  N  N50  1  0.88137786  0.55643558  0.86297535  1
  N  N51  1  0.76673706  0.41463295  0.62188813  1
  N  N52  1  0.53718158  0.55110729  0.38373490  1
  N  N53  1  0.44444731  0.42796913  0.10001061  1
  N  N54  1  0.23197525  0.55471068  0.81780962  1
  N  N55  1  0.13513646  0.41532587  0.61077275  1
  N  N56  1  0.88679843  0.53335989  0.38546394  1
  N  N57  1  0.77639640  0.42958113  0.09887710  1
  N  N58  1  0.53557870  0.55170727  0.87841802  1
  N  N59  1  0.44587247  0.43075091  0.61049156  1
  N  N60  1  0.22160007  0.87202169  0.35225398  1
  N  N61  1  0.12287917  0.73753850  0.06611990  1
  N  N62  1  0.88962862  0.87438458  0.83990627  1
  N  N63  1  0.76479747  0.78275640  0.62478316  1
  N  N64  1  0.54195649  0.86241099  0.38532060  1
  N  N65  1  0.46631297  0.74548504  0.13285198  1
  N  N66  1  0.23536307  0.85682838  0.85818533  1
  N  N67  1  0.09856544  0.75352954  0.57251607  1
  N  N68  1  0.90874094  0.86099642  0.31712258  1
  N  N69  1  0.77025799  0.74747118  0.11529026  1
  N  N70  1  0.56334717  0.85001011  0.87782069  1
  N  N71  1  0.46667501  0.74879146  0.63021947  1
