# generated using pymatgen
data_Sc13Al23N36
_symmetry_space_group_name_H-M   'P 1'
_cell_length_a   10.09024636
_cell_length_b   10.12722065
_cell_length_c   9.91686764
_cell_angle_alpha   90.06092119
_cell_angle_beta   90.13576408
_cell_angle_gamma   59.95295501
_symmetry_Int_Tables_number   1
_chemical_formula_structural   Sc13Al23N36
_chemical_formula_sum   'Sc13 Al23 N36'
_cell_volume   877.18236498
_cell_formula_units_Z   1
loop_
 _symmetry_equiv_pos_site_id
 _symmetry_equiv_pos_as_xyz
  1  'x, y, z'
loop_
 _atom_site_type_symbol
 _atom_site_label
 _atom_site_symmetry_multiplicity
 _atom_site_fract_x
 _atom_site_fract_y
 _atom_site_fract_z
 _atom_site_occupancy
  Al  Al0  1  0.10657610  0.08918739  0.31176575  1
  Al  Al1  1  0.21845963  0.20898097  0.12319502  1
  Al  Al2  1  0.77601887  0.09953412  0.81181960  1
  Al  Al3  1  0.89614381  0.20493448  0.57203426  1
  Al  Al4  1  0.54583795  0.21974866  0.14000441  1
  Al  Al5  1  0.22962284  0.20671201  0.64135872  1
  Al  Al6  1  0.87342841  0.20962315  0.06915556  1
  Al  Al7  1  0.54723929  0.21803294  0.62429390  1
  Al  Al8  1  0.22675447  0.53730163  0.13196130  1
  Al  Al9  1  0.43386704  0.44089876  0.38222387  1
  Al  Al10  1  0.55298223  0.54069855  0.07308787  1
  Al  Al11  1  0.23141797  0.53863614  0.62900570  1
  Al  Al12  1  0.88234309  0.54166650  0.06394087  1
  Al  Al13  1  0.44249092  0.43288600  0.88088256  1
  Al  Al14  1  0.55500190  0.53924112  0.56961516  1
  Al  Al15  1  0.11249104  0.75917146  0.37769848  1
  Al  Al16  1  0.76963744  0.76709070  0.82065803  1
  Al  Al17  1  0.89230742  0.87046379  0.62825784  1
  Al  Al18  1  0.44369837  0.75647551  0.32355655  1
  Al  Al19  1  0.56136094  0.85638148  0.07249833  1
  Al  Al20  1  0.12123494  0.75323125  0.87284107  1
  Al  Al21  1  0.45050187  0.75275886  0.82139765  1
  Al  Al22  1  0.55497040  0.86940750  0.57745487  1
  Sc  Sc23  1  0.43732298  0.09260037  0.36312110  1
  Sc  Sc24  1  0.10821346  0.09414414  0.85096519  1
  Sc  Sc25  1  0.77767924  0.09451503  0.35257798  1
  Sc  Sc26  1  0.46099992  0.09151576  0.86924807  1
  Sc  Sc27  1  0.12252089  0.42370082  0.36786110  1
  Sc  Sc28  1  0.76333984  0.42668832  0.83506131  1
  Sc  Sc29  1  0.89051719  0.53500105  0.60162648  1
  Sc  Sc30  1  0.12120222  0.43746858  0.86822444  1
  Sc  Sc31  1  0.77565088  0.42507991  0.32612379  1
  Sc  Sc32  1  0.22939253  0.86107065  0.09341276  1
  Sc  Sc33  1  0.22489575  0.87587203  0.59165103  1
  Sc  Sc34  1  0.77719397  0.75589098  0.33672479  1
  Sc  Sc35  1  0.88378729  0.87596456  0.09752355  1
  N  N36  1  0.21058144  0.19593544  0.31635210  1
  N  N37  1  0.09492228  0.10776429  0.10368495  1
  N  N38  1  0.87386472  0.19493981  0.87981970  1
  N  N39  1  0.78258764  0.09224719  0.60624658  1
  N  N40  1  0.53161181  0.23501282  0.33373426  1
  N  N41  1  0.44946387  0.08954893  0.09854999  1
  N  N42  1  0.23123774  0.20753124  0.83800356  1
  N  N43  1  0.10396808  0.11405658  0.62770828  1
  N  N44  1  0.91060549  0.19462100  0.38111162  1
  N  N45  1  0.76129055  0.11851383  0.12658012  1
  N  N46  1  0.56098745  0.22653546  0.81789205  1
  N  N47  1  0.44658949  0.09342610  0.59946086  1
  N  N48  1  0.23071071  0.55459836  0.32169682  1
  N  N49  1  0.10991530  0.43029470  0.09378326  1
  N  N50  1  0.87976528  0.55578071  0.85893567  1
  N  N51  1  0.76479381  0.41443108  0.61685548  1
  N  N52  1  0.53898040  0.55090616  0.37527796  1
  N  N53  1  0.43903304  0.42574849  0.07731248  1
  N  N54  1  0.23885661  0.55002462  0.81737218  1
  N  N55  1  0.13785259  0.41692359  0.59700825  1
  N  N56  1  0.89080045  0.53220116  0.38894347  1
  N  N57  1  0.77644605  0.42839044  0.10131949  1
  N  N58  1  0.53477092  0.55310390  0.88183562  1
  N  N59  1  0.44101913  0.43137983  0.57657392  1
  N  N60  1  0.22114180  0.87245179  0.34966558  1
  N  N61  1  0.12032245  0.73556095  0.06275860  1
  N  N62  1  0.88866730  0.87535440  0.83697578  1
  N  N63  1  0.76600901  0.78157054  0.62285827  1
  N  N64  1  0.54393684  0.85762661  0.38669802  1
  N  N65  1  0.46536565  0.74662703  0.13178828  1
  N  N66  1  0.23449907  0.85590017  0.85335280  1
  N  N67  1  0.10221919  0.75159971  0.57516352  1
  N  N68  1  0.90966077  0.86074278  0.32192158  1
  N  N69  1  0.77046671  0.74696353  0.11778941  1
  N  N70  1  0.56382897  0.84996525  0.87841144  1
  N  N71  1  0.46734940  0.74713878  0.63051699  1
