# generated using pymatgen
data_Sc13Al23N36
_symmetry_space_group_name_H-M   'P 1'
_cell_length_a   10.05141393
_cell_length_b   10.10296852
_cell_length_c   10.00133157
_cell_angle_alpha   90.51136145
_cell_angle_beta   90.01896029
_cell_angle_gamma   59.78481679
_symmetry_Int_Tables_number   1
_chemical_formula_structural   Sc13Al23N36
_chemical_formula_sum   'Sc13 Al23 N36'
_cell_volume   877.59977061
_cell_formula_units_Z   1
loop_
 _symmetry_equiv_pos_site_id
 _symmetry_equiv_pos_as_xyz
  1  'x, y, z'
loop_
 _atom_site_type_symbol
 _atom_site_label
 _atom_site_symmetry_multiplicity
 _atom_site_fract_x
 _atom_site_fract_y
 _atom_site_fract_z
 _atom_site_occupancy
  Al  Al0  1  0.10964968  0.09594767  0.38496626  1
  Al  Al1  1  0.21739611  0.20542936  0.12967165  1
  Al  Al2  1  0.76998270  0.10474648  0.88182007  1
  Al  Al3  1  0.88237779  0.20071617  0.63103118  1
  Al  Al4  1  0.54886892  0.21978870  0.12807821  1
  Al  Al5  1  0.22911041  0.20655178  0.62816579  1
  Al  Al6  1  0.88839482  0.21323027  0.12855397  1
  Al  Al7  1  0.55737447  0.21088244  0.62990665  1
  Al  Al8  1  0.22907453  0.53910933  0.13241009  1
  Al  Al9  1  0.43917780  0.43867332  0.38071115  1
  Al  Al10  1  0.55229857  0.53701359  0.13308938  1
  Al  Al11  1  0.23008831  0.53647008  0.62842745  1
  Al  Al12  1  0.88332713  0.54096534  0.06967982  1
  Al  Al13  1  0.44261998  0.43514535  0.88111701  1
  Al  Al14  1  0.55176681  0.53122250  0.63357367  1
  Al  Al15  1  0.11019408  0.75787702  0.38228110  1
  Al  Al16  1  0.76835161  0.76782650  0.82405878  1
  Al  Al17  1  0.88539525  0.87950892  0.64011968  1
  Al  Al18  1  0.44240950  0.75970110  0.32742304  1
  Al  Al19  1  0.55602234  0.85944483  0.07037455  1
  Al  Al20  1  0.12431542  0.75258990  0.87421448  1
  Al  Al21  1  0.44747464  0.75669061  0.81734663  1
  Al  Al22  1  0.55668769  0.86977047  0.57390108  1
  Sc  Sc23  1  0.44414605  0.09416417  0.36108718  1
  Sc  Sc24  1  0.11055230  0.09159257  0.86319260  1
  Sc  Sc25  1  0.78186477  0.09127101  0.36608789  1
  Sc  Sc26  1  0.45503377  0.09105201  0.86333151  1
  Sc  Sc27  1  0.12179971  0.42495935  0.36666548  1
  Sc  Sc28  1  0.76719714  0.42519129  0.86517336  1
  Sc  Sc29  1  0.89183055  0.53774039  0.60787911  1
  Sc  Sc30  1  0.12365130  0.43169775  0.87143651  1
  Sc  Sc31  1  0.77117136  0.42329180  0.37587621  1
  Sc  Sc32  1  0.21517913  0.87634933  0.12429091  1
  Sc  Sc33  1  0.22445313  0.86756734  0.60211687  1
  Sc  Sc34  1  0.77916043  0.75527600  0.33276228  1
  Sc  Sc35  1  0.88756659  0.86965189  0.09523684  1
  N  N36  1  0.21403805  0.19095404  0.31923426  1
  N  N37  1  0.09974553  0.11437143  0.07371941  1
  N  N38  1  0.87996117  0.19188970  0.81832587  1
  N  N39  1  0.77855995  0.08969263  0.58169046  1
  N  N40  1  0.54308550  0.23237553  0.31799877  1
  N  N41  1  0.44654348  0.09387417  0.09213428  1
  N  N42  1  0.22684258  0.20497179  0.81688816  1
  N  N43  1  0.10053241  0.11612349  0.58006342  1
  N  N44  1  0.90924887  0.19308047  0.31777294  1
  N  N45  1  0.76477688  0.12006188  0.07572195  1
  N  N46  1  0.56139536  0.22307898  0.82208135  1
  N  N47  1  0.44971414  0.09470850  0.59279807  1
  N  N48  1  0.23228145  0.55325551  0.32152931  1
  N  N49  1  0.11204174  0.42912860  0.09598562  1
  N  N50  1  0.88226599  0.55520239  0.85932659  1
  N  N51  1  0.76566471  0.41431144  0.59856237  1
  N  N52  1  0.53679702  0.54486666  0.32594861  1
  N  N53  1  0.44185502  0.43096617  0.07220269  1
  N  N54  1  0.23705378  0.54720887  0.81656069  1
  N  N55  1  0.13874372  0.41662995  0.58940497  1
  N  N56  1  0.89055333  0.53574089  0.39344941  1
  N  N57  1  0.77369760  0.43035402  0.09015431  1
  N  N58  1  0.53559613  0.54435451  0.82714110  1
  N  N59  1  0.44471247  0.42872568  0.57226380  1
  N  N60  1  0.21981730  0.87216722  0.35688063  1
  N  N61  1  0.12600046  0.73738024  0.06178781  1
  N  N62  1  0.88582087  0.87810009  0.84418209  1
  N  N63  1  0.76405814  0.78470432  0.62986793  1
  N  N64  1  0.54659109  0.85849042  0.38427138  1
  N  N65  1  0.45421362  0.75742026  0.12884764  1
  N  N66  1  0.23009539  0.85582504  0.82993632  1
  N  N67  1  0.09544038  0.75038453  0.57575241  1
  N  N68  1  0.91149698  0.86181336  0.31123999  1
  N  N69  1  0.76711941  0.74807339  0.11668932  1
  N  N70  1  0.56105517  0.84899236  0.87895325  1
  N  N71  1  0.46762835  0.74993635  0.62277162  1
