# generated using pymatgen
data_Sc13Al23N36
_symmetry_space_group_name_H-M   'P 1'
_cell_length_a   10.07666260
_cell_length_b   10.13716353
_cell_length_c   9.98406617
_cell_angle_alpha   90.46563825
_cell_angle_beta   89.87808164
_cell_angle_gamma   59.76611278
_symmetry_Int_Tables_number   1
_chemical_formula_structural   Sc13Al23N36
_chemical_formula_sum   'Sc13 Al23 N36'
_cell_volume   881.08392114
_cell_formula_units_Z   1
loop_
 _symmetry_equiv_pos_site_id
 _symmetry_equiv_pos_as_xyz
  1  'x, y, z'
loop_
 _atom_site_type_symbol
 _atom_site_label
 _atom_site_symmetry_multiplicity
 _atom_site_fract_x
 _atom_site_fract_y
 _atom_site_fract_z
 _atom_site_occupancy
  Al  Al0  1  0.11814307  0.09039058  0.39429894  1
  Al  Al1  1  0.21158971  0.20690499  0.13010192  1
  Al  Al2  1  0.77248108  0.09986035  0.81317996  1
  Al  Al3  1  0.88707089  0.20666124  0.57849793  1
  Al  Al4  1  0.54490987  0.22223442  0.13719551  1
  Al  Al5  1  0.23446812  0.20538590  0.63371732  1
  Al  Al6  1  0.87741627  0.20878940  0.06351749  1
  Al  Al7  1  0.54761536  0.21586182  0.62406440  1
  Al  Al8  1  0.22615940  0.54147718  0.13237377  1
  Al  Al9  1  0.43873606  0.44244224  0.38197463  1
  Al  Al10  1  0.54770426  0.53850381  0.12673536  1
  Al  Al11  1  0.23037313  0.53638644  0.62998760  1
  Al  Al12  1  0.88264638  0.54369809  0.06527278  1
  Al  Al13  1  0.44248470  0.43457451  0.88165482  1
  Al  Al14  1  0.55351865  0.53158166  0.63565429  1
  Al  Al15  1  0.11089884  0.75833634  0.38249889  1
  Al  Al16  1  0.76833242  0.76776450  0.82151528  1
  Al  Al17  1  0.89075929  0.86928651  0.63222943  1
  Al  Al18  1  0.44492588  0.75636617  0.32609732  1
  Al  Al19  1  0.55651485  0.85838089  0.07225667  1
  Al  Al20  1  0.12324516  0.75327721  0.87525577  1
  Al  Al21  1  0.44724085  0.75795608  0.82079412  1
  Al  Al22  1  0.55654601  0.86906614  0.57299167  1
  Sc  Sc23  1  0.44103300  0.09131645  0.35812308  1
  Sc  Sc24  1  0.11145396  0.09161585  0.85499392  1
  Sc  Sc25  1  0.77843880  0.09538041  0.34683584  1
  Sc  Sc26  1  0.45702690  0.09287170  0.87187013  1
  Sc  Sc27  1  0.12652289  0.42408573  0.36760033  1
  Sc  Sc28  1  0.76684266  0.42922224  0.84918986  1
  Sc  Sc29  1  0.89151590  0.53442056  0.60206512  1
  Sc  Sc30  1  0.12380239  0.43319626  0.87173727  1
  Sc  Sc31  1  0.78422460  0.42014902  0.32868799  1
  Sc  Sc32  1  0.21258396  0.87897279  0.12438098  1
  Sc  Sc33  1  0.22882935  0.86173856  0.60543449  1
  Sc  Sc34  1  0.78064689  0.75439803  0.33376787  1
  Sc  Sc35  1  0.88193190  0.87623638  0.09342342  1
  N  N36  1  0.20913144  0.19225581  0.32035420  1
  N  N37  1  0.09758560  0.11391943  0.07499736  1
  N  N38  1  0.87381902  0.19448344  0.87222400  1
  N  N39  1  0.78141202  0.09034766  0.60937519  1
  N  N40  1  0.53083333  0.23637405  0.32923407  1
  N  N41  1  0.44571749  0.09348250  0.09824600  1
  N  N42  1  0.23076522  0.20571772  0.82304730  1
  N  N43  1  0.11266188  0.10851953  0.59636802  1
  N  N44  1  0.90665015  0.19490749  0.38779338  1
  N  N45  1  0.76296435  0.11993857  0.12251745  1
  N  N46  1  0.55621619  0.22646496  0.81727262  1
  N  N47  1  0.45036902  0.09318810  0.59031521  1
  N  N48  1  0.23285283  0.55574758  0.32117928  1
  N  N49  1  0.11140276  0.42994183  0.09670041  1
  N  N50  1  0.88278187  0.55814422  0.86267756  1
  N  N51  1  0.76928363  0.41392483  0.62374462  1
  N  N52  1  0.54196353  0.54139210  0.32349352  1
  N  N53  1  0.44005270  0.42966733  0.07308511  1
  N  N54  1  0.23671029  0.54844830  0.81804190  1
  N  N55  1  0.14058263  0.41502717  0.59146165  1
  N  N56  1  0.89386576  0.53243206  0.39018533  1
  N  N57  1  0.77533242  0.43008111  0.09637660  1
  N  N58  1  0.53235812  0.54747408  0.83324737  1
  N  N59  1  0.44402855  0.43339978  0.57334042  1
  N  N60  1  0.22217635  0.87115959  0.35917400  1
  N  N61  1  0.12187673  0.74066595  0.06308446  1
  N  N62  1  0.88594859  0.87627295  0.83978349  1
  N  N63  1  0.76500973  0.78120473  0.62585847  1
  N  N64  1  0.54731516  0.85567116  0.38353608  1
  N  N65  1  0.45249977  0.75749912  0.12727666  1
  N  N66  1  0.22966055  0.85549025  0.83138003  1
  N  N67  1  0.09867601  0.74687086  0.57531775  1
  N  N68  1  0.91138382  0.86108678  0.31735548  1
  N  N69  1  0.76668602  0.74915730  0.11798525  1
  N  N70  1  0.56146198  0.85065551  0.87979987  1
  N  N71  1  0.47023393  0.74856622  0.62551736  1
