# generated using pymatgen
data_Sc13Al23N36
_symmetry_space_group_name_H-M   'P 1'
_cell_length_a   10.15815201
_cell_length_b   10.19184578
_cell_length_c   9.72793314
_cell_angle_alpha   90.59493494
_cell_angle_beta   89.95166377
_cell_angle_gamma   59.81735816
_symmetry_Int_Tables_number   1
_chemical_formula_structural   Sc13Al23N36
_chemical_formula_sum   'Sc13 Al23 N36'
_cell_volume   870.52736807
_cell_formula_units_Z   1
loop_
 _symmetry_equiv_pos_site_id
 _symmetry_equiv_pos_as_xyz
  1  'x, y, z'
loop_
 _atom_site_type_symbol
 _atom_site_label
 _atom_site_symmetry_multiplicity
 _atom_site_fract_x
 _atom_site_fract_y
 _atom_site_fract_z
 _atom_site_occupancy
  Al  Al0  1  0.11677626  0.09034524  0.38814864  1
  Al  Al1  1  0.21470816  0.20445776  0.12669751  1
  Al  Al2  1  0.76540306  0.10231706  0.87835320  1
  Al  Al3  1  0.88488469  0.20377138  0.58447654  1
  Al  Al4  1  0.54541170  0.22053039  0.12842358  1
  Al  Al5  1  0.23272219  0.20664612  0.62999581  1
  Al  Al6  1  0.88270385  0.21328801  0.06869894  1
  Al  Al7  1  0.55827738  0.21089177  0.62791295  1
  Al  Al8  1  0.22927970  0.53935800  0.13199495  1
  Al  Al9  1  0.43925726  0.43930496  0.37992806  1
  Al  Al10  1  0.54981103  0.53792092  0.12752209  1
  Al  Al11  1  0.23047150  0.53591960  0.62595844  1
  Al  Al12  1  0.88268500  0.54165083  0.07117667  1
  Al  Al13  1  0.44240789  0.43463312  0.87943427  1
  Al  Al14  1  0.55124463  0.53300461  0.62935534  1
  Al  Al15  1  0.11084218  0.75886347  0.38099391  1
  Al  Al16  1  0.76858767  0.76798683  0.82366990  1
  Al  Al17  1  0.88441583  0.88077816  0.63667482  1
  Al  Al18  1  0.44185352  0.75894064  0.32708567  1
  Al  Al19  1  0.55829566  0.85823441  0.07364070  1
  Al  Al20  1  0.12430791  0.75118174  0.87188557  1
  Al  Al21  1  0.44783581  0.75590612  0.82360810  1
  Al  Al22  1  0.55466933  0.87061177  0.57563322  1
  Sc  Sc23  1  0.44338163  0.09296881  0.35567305  1
  Sc  Sc24  1  0.10991795  0.09319766  0.84942927  1
  Sc  Sc25  1  0.77980200  0.09302237  0.35648259  1
  Sc  Sc26  1  0.45571970  0.08988557  0.86164848  1
  Sc  Sc27  1  0.12247830  0.42445547  0.36128261  1
  Sc  Sc28  1  0.76532287  0.43112135  0.84791242  1
  Sc  Sc29  1  0.89300639  0.53743336  0.60504031  1
  Sc  Sc30  1  0.12295576  0.43364016  0.86870291  1
  Sc  Sc31  1  0.77531258  0.42521173  0.35080093  1
  Sc  Sc32  1  0.21789899  0.87539355  0.11108950  1
  Sc  Sc33  1  0.22821439  0.86222971  0.60307267  1
  Sc  Sc34  1  0.77924951  0.75850605  0.34230624  1
  Sc  Sc35  1  0.88851406  0.86630854  0.09535432  1
  N  N36  1  0.21318494  0.19055411  0.32304051  1
  N  N37  1  0.09816577  0.11366258  0.07606203  1
  N  N38  1  0.87567429  0.19830734  0.86059284  1
  N  N39  1  0.77713850  0.09109681  0.58774043  1
  N  N40  1  0.53898439  0.23376881  0.32306458  1
  N  N41  1  0.44601150  0.09223238  0.09674555  1
  N  N42  1  0.22864012  0.20669411  0.82533185  1
  N  N43  1  0.11022809  0.10859590  0.59665733  1
  N  N44  1  0.90808532  0.19401842  0.37700767  1
  N  N45  1  0.76125934  0.11564363  0.08578187  1
  N  N46  1  0.55943649  0.22328221  0.82530664  1
  N  N47  1  0.45083533  0.09363326  0.59674626  1
  N  N48  1  0.23247468  0.55362897  0.32594877  1
  N  N49  1  0.11183971  0.42902184  0.09950673  1
  N  N50  1  0.88298165  0.55730016  0.85849146  1
  N  N51  1  0.76631101  0.41768652  0.60859279  1
  N  N52  1  0.53628099  0.54568447  0.32811717  1
  N  N53  1  0.44097082  0.43046190  0.07475773  1
  N  N54  1  0.23788346  0.54678735  0.81874742  1
  N  N55  1  0.13876247  0.41606283  0.59257913  1
  N  N56  1  0.89280326  0.53517019  0.38698932  1
  N  N57  1  0.77430823  0.43035453  0.09768644  1
  N  N58  1  0.53329334  0.54612365  0.83186792  1
  N  N59  1  0.44514577  0.42914740  0.57552464  1
  N  N60  1  0.22128905  0.87113156  0.35722804  1
  N  N61  1  0.12477441  0.73686474  0.06462130  1
  N  N62  1  0.88369837  0.87828509  0.84468563  1
  N  N63  1  0.76500336  0.78440981  0.62172951  1
  N  N64  1  0.54474984  0.85907250  0.38047408  1
  N  N65  1  0.45527700  0.75534570  0.12316322  1
  N  N66  1  0.23146589  0.85531547  0.83977130  1
  N  N67  1  0.09596686  0.75077263  0.58052156  1
  N  N68  1  0.91196675  0.86179497  0.31637686  1
  N  N69  1  0.76746872  0.74792588  0.11800792  1
  N  N70  1  0.56259134  0.84912306  0.87622141  1
  N  N71  1  0.46743181  0.74944307  0.62250611  1
