# generated using pymatgen
data_Sc13Al23N36
_symmetry_space_group_name_H-M   'P 1'
_cell_length_a   9.99059394
_cell_length_b   10.02539303
_cell_length_c   10.06983918
_cell_angle_alpha   89.56689036
_cell_angle_beta   89.71030399
_cell_angle_gamma   60.08331595
_symmetry_Int_Tables_number   1
_chemical_formula_structural   Sc13Al23N36
_chemical_formula_sum   'Sc13 Al23 N36'
_cell_volume   874.17220615
_cell_formula_units_Z   1
loop_
 _symmetry_equiv_pos_site_id
 _symmetry_equiv_pos_as_xyz
  1  'x, y, z'
loop_
 _atom_site_type_symbol
 _atom_site_label
 _atom_site_symmetry_multiplicity
 _atom_site_fract_x
 _atom_site_fract_y
 _atom_site_fract_z
 _atom_site_occupancy
  Al  Al0  1  0.10932648  0.09521880  0.31090170  1
  Al  Al1  1  0.22085397  0.20858496  0.06446068  1
  Al  Al2  1  0.77541851  0.09513598  0.80448269  1
  Al  Al3  1  0.88912161  0.20710320  0.56335611  1
  Al  Al4  1  0.55598537  0.21602061  0.05931027  1
  Al  Al5  1  0.22437058  0.20376782  0.55839867  1
  Al  Al6  1  0.88189869  0.20900599  0.06205831  1
  Al  Al7  1  0.54698629  0.21573035  0.56614006  1
  Al  Al8  1  0.23000171  0.53500828  0.05880989  1
  Al  Al9  1  0.43859779  0.43856459  0.31295278  1
  Al  Al10  1  0.55050439  0.53991093  0.06161712  1
  Al  Al11  1  0.23096112  0.53536810  0.56198359  1
  Al  Al12  1  0.88751484  0.54193194  0.04931758  1
  Al  Al13  1  0.44513760  0.43416358  0.81151220  1
  Al  Al14  1  0.55308699  0.53517404  0.56251204  1
  Al  Al15  1  0.11584957  0.76049061  0.34257846  1
  Al  Al16  1  0.77371256  0.76825789  0.80749563  1
  Al  Al17  1  0.88768237  0.87338335  0.56869647  1
  Al  Al18  1  0.44362621  0.75601319  0.31519202  1
  Al  Al19  1  0.56189510  0.85775257  0.05892401  1
  Al  Al20  1  0.11402226  0.75746820  0.83055706  1
  Al  Al21  1  0.45146897  0.75049040  0.81279661  1
  Al  Al22  1  0.55345338  0.87139632  0.56606345  1
  Sc  Sc23  1  0.44440187  0.09204808  0.31820621  1
  Sc  Sc24  1  0.10888079  0.09293915  0.82383034  1
  Sc  Sc25  1  0.77405754  0.10164313  0.33179002  1
  Sc  Sc26  1  0.45459433  0.08802779  0.82494721  1
  Sc  Sc27  1  0.11623471  0.42879314  0.31694672  1
  Sc  Sc28  1  0.76718163  0.42557554  0.82893866  1
  Sc  Sc29  1  0.88804788  0.53719975  0.58253218  1
  Sc  Sc30  1  0.12268032  0.42839255  0.81958607  1
  Sc  Sc31  1  0.77236954  0.42795561  0.31098872  1
  Sc  Sc32  1  0.22795393  0.86785715  0.07981786  1
  Sc  Sc33  1  0.22677957  0.87140354  0.57601234  1
  Sc  Sc34  1  0.77376506  0.75847243  0.32206352  1
  Sc  Sc35  1  0.88147303  0.87828363  0.06628593  1
  N  N36  1  0.21470527  0.19498368  0.36834716  1
  N  N37  1  0.09786412  0.11530340  0.11687079  1
  N  N38  1  0.87915227  0.18959760  0.87566125  1
  N  N39  1  0.77558757  0.09645520  0.60904610  1
  N  N40  1  0.53604927  0.23361768  0.37862282  1
  N  N41  1  0.45143534  0.08956146  0.09896830  1
  N  N42  1  0.22664638  0.20228285  0.87959060  1
  N  N43  1  0.10243942  0.11363366  0.61487096  1
  N  N44  1  0.90674624  0.19949649  0.37547098  1
  N  N45  1  0.76369625  0.11809714  0.12171800  1
  N  N46  1  0.56420148  0.21989869  0.86689265  1
  N  N47  1  0.44407655  0.09293570  0.60588653  1
  N  N48  1  0.23228239  0.54940657  0.37170402  1
  N  N49  1  0.11134620  0.42998866  0.09734048  1
  N  N50  1  0.88262737  0.55627489  0.85306778  1
  N  N51  1  0.76445319  0.41583356  0.61338768  1
  N  N52  1  0.53587345  0.54839517  0.37296384  1
  N  N53  1  0.44356082  0.42870059  0.12080406  1
  N  N54  1  0.23734463  0.54477776  0.86989004  1
  N  N55  1  0.13620606  0.41547857  0.60426415  1
  N  N56  1  0.88968198  0.53347697  0.37528421  1
  N  N57  1  0.77704712  0.42974085  0.09002254  1
  N  N58  1  0.53360401  0.54830679  0.87553345  1
  N  N59  1  0.44354244  0.43073033  0.62222091  1
  N  N60  1  0.22169645  0.87405255  0.34849161  1
  N  N61  1  0.11576726  0.74405149  0.10061950  1
  N  N62  1  0.88472198  0.87589916  0.85177582  1
  N  N63  1  0.76492039  0.78349823  0.61599127  1
  N  N64  1  0.54167957  0.86164507  0.37888077  1
  N  N65  1  0.46654468  0.74612457  0.12581450  1
  N  N66  1  0.23452138  0.85454834  0.85367834  1
  N  N67  1  0.10485208  0.75092261  0.60787018  1
  N  N68  1  0.90297804  0.86458663  0.37282034  1
  N  N69  1  0.77264780  0.74850526  0.11038822  1
  N  N70  1  0.56520686  0.84848539  0.87011300  1
  N  N71  1  0.46793984  0.74538673  0.62411017  1
