# generated using pymatgen
data_Sc13Al23N36
_symmetry_space_group_name_H-M   'P 1'
_cell_length_a   9.99980606
_cell_length_b   10.05118864
_cell_length_c   10.15006307
_cell_angle_alpha   90.27342433
_cell_angle_beta   90.41426647
_cell_angle_gamma   60.06612275
_symmetry_Int_Tables_number   1
_chemical_formula_structural   Sc13Al23N36
_chemical_formula_sum   'Sc13 Al23 N36'
_cell_volume   884.06788247
_cell_formula_units_Z   1
loop_
 _symmetry_equiv_pos_site_id
 _symmetry_equiv_pos_as_xyz
  1  'x, y, z'
loop_
 _atom_site_type_symbol
 _atom_site_label
 _atom_site_symmetry_multiplicity
 _atom_site_fract_x
 _atom_site_fract_y
 _atom_site_fract_z
 _atom_site_occupancy
  Al  Al0  1  0.10785578  0.09373605  0.31380856  1
  Al  Al1  1  0.21979600  0.20896370  0.07011699  1
  Al  Al2  1  0.77821141  0.09886748  0.80777671  1
  Al  Al3  1  0.89173903  0.20601078  0.56477311  1
  Al  Al4  1  0.54725592  0.22118714  0.13254468  1
  Al  Al5  1  0.22369134  0.20467459  0.56558458  1
  Al  Al6  1  0.87960576  0.20959654  0.06528681  1
  Al  Al7  1  0.54836912  0.21716100  0.62107891  1
  Al  Al8  1  0.22960295  0.53912895  0.12427009  1
  Al  Al9  1  0.43313454  0.43929742  0.37875140  1
  Al  Al10  1  0.55390941  0.54296196  0.06308391  1
  Al  Al11  1  0.23099175  0.53896938  0.62420206  1
  Al  Al12  1  0.88560869  0.54123715  0.05486667  1
  Al  Al13  1  0.44255649  0.43296390  0.87679101  1
  Al  Al14  1  0.55577586  0.53877558  0.56377168  1
  Al  Al15  1  0.11184287  0.75746124  0.37057768  1
  Al  Al16  1  0.77097512  0.76534622  0.81488175  1
  Al  Al17  1  0.89329657  0.86920302  0.62633626  1
  Al  Al18  1  0.44370843  0.75541936  0.31711614  1
  Al  Al19  1  0.55971232  0.85947788  0.06212845  1
  Al  Al20  1  0.12243946  0.75371189  0.87148960  1
  Al  Al21  1  0.44973540  0.75338205  0.81396970  1
  Al  Al22  1  0.55483206  0.87098778  0.56951409  1
  Sc  Sc23  1  0.43977973  0.08752450  0.32840171  1
  Sc  Sc24  1  0.10948169  0.09372483  0.82701547  1
  Sc  Sc25  1  0.77794745  0.09335811  0.34275216  1
  Sc  Sc26  1  0.45429444  0.09003995  0.83495561  1
  Sc  Sc27  1  0.11558545  0.42572993  0.32698271  1
  Sc  Sc28  1  0.76623402  0.42557367  0.82907017  1
  Sc  Sc29  1  0.88905812  0.53569892  0.58542968  1
  Sc  Sc30  1  0.12086928  0.43212131  0.83536154  1
  Sc  Sc31  1  0.77215349  0.42438287  0.31349993  1
  Sc  Sc32  1  0.22840252  0.86951152  0.08511760  1
  Sc  Sc33  1  0.22696602  0.87337503  0.57357376  1
  Sc  Sc34  1  0.77453808  0.75504743  0.32155687  1
  Sc  Sc35  1  0.88467135  0.87651636  0.09203270  1
  N  N36  1  0.21118685  0.19411518  0.37703306  1
  N  N37  1  0.09690063  0.11601595  0.12128453  1
  N  N38  1  0.87963789  0.19153632  0.88008491  1
  N  N39  1  0.78237209  0.09180331  0.60444896  1
  N  N40  1  0.53182198  0.23524665  0.32346697  1
  N  N41  1  0.44849498  0.08727928  0.10568296  1
  N  N42  1  0.22632518  0.20428239  0.88594449  1
  N  N43  1  0.10348699  0.11258208  0.61957902  1
  N  N44  1  0.90702899  0.19710878  0.37940766  1
  N  N45  1  0.76446053  0.11971700  0.12284662  1
  N  N46  1  0.56095176  0.22693324  0.81199095  1
  N  N47  1  0.44458633  0.09231183  0.60821475  1
  N  N48  1  0.23231807  0.55405318  0.31225830  1
  N  N49  1  0.10976061  0.43066952  0.10247737  1
  N  N50  1  0.88104413  0.55584719  0.86025501  1
  N  N51  1  0.76490083  0.41425866  0.61647704  1
  N  N52  1  0.53918051  0.55104811  0.37420450  1
  N  N53  1  0.44052573  0.42593243  0.06816370  1
  N  N54  1  0.23959795  0.55212986  0.81037980  1
  N  N55  1  0.13427622  0.41583927  0.61189317  1
  N  N56  1  0.88892726  0.53175717  0.37995163  1
  N  N57  1  0.77682801  0.42954469  0.09543441  1
  N  N58  1  0.53652948  0.55392384  0.87699197  1
  N  N59  1  0.44023239  0.42912273  0.56850732  1
  N  N60  1  0.22145663  0.87262955  0.34831209  1
  N  N61  1  0.12219665  0.73782113  0.05703424  1
  N  N62  1  0.89185037  0.87417790  0.83034454  1
  N  N63  1  0.76556198  0.78022031  0.62265780  1
  N  N64  1  0.54426827  0.85793430  0.38449013  1
  N  N65  1  0.46563262  0.74756157  0.12912841  1
  N  N66  1  0.23590574  0.85829430  0.85659710  1
  N  N67  1  0.10156966  0.75000837  0.56479425  1
  N  N68  1  0.90951738  0.85844260  0.31126599  1
  N  N69  1  0.76975374  0.74788363  0.10971705  1
  N  N70  1  0.56358087  0.85148296  0.87398055  1
  N  N71  1  0.46644782  0.74728177  0.62685812  1
