# generated using pymatgen
data_Li2SiO3
_symmetry_space_group_name_H-M   'P 1'
_cell_length_a   5.47325018
_cell_length_b   5.44926450
_cell_length_c   4.72871342
_cell_angle_alpha   89.99999919
_cell_angle_beta   89.99998582
_cell_angle_gamma   60.14507492
_symmetry_Int_Tables_number   1
_chemical_formula_structural   Li2SiO3
_chemical_formula_sum   'Li4 Si2 O6'
_cell_volume   122.31785131
_cell_formula_units_Z   2
loop_
 _symmetry_equiv_pos_site_id
 _symmetry_equiv_pos_as_xyz
  1  'x, y, z'
loop_
 _atom_site_type_symbol
 _atom_site_label
 _atom_site_symmetry_multiplicity
 _atom_site_fract_x
 _atom_site_fract_y
 _atom_site_fract_z
 _atom_site_occupancy
  Si  Si0  1  -0.00003667  0.22164631  0.12639906  1
  Si  Si1  1  -0.00003393  0.87840020  0.62639903  1
  O  O2  1  -0.00003486  0.93577129  0.97992286  1
  O  O3  1  -0.00003818  0.16427651  0.47992288  1
  O  O4  1  -0.71025805  0.21457391  0.04478761  1
  O  O5  1  -0.28981743  0.50435403  0.04478726  1
  O  O6  1  -0.71025637  0.59569449  0.54478758  1
  O  O7  1  -0.28981576  0.88547380  0.54478724  1
  Li  Li8  1  -0.34709949  0.88030055  0.13064158  1
  Li  Li9  1  -0.65297171  0.53323661  0.13064229  1
  Li  Li10  1  -0.65297311  0.21974687  0.63064224  1
  Li  Li11  1  -0.34710078  0.56681066  0.63064152  1
