# generated using pymatgen
data_Li2SiO3
_symmetry_space_group_name_H-M   'P 1'
_cell_length_a   4.76143652
_cell_length_b   5.45270385
_cell_length_c   5.49073070
_cell_angle_alpha   119.76379374
_cell_angle_beta   89.55248953
_cell_angle_gamma   90.19312445
_symmetry_Int_Tables_number   1
_chemical_formula_structural   Li2SiO3
_chemical_formula_sum   'Li4 Si2 O6'
_cell_volume   123.74456833
_cell_formula_units_Z   2
loop_
 _symmetry_equiv_pos_site_id
 _symmetry_equiv_pos_as_xyz
  1  'x, y, z'
loop_
 _atom_site_type_symbol
 _atom_site_label
 _atom_site_symmetry_multiplicity
 _atom_site_fract_x
 _atom_site_fract_y
 _atom_site_fract_z
 _atom_site_occupancy
  Si  Si0  1  0.00693065  0.21807569  0.99994714  1
  Si  Si1  1  0.52413289  0.88028479  0.00033173  1
  O  O2  1  0.13460847  0.92619396  0.99976308  1
  O  O3  1  0.64719566  0.17325184  0.00067402  1
  O  O4  1  0.09111842  0.21276231  0.71178733  1
  O  O5  1  0.09046161  0.50031713  0.28720151  1
  O  O6  1  0.59012578  0.59743065  0.70796049  1
  O  O7  1  0.58838805  0.88916868  0.29204262  1
  Li  Li8  1  0.02381397  0.88046387  0.34530428  1
  Li  Li9  1  0.02375247  0.53474847  0.65423821  1
  Li  Li10  1  0.50232816  0.22215402  0.65708201  1
  Li  Li11  1  0.50099829  0.56529120  0.34388576  1
