# generated using pymatgen
data_Li2SiO3
_symmetry_space_group_name_H-M   'P 1'
_cell_length_a   5.47614469
_cell_length_b   5.45437653
_cell_length_c   4.72927007
_cell_angle_alpha   90.00054558
_cell_angle_beta   89.99953317
_cell_angle_gamma   60.13133464
_symmetry_Int_Tables_number   1
_chemical_formula_structural   Li2SiO3
_chemical_formula_sum   'Li4 Si2 O6'
_cell_volume   122.49490044
_cell_formula_units_Z   2
loop_
 _symmetry_equiv_pos_site_id
 _symmetry_equiv_pos_as_xyz
  1  'x, y, z'
loop_
 _atom_site_type_symbol
 _atom_site_label
 _atom_site_symmetry_multiplicity
 _atom_site_fract_x
 _atom_site_fract_y
 _atom_site_fract_z
 _atom_site_occupancy
  Si  Si0  1  -0.00004160  0.22150880  0.01068647  1
  Si  Si1  1  -0.00003945  0.87854821  0.51068521  1
  O  O2  1  -0.00003806  0.93607153  0.15734396  1
  O  O3  1  -0.00004185  0.16398645  0.65734369  1
  O  O4  1  -0.71043799  0.21450690  0.09215279  1
  O  O5  1  -0.28964908  0.50410919  0.09215554  1
  O  O6  1  -0.71043916  0.59594460  0.59215229  1
  O  O7  1  -0.28964025  0.88554303  0.59215324  1
  Li  Li8  1  -0.34716982  0.88004896  0.00653242  1
  Li  Li9  1  -0.65291874  0.53293014  0.00653374  1
  Li  Li10  1  -0.65288904  0.21996873  0.50652857  1
  Li  Li11  1  -0.34718454  0.56711308  0.50653265  1
