# generated using pymatgen
data_Li2SiO3
_symmetry_space_group_name_H-M   'P 1'
_cell_length_a   5.49612126
_cell_length_b   5.45147899
_cell_length_c   4.77356417
_cell_angle_alpha   90.26072898
_cell_angle_beta   90.58612156
_cell_angle_gamma   60.39553295
_symmetry_Int_Tables_number   1
_chemical_formula_structural   Li2SiO3
_chemical_formula_sum   'Li4 Si2 O6'
_cell_volume   124.34789387
_cell_formula_units_Z   2
loop_
 _symmetry_equiv_pos_site_id
 _symmetry_equiv_pos_as_xyz
  1  'x, y, z'
loop_
 _atom_site_type_symbol
 _atom_site_label
 _atom_site_symmetry_multiplicity
 _atom_site_fract_x
 _atom_site_fract_y
 _atom_site_fract_z
 _atom_site_occupancy
  Si  Si0  1  -0.00006056  0.22678541  0.98641166  1
  Si  Si1  1  -0.00068909  0.87422832  0.64231813  1
  O  O2  1  -0.00071448  0.91171779  0.00706974  1
  O  O3  1  -0.00085522  0.19067199  0.62374734  1
  O  O4  1  -0.71167992  0.20785472  0.08759535  1
  O  O5  1  -0.28665612  0.49508773  0.08648600  1
  O  O6  1  -0.71101447  0.60321095  0.55341393  1
  O  O7  1  -0.28978113  0.89250079  0.54507813  1
  Li  Li8  1  -0.34161659  0.87889290  0.09852210  1
  Li  Li9  1  -0.65509595  0.53427619  0.08387028  1
  Li  Li10  1  -0.66100154  0.22306990  0.50493543  1
  Li  Li11  1  -0.34105311  0.56184592  0.50440634  1
