# generated using pymatgen
data_Li2SiO3
_symmetry_space_group_name_H-M   'P 1'
_cell_length_a   5.47506728
_cell_length_b   5.45312069
_cell_length_c   4.73347377
_cell_angle_alpha   90.00910143
_cell_angle_beta   90.00197527
_cell_angle_gamma   60.13203979
_symmetry_Int_Tables_number   1
_chemical_formula_structural   Li2SiO3
_chemical_formula_sum   'Li4 Si2 O6'
_cell_volume   122.55230164
_cell_formula_units_Z   2
loop_
 _symmetry_equiv_pos_site_id
 _symmetry_equiv_pos_as_xyz
  1  'x, y, z'
loop_
 _atom_site_type_symbol
 _atom_site_label
 _atom_site_symmetry_multiplicity
 _atom_site_fract_x
 _atom_site_fract_y
 _atom_site_fract_z
 _atom_site_occupancy
  Si  Si0  1  -0.00001852  0.22146240  0.01018979  1
  Si  Si1  1  -0.00001561  0.87856361  0.51016332  1
  O  O2  1  -0.00001234  0.93608358  0.15708075  1
  O  O3  1  -0.00001683  0.16395262  0.65709142  1
  O  O4  1  -0.71038559  0.21449524  0.09166848  1
  O  O5  1  -0.28966272  0.50412986  0.09167539  1
  O  O6  1  -0.71038865  0.59590937  0.59164652  1
  O  O7  1  -0.28964711  0.88553893  0.59165137  1
  Li  Li8  1  -0.34713387  0.88003312  0.00575093  1
  Li  Li9  1  -0.65290971  0.53292796  0.00574807  1
  Li  Li10  1  -0.65287557  0.21995475  0.50574926  1
  Li  Li11  1  -0.34715400  0.56709241  0.50575803  1
