# generated using pymatgen
data_Li2SiO3
_symmetry_space_group_name_H-M   'P 1'
_cell_length_a   5.47324548
_cell_length_b   5.45107606
_cell_length_c   4.74063452
_cell_angle_alpha   90.03761962
_cell_angle_beta   90.01245879
_cell_angle_gamma   60.13138620
_symmetry_Int_Tables_number   1
_chemical_formula_structural   Li2SiO3
_chemical_formula_sum   'Li4 Si2 O6'
_cell_volume   122.65002306
_cell_formula_units_Z   2
loop_
 _symmetry_equiv_pos_site_id
 _symmetry_equiv_pos_as_xyz
  1  'x, y, z'
loop_
 _atom_site_type_symbol
 _atom_site_label
 _atom_site_symmetry_multiplicity
 _atom_site_fract_x
 _atom_site_fract_y
 _atom_site_fract_z
 _atom_site_occupancy
  Si  Si0  1  -0.00002490  0.22142819  0.11037369  1
  Si  Si1  1  -0.00001885  0.87864191  0.61026349  1
  O  O2  1  -0.00002479  0.93613793  0.96293935  1
  O  O3  1  -0.00003226  0.16389006  0.46298757  1
  O  O4  1  -0.71033456  0.21447258  0.02888319  1
  O  O5  1  -0.28970701  0.50416676  0.02889486  1
  O  O6  1  -0.71030269  0.59582753  0.52878766  1
  O  O7  1  -0.28970374  0.88552536  0.52880231  1
  Li  Li8  1  -0.34718136  0.88003701  0.11547490  1
  Li  Li9  1  -0.65285732  0.53287143  0.11545741  1
  Li  Li10  1  -0.65285357  0.21999266  0.61549027  1
  Li  Li11  1  -0.34717712  0.56715119  0.61549973  1
