# generated using pymatgen
data_Li2SiO3
_symmetry_space_group_name_H-M   'P 1'
_cell_length_a   5.47303612
_cell_length_b   5.45074075
_cell_length_c   4.74154632
_cell_angle_alpha   90.04511278
_cell_angle_beta   90.01567589
_cell_angle_gamma   60.13159317
_symmetry_Int_Tables_number   1
_chemical_formula_structural   Li2SiO3
_chemical_formula_sum   'Li4 Si2 O6'
_cell_volume   122.66161773
_cell_formula_units_Z   2
loop_
 _symmetry_equiv_pos_site_id
 _symmetry_equiv_pos_as_xyz
  1  'x, y, z'
loop_
 _atom_site_type_symbol
 _atom_site_label
 _atom_site_symmetry_multiplicity
 _atom_site_fract_x
 _atom_site_fract_y
 _atom_site_fract_z
 _atom_site_occupancy
  Si  Si0  1  -0.00001867  0.22138863  0.01031621  1
  Si  Si1  1  -0.00001029  0.87860557  0.51018284  1
  O  O2  1  -0.00000361  0.93613831  0.15761458  1
  O  O3  1  -0.00001194  0.16390923  0.65767124  1
  O  O4  1  -0.71032460  0.21450225  0.09180164  1
  O  O5  1  -0.28974583  0.50421057  0.09181841  1
  O  O6  1  -0.71033277  0.59586378  0.59168947  1
  O  O7  1  -0.28969724  0.88555496  0.59170317  1
  Li  Li8  1  -0.34710687  0.88001549  0.00524940  1
  Li  Li9  1  -0.65293380  0.53293362  0.00523817  1
  Li  Li10  1  -0.65288185  0.21993979  0.50527458  1
  Li  Li11  1  -0.34715070  0.56708041  0.50529472  1
